@<TRIPOS>MOLECULE
tmp/6fosD02.pdb
 94 92 0 0 0
SMALL
GASTEIGER

@<TRIPOS>ATOM
      1  N        -58.4730   20.4600   48.9960 N.3     1  VAL1       -0.1231
      2  CA       -57.7000   20.7990   47.8080 C.3     1  VAL1        0.1692
      3  C        -56.8950   22.0700   48.0490 C.2     1  VAL1        0.2592
      4  O        -57.4350   23.1760   48.0130 O.2     1  VAL1       -0.2718
      5  CB       -58.6100   20.9530   46.5790 C.3     1  VAL1        0.0266
      6  CG1      -57.7990   21.3860   45.3700 C.3     1  VAL1        0.0020
      7  CG2      -59.3370   19.6490   46.2960 C.3     1  VAL1        0.0020
      8  N        -55.5980   21.8990   48.2970 N.am    2  LYS2       -0.1966
      9  CA       -54.6990   23.0130   48.5630 C.3     2  LYS2        0.1728
     10  C        -53.2660   22.5130   48.4770 C.2     2  LYS2        0.2616
     11  O        -52.9590   21.4210   48.9620 O.2     2  LYS2       -0.2715
     12  CB       -54.9680   23.6290   49.9440 C.3     2  LYS2        0.0311
     13  CG       -54.0730   24.8080   50.2920 C.3     2  LYS2        0.0038
     14  CD       -54.3510   25.3110   51.6990 C.3     2  LYS2        0.0206
     15  CE       -53.3580   26.3850   52.1110 C.3     2  LYS2        0.1093
     16  NZ       -53.4040   27.5650   51.2070 N.3     2  LYS2       -0.1314
     17  N        -52.4000   23.3110   47.8560 N.am    3  VAL3       -0.1977
     18  CA       -50.9860   22.9700   47.7440 C.3     3  VAL3        0.1596
     19  C        -50.3190   23.1890   49.0950 C.2     3  VAL3        0.2287
     20  O        -49.8230   24.2830   49.3880 O.2     3  VAL3       -0.2864
     21  CB       -50.2950   23.7920   46.6410 C.3     3  VAL3        0.0276
     22  CG1      -48.8480   23.3480   46.4720 C.3     3  VAL3        0.0022
     23  CG2      -51.0540   23.6640   45.3290 C.3     3  VAL3        0.0022
     24  N        -52.5860   16.5590   51.8960 N.3   178  TRP178     -0.1241
     25  CA       -52.6000   16.1590   50.4940 C.3   178  TRP178      0.1605
     26  C        -53.1180   14.7400   50.2870 C.2   178  TRP178      0.2264
     27  O        -53.3400   14.3430   49.1380 O.2   178  TRP178     -0.2867
     28  CB       -51.1900   16.3020   49.9110 C.3   178  TRP178      0.0550
     29  CG       -51.0950   16.0400   48.4360 C.ar  178  TRP178      0.0003
     30  CD1      -51.6750   16.7640   47.4340 C.ar  178  TRP178      0.0946
     31  CD2      -50.3650   14.9860   47.7970 C.ar  178  TRP178      0.0152
     32  NE1      -51.3580   16.2210   46.2130 N.ar  178  TRP178     -0.2442
     33  CE2      -50.5540   15.1290   46.4080 C.ar  178  TRP178      0.0810
     34  CE3      -49.5730   13.9330   48.2650 C.ar  178  TRP178      0.0012
     35  CZ2      -49.9790   14.2590   45.4820 C.ar  178  TRP178      0.0191
     36  CZ3      -49.0030   13.0710   47.3450 C.ar  178  TRP178      0.0001
     37  CH2      -49.2090   13.2390   45.9700 C.ar  178  TRP178      0.0015
     38  N        -60.3300   14.0600   45.2110 N.3   184  SER184     -0.1217
     39  CA       -59.4580   14.5220   44.1390 C.3   184  SER184      0.1889
     40  C        -58.5410   13.4250   43.6170 C.2   184  SER184      0.2288
     41  O        -57.9240   13.6100   42.5620 O.2   184  SER184     -0.2866
     42  CB       -58.6230   15.7110   44.6200 C.3   184  SER184      0.2089
     43  OG       -57.7510   16.1710   43.6030 O.3   184  SER184     -0.2183
     44  N        -58.4420   11.8430   39.3590 N.3   188  HIS188     -0.1241
     45  CA       -57.2270   11.8030   38.5580 C.3   188  HIS188      0.1621
     46  C        -56.7540   10.3930   38.2370 C.2   188  HIS188      0.2264
     47  O        -55.9390   10.2290   37.3250 O.2   188  HIS188     -0.2867
     48  CB       -56.0930   12.5580   39.2660 C.3   188  HIS188      0.0745
     49  CG       -56.3420   14.0280   39.4070 C.ar  188  HIS188      0.0817
     50  ND1      -57.0990   14.5590   40.4280 N.ar  188  HIS188     -0.2268
     51  CD2      -55.9370   15.0770   38.6520 C.ar  188  HIS188      0.1154
     52  CE1      -57.1490   15.8730   40.2980 C.ar  188  HIS188      0.1986
     53  NE2      -56.4530   16.2130   39.2280 N.ar  188  HIS188     -0.2212
     54  N        -57.2290   10.6960   34.6510 N.3   192  GLY192     -0.1225
     55  CA       -55.8760   10.9850   34.2220 C.3   192  GLY192      0.1811
     56  C        -55.0780    9.7410   33.8940 C.2   192  GLY192      0.2280
     57  O        -54.3050    9.7260   32.9310 O.2   192  GLY192     -0.2866
     58  N        -57.0050    9.0320   30.3280 N.3   196  LEU196     -0.1245
     59  CA       -55.9780    9.3910   29.3580 C.3   196  LEU196      0.1561
     60  C        -55.1220    8.2000   28.9550 C.2   196  LEU196      0.2260
     61  O        -54.5270    8.2200   27.8740 O.2   196  LEU196     -0.2867
     62  CB       -55.0910   10.5070   29.9120 C.3   196  LEU196      0.0270
     63  CG       -55.7650   11.8630   30.1220 C.3   196  LEU196      0.0019
     64  CD1      -54.7530   12.9010   30.5850 C.3   196  LEU196      0.0001
     65  CD2      -56.4650   12.3160   28.8470 C.3   196  LEU196      0.0001
     66  N        -63.9310   18.3110   43.9950 N.3   302  THR302     -0.1203
     67  CA       -62.6060   18.9000   43.8500 C.3   302  THR302      0.1994
     68  C        -62.5150   20.1500   44.7150 C.2   302  THR302      0.2618
     69  O        -62.5620   20.0640   45.9460 O.2   302  THR302     -0.2717
     70  CB       -62.3190   19.2360   42.3850 C.3   302  THR302      0.1784
     71  OG1      -63.3920   20.0250   41.8570 O.3   302  THR302     -0.2211
     72  CG2      -62.1790   17.9630   41.5630 C.3   302  THR302      0.0376
     73  N        -62.3900   21.3160   44.0820 N.am  303  ASN303     -0.1960
     74  CA       -62.4540   22.5870   44.7920 C.3   303  ASN303      0.1819
     75  C        -63.3700   23.5660   44.0670 C.2   303  ASN303      0.2621
     76  O        -63.1710   24.7810   44.1290 O.2   303  ASN303     -0.2715
     77  CB       -61.0620   23.1870   44.9830 C.3   303  ASN303      0.1195
     78  CG       -61.0200   24.2070   46.1040 C.2   303  ASN303      0.2630
     79  OD1      -62.0180   24.4390   46.7860 O.2   303  ASN303     -0.2716
     80  ND2      -59.8620   24.8140   46.3060 N.am  303  ASN303     -0.0877
     81  N        -64.3780   23.0460   43.3670 N.am  304  TRP304     -0.1974
     82  CA       -65.3870   23.8740   42.7300 C.3   304  TRP304      0.1640
     83  C        -66.7830   23.6720   43.3010 C.2   304  TRP304      0.2290
     84  O        -67.6760   24.4700   42.9970 O.2   304  TRP304     -0.2864
     85  CB       -65.4140   23.6210   41.2130 C.3   304  TRP304      0.0576
     86  CG       -64.2990   24.3090   40.4740 C.ar  304  TRP304      0.0006
     87  CD1      -64.3220   25.5680   39.9480 C.ar  304  TRP304      0.0946
     88  CD2      -62.9990   23.7770   40.1830 C.ar  304  TRP304      0.0152
     89  NE1      -63.1200   25.8530   39.3470 N.ar  304  TRP304     -0.2442
     90  CE2      -62.2910   24.7700   39.4770 C.ar  304  TRP304      0.0810
     91  CE3      -62.3670   22.5590   40.4490 C.ar  304  TRP304      0.0012
     92  CZ2      -60.9820   24.5820   39.0350 C.ar  304  TRP304      0.0191
     93  CZ3      -61.0680   22.3740   40.0090 C.ar  304  TRP304      0.0001
     94  CH2      -60.3900   23.3800   39.3100 C.ar  304  TRP304      0.0015
@<TRIPOS>BOND
     1    61    60    2
     2    65    63    1
     3    60    59    1
     4    59    62    1
     5    59    58    1
     6    62    63    1
     7    63    64    1
     8    57    56    2
     9    56    55    1
    10    55    54    1
    11    47    46    2
    12    46    45    1
    13    45    48    1
    14    45    44    1
    15    51    53   ar
    16    51    49   ar
    17    92    94   ar
    18    92    90   ar
    19    53    52   ar
    20    48    49    1
    21    94    93   ar
    22    89    90   ar
    23    89    87   ar
    24    49    50   ar
    25    90    88   ar
    26    87    86   ar
    27    93    91   ar
    28    88    91   ar
    29    88    86   ar
    30    52    50   ar
    31    86    85    1
    32    85    82    1
    33    72    70    1
    34    71    70    1
    35    70    67    1
    36    41    40    2
    37    82    83    1
    38    82    81    1
    39    84    83    2
    40    81    75   am
    41    43    42    1
    42    40    39    1
    43    67    66    1
    44    67    68    1
    45    75    76    2
    46    75    74    1
    47    73    68   am
    48    73    74    1
    49    39    42    1
    50    39    38    1
    51    68    69    2
    52    74    77    1
    53    77    78    1
    54    23    21    1
    55     6     5    1
    56    35    37   ar
    57    35    33   ar
    58    37    36   ar
    59    78    80   am
    60    78    79    2
    61    32    33   ar
    62    32    30   ar
    63     7     5    1
    64    33    31   ar
    65    22    21    1
    66     5     2    1
    67    21    18    1
    68    36    34   ar
    69    30    29   ar
    70    18    17    1
    71    18    19    1
    72    31    34   ar
    73    31    29   ar
    74     2     3    1
    75     2     1    1
    76    17    10   am
    77     4     3    2
    78     3     8   am
    79     8     9    1
    80    29    28    1
    81    10     9    1
    82    10    11    2
    83     9    12    1
    84    19    20    2
    85    27    26    2
    86    28    25    1
    87    12    13    1
    88    26    25    1
    89    13    14    1
    90    25    24    1
    91    16    15    1
    92    14    15    1
