@<TRIPOS>MOLECULE
tmp/6fosE19.pdb
 246 236 0 0 0
SMALL
GASTEIGER

@<TRIPOS>ATOM
      1  N        -57.8040  -44.5580   75.5450 N.3    18  ILE18      -0.1231
      2  CA       -57.2910  -45.6170   74.6860 C.3    18  ILE18       0.1692
      3  C        -55.7870  -45.4530   74.4900 C.2    18  ILE18       0.2592
      4  O        -55.0560  -46.4450   74.3780 O.2    18  ILE18      -0.2718
      5  CB       -58.0300  -45.6330   73.3310 C.3    18  ILE18       0.0266
      6  CG1      -59.5380  -45.7620   73.5590 C.3    18  ILE18       0.0019
      7  CG2      -57.5210  -46.7660   72.4570 C.3    18  ILE18       0.0020
      8  CD1      -60.3370  -45.7970   72.2810 C.3    18  ILE18       0.0001
      9  N        -55.3050  -44.2040   74.4510 N.am   19  ALA19      -0.1966
     10  CA       -53.8710  -43.9690   74.2820 C.3    19  ALA19       0.1728
     11  C        -53.0900  -44.3980   75.5210 C.2    19  ALA19       0.2616
     12  O        -52.0720  -45.0910   75.4170 O.2    19  ALA19      -0.2715
     13  CB       -53.6010  -42.4990   73.9650 C.3    19  ALA19       0.0334
     14  N        -53.5440  -43.9850   76.7030 N.am   20  THR20      -0.1951
     15  CA       -52.9350  -44.4090   77.9540 C.3    20  THR20       0.1897
     16  C        -53.5750  -45.6730   78.5160 C.2    20  THR20       0.2313
     17  O        -53.3840  -45.9810   79.6970 O.2    20  THR20      -0.2863
     18  CB       -52.9990  -43.2850   78.9920 C.3    20  THR20       0.1794
     19  OG1      -54.3630  -42.8970   79.2010 O.3    20  THR20      -0.2208
     20  CG2      -52.1920  -42.0820   78.5260 C.3    20  THR20       0.0378
     21  N        -52.7760  -48.7120   77.5600 N.3    22  HIS22      -0.1226
     22  CA       -51.6170  -49.5710   77.7560 C.3    22  HIS22       0.1752
     23  C        -50.5150  -48.8920   78.5590 C.2    22  HIS22       0.2596
     24  O        -49.5050  -49.5340   78.8640 O.2    22  HIS22      -0.2718
     25  CB       -51.0570  -50.0260   76.4040 C.3    22  HIS22       0.0759
     26  CG       -52.0630  -50.7040   75.5270 C.ar   22  HIS22       0.0818
     27  ND1      -53.0010  -50.0080   74.7950 N.ar   22  HIS22      -0.2268
     28  CD2      -52.2750  -52.0140   75.2620 C.ar   22  HIS22       0.1154
     29  CE1      -53.7480  -50.8610   74.1170 C.ar   22  HIS22       0.1986
     30  NE2      -53.3280  -52.0850   74.3830 N.ar   22  HIS22      -0.2212
     31  N        -50.6790  -47.6120   78.8950 N.am   23  ASP23      -0.1960
     32  CA       -49.7000  -46.8820   79.7000 C.3    23  ASP23       0.1840
     33  C        -49.9810  -47.1890   81.1680 C.2    23  ASP23       0.2622
     34  O        -50.5800  -46.4030   81.9060 O.2    23  ASP23      -0.2715
     35  CB       -49.7650  -45.3900   79.4030 C.3    23  ASP23       0.1450
     36  CG       -48.5840  -44.6330   79.9640 C.2    23  ASP23       0.3671
     37  OD1      -47.4390  -44.9590   79.5910 O.co2  23  ASP23      -0.2456
     38  OD2      -48.7990  -43.7050   80.7690 O.co2  23  ASP23      -0.2456
     39  N        -49.5250  -48.3690   81.5930 N.am   24  PHE24      -0.1960
     40  CA       -49.9070  -48.8820   82.9040 C.3    24  PHE24       0.1771
     41  C        -49.2070  -48.1460   84.0390 C.2    24  PHE24       0.2619
     42  O        -49.7560  -48.0550   85.1410 O.2    24  PHE24      -0.2715
     43  CB       -49.6210  -50.3820   82.9820 C.3    24  PHE24       0.0574
     44  CG       -50.3560  -51.1910   81.9510 C.ar   24  PHE24      -0.0200
     45  CD1      -51.7340  -51.3260   82.0120 C.ar   24  PHE24      -0.0042
     46  CD2      -49.6720  -51.8200   80.9250 C.ar   24  PHE24      -0.0042
     47  CE1      -52.4150  -52.0680   81.0650 C.ar   24  PHE24      -0.0003
     48  CE2      -50.3470  -52.5640   79.9750 C.ar   24  PHE24      -0.0003
     49  CZ       -51.7210  -52.6880   80.0460 C.ar   24  PHE24      -0.0000
     50  N        -48.0110  -47.6050   83.7970 N.am   25  GLU25      -0.1977
     51  CA       -47.2610  -46.9750   84.8780 C.3    25  GLU25       0.1602
     52  C        -47.8190  -45.6170   85.2840 C.2    25  GLU25       0.2287
     53  O        -47.3320  -45.0390   86.2610 O.2    25  GLU25      -0.2864
     54  CB       -45.7870  -46.8260   84.4880 C.3    25  GLU25       0.0415
     55  CG       -45.5090  -45.7590   83.4410 C.3    25  GLU25       0.1163
     56  CD       -45.6490  -46.2730   82.0220 C.2    25  GLU25       0.3649
     57  OE1      -46.2270  -47.3640   81.8310 O.co2  25  GLU25      -0.2457
     58  OE2      -45.1700  -45.5870   81.0950 O.co2  25  GLU25      -0.2457
     59  N        -48.8470  -56.3600   83.1830 N.3    39  ILE39      -0.1245
     60  CA       -48.0120  -56.4230   81.9880 C.3    39  ILE39       0.1561
     61  C        -47.7000  -57.8730   81.6330 C.2    39  ILE39       0.2260
     62  O        -47.6360  -58.2400   80.4520 O.2    39  ILE39      -0.2867
     63  CB       -46.7400  -55.5830   82.2020 C.3    39  ILE39       0.0252
     64  CG1      -47.0760  -54.0940   82.0800 C.3    39  ILE39       0.0019
     65  CG2      -45.6440  -55.9810   81.2330 C.3    39  ILE39       0.0019
     66  CD1      -45.9750  -53.1750   82.5360 C.3    39  ILE39       0.0001
     67  N        -48.6360  -59.7580   78.1900 N.3    43  HIS43      -0.1241
     68  CA       -47.7760  -60.6860   77.4620 C.3    43  HIS43       0.1621
     69  C        -48.5570  -61.9210   77.0380 C.2    43  HIS43       0.2264
     70  O        -48.4900  -62.3530   75.8820 O.2    43  HIS43      -0.2867
     71  CB       -46.5840  -61.1030   78.3270 C.3    43  HIS43       0.0745
     72  CG       -45.4870  -60.0880   78.3960 C.ar   43  HIS43       0.0817
     73  ND1      -45.5210  -59.0110   79.2550 N.ar   43  HIS43      -0.2268
     74  CD2      -44.3120  -60.0010   77.7290 C.ar   43  HIS43       0.1154
     75  CE1      -44.4190  -58.2990   79.1080 C.ar   43  HIS43       0.1986
     76  NE2      -43.6680  -58.8780   78.1880 N.ar   43  HIS43      -0.2212
     77  N        -51.0500  -61.3100   74.4190 N.3    46  HIS46      -0.1241
     78  CA       -50.4330  -60.9440   73.1510 C.3    46  HIS46       0.1621
     79  C        -49.9740  -62.1610   72.3580 C.2    46  HIS46       0.2264
     80  O        -50.2480  -62.2590   71.1590 O.2    46  HIS46      -0.2867
     81  CB       -49.2500  -60.0030   73.4040 C.3    46  HIS46       0.0745
     82  CG       -48.4650  -59.6730   72.1750 C.ar   46  HIS46       0.0817
     83  ND1      -47.4020  -60.4360   71.7440 N.ar   46  HIS46      -0.2268
     84  CD2      -48.5850  -58.6580   71.2880 C.ar   46  HIS46       0.1154
     85  CE1      -46.9010  -59.9060   70.6430 C.ar   46  HIS46       0.1986
     86  NE2      -47.6000  -58.8270   70.3450 N.ar   46  HIS46      -0.2212
     87  N        -38.7000  -50.1070   81.2070 N.3   322  HIS322     -0.1241
     88  CA       -38.3880  -49.3890   79.9780 C.3   322  HIS322      0.1621
     89  C        -36.9660  -49.6700   79.5080 C.2   322  HIS322      0.2264
     90  O        -36.7090  -49.6920   78.2990 O.2   322  HIS322     -0.2867
     91  CB       -38.6040  -47.8910   80.1850 C.3   322  HIS322      0.0745
     92  CG       -40.0320  -47.5160   80.4270 C.ar  322  HIS322      0.0817
     93  ND1      -40.9580  -47.4180   79.4110 N.ar  322  HIS322     -0.2268
     94  CD2      -40.6950  -47.2170   81.5690 C.ar  322  HIS322      0.1154
     95  CE1      -42.1290  -47.0760   79.9160 C.ar  322  HIS322      0.1986
     96  NE2      -41.9970  -46.9470   81.2240 N.ar  322  HIS322     -0.2212
     97  N        -37.0920  -53.2060   78.0580 N.3   325  LEU325     -0.1245
     98  CA       -37.7140  -53.1070   76.7430 C.3   325  LEU325      0.1561
     99  C        -36.7690  -52.4490   75.7440 C.2   325  LEU325      0.2260
    100  O        -36.7330  -52.8330   74.5680 O.2   325  LEU325     -0.2867
    101  CB       -39.0270  -52.3300   76.8490 C.3   325  LEU325      0.0270
    102  CG       -39.9810  -52.3480   75.6560 C.3   325  LEU325      0.0019
    103  CD1      -40.1280  -53.7540   75.1130 C.3   325  LEU325      0.0001
    104  CD2      -41.3350  -51.8080   76.0750 C.3   325  LEU325      0.0001
    105  N        -35.9700  -54.9060   72.5240 N.3   329  LEU329     -0.1245
    106  CA       -36.2570  -54.4250   71.1800 C.3   329  LEU329      0.1561
    107  C        -35.0100  -53.9560   70.4450 C.2   329  LEU329      0.2260
    108  O        -35.1170  -53.5120   69.2970 O.2   329  LEU329     -0.2867
    109  CB       -37.2780  -53.2850   71.2290 C.3   329  LEU329      0.0270
    110  CG       -38.6390  -53.5930   71.8530 C.3   329  LEU329      0.0019
    111  CD1      -39.5810  -52.4080   71.6910 C.3   329  LEU329      0.0001
    112  CD2      -39.2420  -54.8540   71.2540 C.3   329  LEU329      0.0001
    113  N        -39.0150  -50.2680   63.3840 N.3   372  LEU372     -0.1231
    114  CA       -39.9570  -50.0740   64.4820 C.3   372  LEU372      0.1693
    115  C        -39.3360  -50.4800   65.8130 C.2   372  LEU372      0.2591
    116  O        -39.2860  -49.6810   66.7560 O.2   372  LEU372     -0.2718
    117  CB       -41.2430  -50.8600   64.2220 C.3   372  LEU372      0.0284
    118  CG       -42.2030  -50.2830   63.1790 C.3   372  LEU372      0.0019
    119  CD1      -43.4820  -51.1050   63.1110 C.3   372  LEU372      0.0001
    120  CD2      -42.5140  -48.8270   63.4860 C.3   372  LEU372      0.0001
    121  N        -38.8340  -51.7170   65.9000 N.am  373  LEU373     -0.1980
    122  CA       -38.2630  -52.2030   67.1540 C.3   373  LEU373      0.1596
    123  C        -37.1180  -51.3180   67.6300 C.2   373  LEU373      0.2287
    124  O        -36.9400  -51.1170   68.8370 O.2   373  LEU373     -0.2864
    125  CB       -37.7850  -53.6460   66.9960 C.3   373  LEU373      0.0297
    126  CG       -38.8480  -54.7370   66.8650 C.3   373  LEU373      0.0022
    127  CD1      -38.2630  -56.0780   67.2770 C.3   373  LEU373      0.0001
    128  CD2      -40.0810  -54.4060   67.6920 C.3   373  LEU373      0.0001
    129  N        -36.8480  -48.0530   67.1830 N.3   375  VAL375     -0.1231
    130  CA       -37.4220  -46.8360   67.7470 C.3   375  VAL375      0.1692
    131  C        -38.0920  -47.1250   69.0820 C.2   375  VAL375      0.2592
    132  O        -38.0110  -46.3200   70.0180 O.2   375  VAL375     -0.2718
    133  CB       -38.4040  -46.2020   66.7480 C.3   375  VAL375      0.0266
    134  CG1      -38.9380  -44.8890   67.2870 C.3   375  VAL375      0.0020
    135  CG2      -37.7150  -45.9820   65.4370 C.3   375  VAL375      0.0020
    136  N        -38.7730  -48.2670   69.1910 N.am  376  GLY376     -0.1957
    137  CA       -39.3680  -48.6360   70.4640 C.3   376  GLY376      0.1869
    138  C        -38.3320  -48.8010   71.5570 C.2   376  GLY376      0.2309
    139  O        -38.5460  -48.3820   72.6970 O.2   376  GLY376     -0.2863
    140  N        -37.1190  -45.1940   72.4150 N.3   379  ALA379     -0.1231
    141  CA       -38.1490  -44.4230   73.1040 C.3   379  ALA379      0.1694
    142  C        -38.2510  -44.8380   74.5660 C.2   379  ALA379      0.2592
    143  O        -38.2900  -43.9900   75.4650 O.2   379  ALA379     -0.2718
    144  CB       -39.4950  -44.5910   72.3990 C.3   379  ALA379      0.0304
    145  N        -38.2850  -46.1480   74.8240 N.am  380  HIS380     -0.1976
    146  CA       -38.3390  -46.6220   76.2010 C.3   380  HIS380      0.1656
    147  C        -37.0290  -46.3640   76.9330 C.2   380  HIS380      0.2291
    148  O        -37.0220  -46.2420   78.1620 O.2   380  HIS380     -0.2864
    149  CB       -38.6980  -48.1060   76.2300 C.3   380  HIS380      0.0771
    150  CG       -40.0510  -48.4040   75.6650 C.ar  380  HIS380      0.0820
    151  ND1      -40.2410  -48.7900   74.3560 N.ar  380  HIS380     -0.2267
    152  CD2      -41.2820  -48.3510   76.2250 C.ar  380  HIS380      0.1154
    153  CE1      -41.5310  -48.9730   74.1370 C.ar  380  HIS380      0.1986
    154  NE2      -42.1850  -48.7130   75.2550 N.ar  380  HIS380     -0.2212
    155  N        -37.6280  -42.9960   78.2420 N.3   383  ILE383     -0.1245
    156  CA       -38.5140  -43.0910   79.3980 C.3   383  ILE383      0.1561
    157  C        -37.7500  -43.6110   80.6080 C.2   383  ILE383      0.2260
    158  O        -38.0120  -43.2080   81.7490 O.2   383  ILE383     -0.2867
    159  CB       -39.7270  -43.9810   79.0700 C.3   383  ILE383      0.0252
    160  CG1      -40.3880  -43.5220   77.7700 C.3   383  ILE383      0.0019
    161  CG2      -40.7330  -43.9460   80.2080 C.3   383  ILE383      0.0019
    162  CD1      -41.3930  -44.5040   77.2180 C.3   383  ILE383      0.0001
    163  N        -38.0210  -41.4530   84.0620 N.3   387  ARG387     -0.1245
    164  CA       -38.7810  -41.9470   85.2030 C.3   387  ARG387      0.1563
    165  C        -38.0180  -42.9330   86.0790 C.2   387  ARG387      0.2260
    166  O        -38.5270  -43.3050   87.1420 O.2   387  ARG387     -0.2867
    167  CB       -40.0800  -42.6070   84.7220 C.3   387  ARG387      0.0307
    168  CG       -41.0000  -41.6820   83.9420 C.3   387  ARG387      0.0489
    169  CD       -42.2360  -42.4200   83.4540 C.3   387  ARG387      0.2205
    170  NE       -43.1180  -41.5600   82.6710 N.pl3 387  ARG387     -0.0865
    171  CZ       -44.1360  -40.8720   83.1780 C.cat 387  ARG387      0.5346
    172  NH1      -44.4050  -40.9410   84.4740 N.pl3 387  ARG387      0.1354
    173  NH2      -44.8850  -40.1140   82.3880 N.pl3 387  ARG387      0.1354
    174  N        -42.8880  -37.8500   80.0950 N.3   546  TYR546     -0.1227
    175  CA       -42.5410  -38.1690   78.7160 C.3   546  TYR546      0.1736
    176  C        -43.3950  -37.4120   77.7070 C.2   546  TYR546      0.2596
    177  O        -42.8600  -36.8000   76.7780 O.2   546  TYR546     -0.2718
    178  CB       -42.6680  -39.6790   78.4840 C.3   546  TYR546      0.0548
    179  CG       -42.2640  -40.1290   77.0980 C.ar  546  TYR546     -0.0200
    180  CD1      -40.9260  -40.2020   76.7340 C.ar  546  TYR546     -0.0009
    181  CD2      -43.2200  -40.4890   76.1570 C.ar  546  TYR546     -0.0009
    182  CE1      -40.5510  -40.6160   75.4700 C.ar  546  TYR546      0.0417
    183  CE2      -42.8550  -40.9070   74.8920 C.ar  546  TYR546      0.0417
    184  CZ       -41.5200  -40.9670   74.5530 C.ar  546  TYR546      0.1957
    185  OH       -41.1530  -41.3810   73.2930 O.3   546  TYR546     -0.2866
    186  N        -44.7150  -37.4330   77.8730 N.am  547  SER547     -0.1952
    187  CA       -45.6460  -36.8210   76.9290 C.3   547  SER547      0.1924
    188  C        -46.2060  -35.5430   77.5460 C.2   547  SER547      0.2314
    189  O        -47.1130  -35.5930   78.3830 O.2   547  SER547     -0.2863
    190  CB       -46.7620  -37.7950   76.5620 C.3   547  SER547      0.2116
    191  OG       -47.5130  -38.1650   77.7060 O.3   547  SER547     -0.2180
    192  N        -41.1160  -37.1540   74.0550 N.3   564  TRP564     -0.1241
    193  CA       -42.1010  -37.6930   73.1250 C.3   564  TRP564      0.1605
    194  C        -42.0780  -36.9440   71.7990 C.2   564  TRP564      0.2264
    195  O        -42.3190  -37.5420   70.7440 O.2   564  TRP564     -0.2867
    196  CB       -43.4970  -37.6390   73.7470 C.3   564  TRP564      0.0550
    197  CG       -44.5610  -38.1740   72.8490 C.ar  564  TRP564      0.0003
    198  CD1      -45.0630  -39.4420   72.8330 C.ar  564  TRP564      0.0946
    199  CD2      -45.2520  -37.4560   71.8230 C.ar  564  TRP564      0.0152
    200  NE1      -46.0260  -39.5570   71.8620 N.ar  564  TRP564     -0.2442
    201  CE2      -46.1590  -38.3510   71.2260 C.ar  564  TRP564      0.0810
    202  CE3      -45.1900  -36.1410   71.3510 C.ar  564  TRP564      0.0012
    203  CZ2      -46.9980  -37.9750   70.1850 C.ar  564  TRP564      0.0191
    204  CZ3      -46.0200  -35.7720   70.3190 C.ar  564  TRP564      0.0001
    205  CH2      -46.9100  -36.6850   69.7460 C.ar  564  TRP564      0.0015
    206  N        -39.4340  -38.5370   69.7820 N.3   567  PHE567     -0.1241
    207  CA       -39.9380  -39.7530   69.1510 C.3   567  PHE567      0.1605
    208  C        -40.7550  -39.4230   67.9100 C.2   567  PHE567      0.2264
    209  O        -40.5450  -40.0040   66.8380 O.2   567  PHE567     -0.2867
    210  CB       -40.7830  -40.5520   70.1450 C.3   567  PHE567      0.0534
    211  CG       -41.6610  -41.5860   69.4970 C.ar  567  PHE567     -0.0203
    212  CD1      -41.1800  -42.8570   69.2460 C.ar  567  PHE567     -0.0042
    213  CD2      -42.9670  -41.2850   69.1310 C.ar  567  PHE567     -0.0042
    214  CE1      -41.9790  -43.8070   68.6470 C.ar  567  PHE567     -0.0003
    215  CE2      -43.7700  -42.2330   68.5290 C.ar  567  PHE567     -0.0003
    216  CZ       -43.2750  -43.4970   68.2890 C.ar  567  PHE567     -0.0000
    217  N        -39.7870  -40.7980   63.9690 N.3   571  MET571     -0.1245
    218  CA       -40.5370  -41.6880   63.0870 C.3   571  MET571      0.1570
    219  C        -40.5090  -41.2110   61.6420 C.2   571  MET571      0.2261
    220  O        -40.5440  -42.0320   60.7180 O.2   571  MET571     -0.2867
    221  CB       -41.9810  -41.8180   63.5720 C.3   571  MET571      0.0387
    222  CG       -42.1300  -42.5600   64.8880 C.3   571  MET571      0.0595
    223  SD       -41.5780  -44.2740   64.7900 S.3   571  MET571     -0.1393
    224  CE       -42.7360  -44.9400   63.5960 C.3   571  MET571      0.0692
    225  N        -49.5740  -37.6060   67.4120 N.3   698  LEU698     -0.1245
    226  CA       -49.5930  -39.0670   67.3990 C.3   698  LEU698      0.1561
    227  C        -50.5640  -39.5950   66.3510 C.2   698  LEU698      0.2260
    228  O        -50.2150  -40.4750   65.5560 O.2   698  LEU698     -0.2867
    229  CB       -49.9540  -39.6100   68.7820 C.3   698  LEU698      0.0270
    230  CG       -50.1070  -41.1340   68.8300 C.3   698  LEU698      0.0019
    231  CD1      -48.8100  -41.8200   68.4190 C.3   698  LEU698      0.0001
    232  CD2      -50.5570  -41.6040   70.2060 C.3   698  LEU698      0.0001
    233  N        -49.8730  -41.5490   62.9580 N.3   702  VAL702     -0.1245
    234  CA       -50.5520  -42.7710   62.5360 C.3   702  VAL702      0.1561
    235  C        -50.9440  -42.6770   61.0680 C.2   702  VAL702      0.2260
    236  O        -50.7590  -43.6280   60.2990 O.2   702  VAL702     -0.2867
    237  CB       -51.7740  -43.0460   63.4340 C.3   702  VAL702      0.0252
    238  CG1      -52.6100  -44.1830   62.8650 C.3   702  VAL702      0.0019
    239  CG2      -51.3310  -43.3710   64.8510 C.3   702  VAL702      0.0019
    240  N        -49.3660  -45.1030   58.1560 N.3   706  VAL706     -0.1245
    241  CA       -50.1530  -46.1010   57.4330 C.3   706  VAL706      0.1561
    242  C        -50.4130  -45.6660   55.9950 C.2   706  VAL706      0.2260
    243  O        -50.5010  -46.5100   55.0950 O.2   706  VAL706     -0.2867
    244  CB       -51.4670  -46.4070   58.1780 C.3   706  VAL706      0.0252
    245  CG1      -51.1790  -46.8610   59.6020 C.3   706  VAL706      0.0019
    246  CG2      -52.4010  -45.2050   58.1690 C.3   706  VAL706      0.0019
@<TRIPOS>BOND
     1   243   242    2
     2   242   241    1
     3   241   240    1
     4   241   244    1
     5   246   244    1
     6   244   245    1
     7   236   235    2
     8   220   219    2
     9   235   234    1
    10   219   218    1
    11   234   233    1
    12   234   237    1
    13   238   237    1
    14   218   221    1
    15   218   217    1
    16   119   118    1
    17   118   120    1
    18   118   117    1
    19   113   114    1
    20   237   239    1
    21   221   222    1
    22   224   223    1
    23   117   114    1
    24   114   115    1
    25   223   222    1
    26   135   133    1
    27   228   227    2
    28   115   121   am
    29   115   116    2
    30   121   122    1
    31   227   226    1
    32   133   134    1
    33   133   130    1
    34   209   208    2
    35   126   125    1
    36   126   127    1
    37   126   128    1
    38   125   122    1
    39   122   123    1
    40   129   130    1
    41   226   225    1
    42   226   229    1
    43   123   124    2
    44   130   131    1
    45   208   207    1
    46   216   215   ar
    47   216   214   ar
    48   231   230    1
    49   215   213   ar
    50   214   212   ar
    51   229   230    1
    52   230   232    1
    53   131   136   am
    54   131   132    2
    55   213   211   ar
    56   207   206    1
    57   207   210    1
    58   136   137    1
    59   212   211   ar
    60   108   107    2
    61   211   210    1
    62   205   203   ar
    63   205   204   ar
    64   203   201   ar
    65   204   202   ar
    66    86    85   ar
    67    86    84   ar
    68   107   106    1
    69   137   138    1
    70    85    83   ar
    71   195   194    2
    72    80    79    2
    73   106   109    1
    74   106   105    1
    75   201   199   ar
    76   201   200   ar
    77   109   110    1
    78   112   110    1
    79    84    82   ar
    80   202   199   ar
    81   138   139    2
    82   111   110    1
    83    83    82   ar
    84   194   193    1
    85   199   197   ar
    86   200   198   ar
    87    82    81    1
    88     8     6    1
    89    79    78    1
    90   144   141    1
    91   140   141    1
    92     7     5    1
    93   198   197   ar
    94   197   196    1
    95   141   142    1
    96   193   196    1
    97   193   192    1
    98    78    81    1
    99    78    77    1
   100   185   184    1
   101     5     6    1
   102     5     2    1
   103    13    10    1
   104    29    30   ar
   105    29    27   ar
   106   153   151   ar
   107   153   154   ar
   108    10     9    1
   109    10    11    1
   110   151   150   ar
   111     4     3    2
   112    30    28   ar
   113     9     3   am
   114     3     2    1
   115   184   183   ar
   116   184   182   ar
   117   142   145   am
   118   142   143    2
   119   100    99    2
   120     2     1    1
   121    27    26   ar
   122   145   146    1
   123   183   181   ar
   124   103   102    1
   125   154   152   ar
   126    28    26   ar
   127    12    11    2
   128   182   180   ar
   129    11    14   am
   130    26    25    1
   131   102   104    1
   132   102   101    1
   133   150   152   ar
   134   150   149    1
   135    99    98    1
   136    70    69    2
   137   181   179   ar
   138   146   149    1
   139   146   147    1
   140    25    22    1
   141   190   187    1
   142   190   191    1
   143    14    15    1
   144   180   179   ar
   145    98   101    1
   146    98    97    1
   147   177   176    2
   148   187   188    1
   149   187   186    1
   150   147   148    2
   151    69    68    1
   152   179   178    1
   153   162   160    1
   154    68    67    1
   155    68    71    1
   156   188   189    2
   157    21    22    1
   158   176   186   am
   159   176   175    1
   160    74    76   ar
   161    74    72   ar
   162    22    23    1
   163   160   159    1
   164    15    16    1
   165    15    18    1
   166    76    75   ar
   167   155   156    1
   168    90    89    2
   169    71    72    1
   170    72    73   ar
   171   178   175    1
   172    16    17    2
   173    20    18    1
   174    23    24    2
   175    23    31   am
   176   175   174    1
   177    31    32    1
   178    18    19    1
   179   159   156    1
   180   159   161    1
   181    75    73   ar
   182   156   157    1
   183    35    32    1
   184    35    36    1
   185    93    95   ar
   186    93    92   ar
   187    89    88    1
   188    37    36   ar
   189    32    33    1
   190    95    96   ar
   191    36    38   ar
   192    48    49   ar
   193    48    46   ar
   194    88    91    1
   195    88    87    1
   196    49    47   ar
   197    91    92    1
   198    92    94   ar
   199    62    61    2
   200   157   158    2
   201    46    44   ar
   202    47    45   ar
   203    58    56   ar
   204    33    39   am
   205    33    34    2
   206    96    94   ar
   207    65    63    1
   208    39    40    1
   209    61    60    1
   210    57    56   ar
   211    44    45   ar
   212    44    43    1
   213    60    63    1
   214    60    59    1
   215    56    55    1
   216    64    63    1
   217    64    66    1
   218   173   171    1
   219   170   171    2
   220   170   169    1
   221    40    43    1
   222    40    41    1
   223   171   172    1
   224    55    54    1
   225   169   168    1
   226    50    41   am
   227    50    51    1
   228   168   167    1
   229    41    42    2
   230   163   164    1
   231    54    51    1
   232   167   164    1
   233    51    52    1
   234   164   165    1
   235    52    53    2
   236   165   166    2
