@<TRIPOS>MOLECULE
tmp/6fosE05.pdb
 108 107 0 0 0
SMALL
GASTEIGER

@<TRIPOS>ATOM
      1  N        -55.5320  -68.8300   61.9850 N.3    56  GLY56      -0.1210
      2  CA       -56.2970  -68.3530   60.8450 C.3    56  GLY56       0.1956
      3  C        -55.5060  -68.4030   59.5530 C.2    56  GLY56       0.2611
      4  O        -56.0550  -68.7140   58.4920 O.2    56  GLY56      -0.2717
      5  N        -54.2070  -68.0960   59.6220 N.am   57  ASN57      -0.1974
      6  CA       -53.3570  -68.1890   58.4390 C.3    57  ASN57       0.1688
      7  C        -53.3520  -69.6040   57.8750 C.2    57  ASN57       0.2292
      8  O        -53.4190  -69.7950   56.6560 O.2    57  ASN57      -0.2864
      9  CB       -51.9330  -67.7470   58.7760 C.3    57  ASN57       0.1181
     10  CG       -51.8450  -66.2760   59.1320 C.2    57  ASN57       0.2629
     11  OD1      -52.5440  -65.4430   58.5550 O.2    57  ASN57      -0.2716
     12  ND2      -50.9830  -65.9490   60.0870 N.am   57  ASN57      -0.0877
     13  N        -57.2410  -70.7270   56.4570 N.3    60  HIS60      -0.1226
     14  CA       -57.6600  -70.2670   55.1380 C.3    60  HIS60       0.1752
     15  C        -56.8640  -70.9320   54.0220 C.2    60  HIS60       0.2595
     16  O        -57.3700  -71.0720   52.9030 O.2    60  HIS60      -0.2718
     17  CB       -57.5430  -68.7450   55.0500 C.3    60  HIS60       0.0759
     18  CG       -58.6140  -68.0140   55.8000 C.ar   60  HIS60       0.0818
     19  ND1      -59.9190  -67.9540   55.3620 N.ar   60  HIS60      -0.2268
     20  CD2      -58.5740  -67.3140   56.9580 C.ar   60  HIS60       0.1154
     21  CE1      -60.6370  -67.2490   56.2170 C.ar   60  HIS60       0.1986
     22  NE2      -59.8440  -66.8480   57.1950 N.ar   60  HIS60      -0.2212
     23  N        -55.6260  -71.3480   54.3000 N.am   61  VAL61      -0.1980
     24  CA       -54.8560  -72.0830   53.3010 C.3    61  VAL61       0.1595
     25  C        -55.4220  -73.4870   53.1210 C.2    61  VAL61       0.2287
     26  O        -55.4510  -74.0230   52.0070 O.2    61  VAL61      -0.2864
     27  CB       -53.3660  -72.1110   53.6910 C.3    61  VAL61       0.0276
     28  CG1      -52.5820  -73.0210   52.7570 C.3    61  VAL61       0.0022
     29  CG2      -52.7880  -70.7060   53.6660 C.3    61  VAL61       0.0022
     30  N        -54.4970  -68.1190   48.0480 N.3    81  ALA81      -0.1231
     31  CA       -54.5970  -68.0950   49.5030 C.3    81  ALA81       0.1694
     32  C        -56.0160  -68.3410   49.9990 C.2    81  ALA81       0.2592
     33  O        -56.3400  -69.4470   50.4410 O.2    81  ALA81      -0.2718
     34  CB       -54.0830  -66.7620   50.0430 C.3    81  ALA81       0.0304
     35  N        -56.8660  -67.3170   49.9490 N.am   82  HIS82      -0.1976
     36  CA       -58.2070  -67.3960   50.5060 C.3    82  HIS82       0.1656
     37  C        -59.2230  -66.8890   49.4930 C.2    82  HIS82       0.2291
     38  O        -58.9030  -66.1050   48.5970 O.2    82  HIS82      -0.2864
     39  CB       -58.3290  -66.5810   51.7980 C.3    82  HIS82       0.0771
     40  CG       -58.6180  -65.1320   51.5650 C.ar   82  HIS82       0.0820
     41  ND1      -59.7650  -64.5190   52.0210 N.ar   82  HIS82      -0.2267
     42  CD2      -57.9190  -64.1790   50.9060 C.ar   82  HIS82       0.1154
     43  CE1      -59.7540  -63.2470   51.6620 C.ar   82  HIS82       0.1986
     44  NE2      -58.6450  -63.0150   50.9840 N.ar   82  HIS82      -0.2212
     45  N        -62.2720  -64.7730   47.9410 N.3    84  ILE84      -0.1245
     46  CA       -62.7800  -63.4090   48.0100 C.3    84  ILE84       0.1561
     47  C        -64.2860  -63.4490   47.8030 C.2    84  ILE84       0.2260
     48  O        -64.7730  -64.0720   46.8510 O.2    84  ILE84      -0.2867
     49  CB       -62.1160  -62.5070   46.9560 C.3    84  ILE84       0.0252
     50  CG1      -60.6060  -62.4250   47.1700 C.3    84  ILE84       0.0019
     51  CG2      -62.7230  -61.1190   46.9940 C.3    84  ILE84       0.0019
     52  CD1      -59.9310  -61.4700   46.2100 C.3    84  ILE84       0.0001
     53  N        -57.7750  -64.2860   46.0350 N.3   107  SER107     -0.1202
     54  CA       -56.6910  -63.3270   45.9030 C.3   107  SER107      0.2020
     55  C        -55.3470  -64.0400   45.7690 C.2   107  SER107      0.2619
     56  O        -55.2300  -65.2540   45.9530 O.2   107  SER107     -0.2717
     57  CB       -56.6710  -62.3820   47.1000 C.3   107  SER107      0.2103
     58  OG       -56.7410  -63.1100   48.3130 O.3   107  SER107     -0.2182
     59  N        -54.3180  -63.2580   45.4530 N.am  108  TYR108     -0.1961
     60  CA       -52.9770  -63.7830   45.2360 C.3   108  TYR108      0.1771
     61  C        -52.1920  -63.7660   46.5410 C.2   108  TYR108      0.2620
     62  O        -52.1050  -62.7300   47.2080 O.2   108  TYR108     -0.2715
     63  CB       -52.2510  -62.9690   44.1660 C.3   108  TYR108      0.0574
     64  CG       -53.0010  -62.8960   42.8580 C.ar  108  TYR108     -0.0198
     65  CD1      -52.8830  -63.9060   41.9120 C.ar  108  TYR108     -0.0009
     66  CD2      -53.8330  -61.8220   42.5710 C.ar  108  TYR108     -0.0009
     67  CE1      -53.5700  -63.8460   40.7150 C.ar  108  TYR108      0.0417
     68  CE2      -54.5240  -61.7540   41.3760 C.ar  108  TYR108      0.0417
     69  CZ       -54.3890  -62.7680   40.4520 C.ar  108  TYR108      0.1957
     70  OH       -55.0750  -62.7030   39.2620 O.3   108  TYR108     -0.2866
     71  N        -51.6150  -64.9130   46.8930 N.am  109  SER109     -0.1936
     72  CA       -50.9130  -65.0460   48.1620 C.3   109  SER109      0.2055
     73  C        -49.6080  -64.2600   48.1440 C.2   109  SER109      0.2644
     74  O        -48.8020  -64.3890   47.2180 O.2   109  SER109     -0.2714
     75  CB       -50.6390  -66.5190   48.4600 C.3   109  SER109      0.2130
     76  OG       -49.8390  -67.1030   47.4470 O.3   109  SER109     -0.2179
     77  N        -49.4030  -63.4430   49.1750 N.am  110  GLY110     -0.1939
     78  CA       -48.1680  -62.7000   49.3270 C.3   110  GLY110      0.2014
     79  C        -47.2770  -63.2930   50.3970 C.2   110  GLY110      0.2638
     80  O        -46.0640  -63.4150   50.2070 O.2   110  GLY110     -0.2714
     81  N        -47.8690  -63.6620   51.5340 N.am  111  VAL111     -0.1977
     82  CA       -47.1370  -64.3680   52.5800 C.3   111  VAL111      0.1596
     83  C        -46.7990  -65.7570   52.0620 C.2   111  VAL111      0.2287
     84  O        -47.5750  -66.7050   52.2320 O.2   111  VAL111     -0.2864
     85  CB       -47.9390  -64.4460   53.8920 C.3   111  VAL111      0.0276
     86  CG1      -47.1560  -65.2100   54.9530 C.3   111  VAL111      0.0022
     87  CG2      -48.2630  -63.0600   54.3860 C.3   111  VAL111      0.0022
     88  N        -57.6550  -53.7660   42.4260 N.3   636  VAL636     -0.1231
     89  CA       -57.6710  -53.5380   43.8700 C.3   636  VAL636      0.1692
     90  C        -56.3810  -52.8780   44.3370 C.2   636  VAL636      0.2592
     91  O        -56.3880  -52.0720   45.2760 O.2   636  VAL636     -0.2718
     92  CB       -57.9290  -54.8710   44.6040 C.3   636  VAL636      0.0266
     93  CG1      -56.9610  -55.9430   44.1220 C.3   636  VAL636      0.0020
     94  CG2      -57.8230  -54.6910   46.1110 C.3   636  VAL636      0.0020
     95  N        -55.2610  -53.1880   43.6840 N.am  637  TRP637     -0.1976
     96  CA       -53.9880  -52.5830   44.0590 C.3   637  TRP637      0.1640
     97  C        -53.8800  -51.1520   43.5490 C.2   637  TRP637      0.2290
     98  O        -53.4650  -50.2530   44.2890 O.2   637  TRP637     -0.2864
     99  CB       -52.8370  -53.4390   43.5350 C.3   637  TRP637      0.0576
    100  CG       -52.7690  -54.7500   44.2260 C.ar  637  TRP637      0.0006
    101  CD1      -53.1110  -55.9690   43.7180 C.ar  637  TRP637      0.0946
    102  CD2      -52.3620  -54.9760   45.5760 C.ar  637  TRP637      0.0152
    103  NE1      -52.9250  -56.9440   44.6680 N.ar  637  TRP637     -0.2442
    104  CE2      -52.4670  -56.3580   45.8190 C.ar  637  TRP637      0.0810
    105  CE3      -51.9100  -54.1420   46.6030 C.ar  637  TRP637      0.0012
    106  CZ2      -52.1360  -56.9250   47.0450 C.ar  637  TRP637      0.0191
    107  CZ3      -51.5840  -54.7060   47.8170 C.ar  637  TRP637      0.0001
    108  CH2      -51.6970  -56.0820   48.0290 C.ar  637  TRP637      0.0015
@<TRIPOS>BOND
     1    70    69    1
     2    69    67   ar
     3    69    68   ar
     4    67    65   ar
     5    68    66   ar
     6    65    64   ar
     7    88    89    1
     8    66    64   ar
     9    64    63    1
    10    99    96    1
    11    99   100    1
    12    97    96    1
    13    97    98    2
    14    95    96    1
    15    95    90   am
    16   101   100   ar
    17   101   103   ar
    18    89    90    1
    19    89    92    1
    20    93    92    1
    21    63    60    1
    22   100   102   ar
    23    90    91    2
    24    92    94    1
    25   103   104   ar
    26    60    59    1
    27    60    61    1
    28    59    55   am
    29   102   104   ar
    30   102   105   ar
    31    55    54    1
    32    55    56    2
    33   104   106   ar
    34    54    53    1
    35    54    57    1
    36    52    50    1
    37    61    71   am
    38    61    62    2
    39   105   107   ar
    40    48    47    2
    41    71    72    1
    42    49    51    1
    43    49    50    1
    44    49    46    1
    45   106   108   ar
    46    57    58    1
    47    74    73    2
    48    76    75    1
    49    47    46    1
    50   107   108   ar
    51    45    46    1
    52    30    31    1
    53    73    72    1
    54    73    77   am
    55    72    75    1
    56    38    37    2
    57    77    78    1
    58    78    79    1
    59    37    36    1
    60    31    32    1
    61    31    34    1
    62    35    32   am
    63    35    36    1
    64    32    33    2
    65    80    79    2
    66    79    81   am
    67    36    39    1
    68    42    44   ar
    69    42    40   ar
    70    44    43   ar
    71    81    82    1
    72    40    39    1
    73    40    41   ar
    74    43    41   ar
    75    26    25    2
    76    83    84    2
    77    83    82    1
    78    82    85    1
    79    28    27    1
    80    16    15    2
    81    25    24    1
    82    24    27    1
    83    24    23    1
    84    29    27    1
    85    85    87    1
    86    85    86    1
    87    15    23   am
    88    15    14    1
    89    17    14    1
    90    17    18    1
    91    14    13    1
    92    19    18   ar
    93    19    21   ar
    94    18    20   ar
    95    21    22   ar
    96     8     7    2
    97    20    22   ar
    98     7     6    1
    99     6     9    1
   100     6     5    1
   101     4     3    2
   102    11    10    2
   103     9    10    1
   104    10    12   am
   105     3     5   am
   106     3     2    1
   107     2     1    1
