@<TRIPOS>MOLECULE
tmp/6fosD32.pdb
 92 90 0 0 0
SMALL
GASTEIGER

@<TRIPOS>ATOM
      1  N        -33.0350  -11.6000   61.6910 N.3    38  TRP38      -0.1241
      2  CA       -34.2540  -11.8680   60.9370 C.3    38  TRP38       0.1605
      3  C        -35.3460  -10.8470   61.2320 C.2    38  TRP38       0.2264
      4  O        -36.1700  -10.5600   60.3560 O.2    38  TRP38      -0.2867
      5  CB       -34.7560  -13.2820   61.2360 C.3    38  TRP38       0.0550
      6  CG       -33.7830  -14.3430   60.8290 C.ar   38  TRP38       0.0003
      7  CD1      -32.8150  -14.9110   61.6060 C.ar   38  TRP38       0.0946
      8  CD2      -33.6720  -14.9570   59.5380 C.ar   38  TRP38       0.0152
      9  NE1      -32.1130  -15.8430   60.8810 N.ar   38  TRP38      -0.2442
     10  CE2      -32.6190  -15.8900   59.6080 C.ar   38  TRP38       0.0810
     11  CE3      -34.3630  -14.8100   58.3310 C.ar   38  TRP38       0.0012
     12  CZ2      -32.2410  -16.6740   58.5190 C.ar   38  TRP38       0.0191
     13  CZ3      -33.9860  -15.5880   57.2500 C.ar   38  TRP38       0.0001
     14  CH2      -32.9350  -16.5080   57.3520 C.ar   38  TRP38       0.0015
     15  N        -37.2300  -30.7560   45.9030 N.3   666  PHE666     -0.1227
     16  CA       -36.2590  -30.6300   46.9850 C.3   666  PHE666      0.1736
     17  C        -36.6330  -29.4940   47.9260 C.2   666  PHE666      0.2595
     18  O        -36.7390  -29.6890   49.1420 O.2   666  PHE666     -0.2718
     19  CB       -34.8640  -30.4090   46.4030 C.3   666  PHE666      0.0547
     20  CG       -33.7860  -30.2470   47.4360 C.ar  666  PHE666     -0.0202
     21  CD1      -33.1120  -31.3500   47.9290 C.ar  666  PHE666     -0.0042
     22  CD2      -33.4300  -28.9880   47.8970 C.ar  666  PHE666     -0.0042
     23  CE1      -32.1120  -31.2050   48.8720 C.ar  666  PHE666     -0.0003
     24  CE2      -32.4330  -28.8360   48.8390 C.ar  666  PHE666     -0.0003
     25  CZ       -31.7720  -29.9450   49.3260 C.ar  666  PHE666     -0.0000
     26  N        -36.8320  -28.2920   47.3790 N.am  667  VAL667     -0.1980
     27  CA       -37.1570  -27.1490   48.2250 C.3   667  VAL667      0.1595
     28  C        -38.5620  -27.2770   48.7960 C.2   667  VAL667      0.2287
     29  O        -38.8410  -26.7610   49.8860 O.2   667  VAL667     -0.2864
     30  CB       -36.9760  -25.8300   47.4510 C.3   667  VAL667      0.0276
     31  CG1      -35.4980  -25.5070   47.2960 C.3   667  VAL667      0.0022
     32  CG2      -37.6480  -25.9100   46.0940 C.3   667  VAL667      0.0022
     33  N        -38.0740  -29.5080   51.4890 N.3   670  PHE670     -0.1241
     34  CA       -37.3310  -28.7000   52.4490 C.3   670  PHE670      0.1605
     35  C        -38.2690  -27.8570   53.3040 C.2   670  PHE670      0.2264
     36  O        -37.9450  -27.5460   54.4560 O.2   670  PHE670     -0.2867
     37  CB       -36.3250  -27.8170   51.7090 C.3   670  PHE670      0.0534
     38  CG       -35.3960  -27.0540   52.6090 C.ar  670  PHE670     -0.0203
     39  CD1      -34.3030  -27.6770   53.1890 C.ar  670  PHE670     -0.0042
     40  CD2      -35.6020  -25.7070   52.8560 C.ar  670  PHE670     -0.0042
     41  CE1      -33.4410  -26.9740   54.0110 C.ar  670  PHE670     -0.0003
     42  CE2      -34.7440  -24.9980   53.6770 C.ar  670  PHE670     -0.0003
     43  CZ       -33.6620  -25.6330   54.2560 C.ar  670  PHE670     -0.0000
     44  N        -39.6450  -27.1810   58.2430 N.3   674  PHE674     -0.1241
     45  CA       -40.1240  -26.1040   59.1000 C.3   674  PHE674      0.1605
     46  C        -41.5890  -26.2530   59.4830 C.2   674  PHE674      0.2264
     47  O        -41.9820  -25.8210   60.5730 O.2   674  PHE674     -0.2867
     48  CB       -39.9200  -24.7520   58.4080 C.3   674  PHE674      0.0534
     49  CG       -38.4840  -24.4380   58.0930 C.ar  674  PHE674     -0.0203
     50  CD1      -37.4580  -24.9950   58.8370 C.ar  674  PHE674     -0.0042
     51  CD2      -38.1610  -23.5830   57.0530 C.ar  674  PHE674     -0.0042
     52  CE1      -36.1370  -24.7080   58.5480 C.ar  674  PHE674     -0.0003
     53  CE2      -36.8420  -23.2930   56.7610 C.ar  674  PHE674     -0.0003
     54  CZ       -35.8300  -23.8560   57.5100 C.ar  674  PHE674     -0.0000
     55  N        -34.6610  -19.8820   64.5920 N.3   707  LEU707     -0.1245
     56  CA       -35.5750  -18.9620   63.9370 C.3   707  LEU707      0.1561
     57  C        -36.7700  -18.6760   64.8400 C.2   707  LEU707      0.2260
     58  O        -37.1120  -19.4570   65.7330 O.2   707  LEU707     -0.2867
     59  CB       -36.0560  -19.5330   62.6030 C.3   707  LEU707      0.0270
     60  CG       -35.0180  -19.6600   61.4900 C.3   707  LEU707      0.0019
     61  CD1      -35.6370  -20.2650   60.2390 C.3   707  LEU707      0.0001
     62  CD2      -34.4130  -18.3050   61.1850 C.3   707  LEU707      0.0001
     63  N        -41.1150  -18.8120   56.3730 N.3   715  VAL715     -0.1245
     64  CA       -40.1990  -19.4800   55.4560 C.3   715  VAL715      0.1561
     65  C        -40.7840  -20.8080   54.9940 C.2   715  VAL715      0.2260
     66  O        -40.5460  -21.2400   53.8590 O.2   715  VAL715     -0.2867
     67  CB       -38.8220  -19.6580   56.1240 C.3   715  VAL715      0.0252
     68  CG1      -37.8670  -20.3740   55.1950 C.3   715  VAL715      0.0019
     69  CG2      -38.2530  -18.3060   56.5230 C.3   715  VAL715      0.0019
     70  N        -43.1040  -20.0530   52.2910 N.3   718  ALA718     -0.1231
     71  CA       -42.3020  -19.5760   51.1690 C.3   718  ALA718      0.1694
     72  C        -41.7450  -20.7400   50.3580 C.2   718  ALA718      0.2592
     73  O        -41.7510  -20.7040   49.1220 O.2   718  ALA718     -0.2718
     74  CB       -41.1690  -18.6810   51.6710 C.3   718  ALA718      0.0304
     75  N        -41.2680  -21.7860   51.0360 N.am  719  HIS719     -0.1976
     76  CA       -40.7350  -22.9490   50.3340 C.3   719  HIS719      0.1656
     77  C        -41.8440  -23.8660   49.8310 C.2   719  HIS719      0.2291
     78  O        -41.7110  -24.4680   48.7600 O.2   719  HIS719     -0.2864
     79  CB       -39.7820  -23.7230   51.2440 C.3   719  HIS719      0.0771
     80  CG       -38.4340  -23.0920   51.3870 C.ar  719  HIS719      0.0820
     81  ND1      -38.1560  -22.1360   52.3400 N.ar  719  HIS719     -0.2267
     82  CD2      -37.2860  -23.2820   50.6970 C.ar  719  HIS719      0.1154
     83  CE1      -36.8930  -21.7650   52.2310 C.ar  719  HIS719      0.1986
     84  NE2      -36.3430  -22.4450   51.2410 N.ar  719  HIS719     -0.2212
     85  N        -42.7770  -21.8730   46.6680 N.3   722  LEU722     -0.1245
     86  CA       -41.7070  -21.8780   45.6730 C.3   722  LEU722      0.1561
     87  C        -41.4410  -23.2910   45.1690 C.2   722  LEU722      0.2260
     88  O        -41.4010  -23.5350   43.9580 O.2   722  LEU722     -0.2867
     89  CB       -40.4360  -21.2580   46.2560 C.3   722  LEU722      0.0270
     90  CG       -39.2860  -20.9870   45.2810 C.3   722  LEU722      0.0019
     91  CD1      -38.5930  -19.6830   45.6360 C.3   722  LEU722      0.0001
     92  CD2      -38.2850  -22.1340   45.2740 C.3   722  LEU722      0.0001
@<TRIPOS>BOND
     1    88    87    2
     2    87    86    1
     3    92    90    1
     4    90    91    1
     5    90    89    1
     6    86    89    1
     7    86    85    1
     8    15    16    1
     9    32    30    1
    10    19    16    1
    11    19    20    1
    12    16    17    1
    13    31    30    1
    14    26    17   am
    15    26    27    1
    16    20    22   ar
    17    20    21   ar
    18    30    27    1
    19    22    24   ar
    20    17    18    2
    21    21    23   ar
    22    27    28    1
    23    78    77    2
    24    28    29    2
    25    24    25   ar
    26    23    25   ar
    27    73    72    2
    28    77    76    1
    29    76    75    1
    30    76    79    1
    31    72    75   am
    32    72    71    1
    33    82    84   ar
    34    82    80   ar
    35    71    74    1
    36    71    70    1
    37    84    83   ar
    38    79    80    1
    39    80    81   ar
    40    33    34    1
    41    37    34    1
    42    37    38    1
    43    83    81   ar
    44    34    35    1
    45    38    40   ar
    46    38    39   ar
    47    40    42   ar
    48    39    41   ar
    49    35    36    2
    50    42    43   ar
    51    66    65    2
    52    41    43   ar
    53    65    64    1
    54    68    67    1
    55    64    67    1
    56    64    63    1
    57    67    69    1
    58    53    51   ar
    59    53    54   ar
    60    51    49   ar
    61    13    14   ar
    62    13    11   ar
    63    14    12   ar
    64    54    52   ar
    65    49    48    1
    66    49    50   ar
    67    44    45    1
    68    11     8   ar
    69    48    45    1
    70    12    10   ar
    71    52    50   ar
    72    45    46    1
    73    46    47    2
    74     8    10   ar
    75     8     6   ar
    76    10     9   ar
    77    61    60    1
    78     4     3    2
    79     6     5    1
    80     6     7   ar
    81     9     7   ar
    82     2     3    1
    83     2     5    1
    84     2     1    1
    85    62    60    1
    86    60    59    1
    87    59    56    1
    88    56    55    1
    89    56    57    1
    90    57    58    2
