@<TRIPOS>MOLECULE
tmp/6fosE33.pdb
 111 106 0 0 0
SMALL
GASTEIGER

@<TRIPOS>ATOM
      1  N        -23.6000  -34.4950   64.8900 N.3   414  SER414     -0.1217
      2  CA       -24.0940  -33.4550   63.9950 C.3   414  SER414      0.1889
      3  C        -23.1250  -33.2190   62.8440 C.2   414  SER414      0.2288
      4  O        -23.5450  -32.9940   61.7030 O.2   414  SER414     -0.2866
      5  CB       -24.3280  -32.1610   64.7740 C.3   414  SER414      0.2089
      6  OG       -23.1440  -31.7460   65.4350 O.3   414  SER414     -0.2183
      7  N        -23.6070  -35.9140   60.2700 N.3   417  SER417     -0.1202
      8  CA       -24.8480  -35.7310   59.5220 C.3   417  SER417      0.2020
      9  C        -24.6940  -34.6640   58.4450 C.2   417  SER417      0.2618
     10  O        -25.2790  -34.7770   57.3620 O.2   417  SER417     -0.2717
     11  CB       -25.9860  -35.3720   60.4760 C.3   417  SER417      0.2103
     12  OG       -27.2000  -35.1860   59.7710 O.3   417  SER417     -0.2182
     13  N        -23.9110  -33.6210   58.7230 N.am  418  LEU418     -0.1979
     14  CA       -23.6720  -32.5910   57.7200 C.3   418  LEU418      0.1596
     15  C        -22.6860  -33.0620   56.6570 C.2   418  LEU418      0.2287
     16  O        -22.8640  -32.7680   55.4700 O.2   418  LEU418     -0.2864
     17  CB       -23.1660  -31.3120   58.3880 C.3   418  LEU418      0.0297
     18  CG       -24.1510  -30.5840   59.3060 C.3   418  LEU418      0.0022
     19  CD1      -23.4510  -29.4690   60.0650 C.3   418  LEU418      0.0001
     20  CD2      -25.3190  -30.0340   58.5040 C.3   418  LEU418      0.0001
     21  N        -24.0080  -35.3860   53.9960 N.3   421  GLY421     -0.1210
     22  CA       -25.0110  -34.7390   53.1760 C.3   421  GLY421      0.1956
     23  C        -24.4180  -33.8940   52.0690 C.2   421  GLY421      0.2611
     24  O        -24.7670  -34.0660   50.8970 O.2   421  GLY421     -0.2717
     25  N        -23.5060  -32.9840   52.4290 N.am  422  PHE422     -0.1976
     26  CA       -22.9080  -32.0800   51.4500 C.3   422  PHE422      0.1639
     27  C        -22.2000  -32.8180   50.3220 C.2   422  PHE422      0.2290
     28  O        -21.9620  -32.2260   49.2640 O.2   422  PHE422     -0.2864
     29  CB       -21.9180  -31.1350   52.1320 C.3   422  PHE422      0.0560
     30  CG       -22.5670  -30.0070   52.8810 C.ar  422  PHE422     -0.0200
     31  CD1      -23.1140  -28.9310   52.2020 C.ar  422  PHE422     -0.0042
     32  CD2      -22.6140  -30.0120   54.2640 C.ar  422  PHE422     -0.0042
     33  CE1      -23.7060  -27.8890   52.8890 C.ar  422  PHE422     -0.0003
     34  CE2      -23.2060  -28.9750   54.9560 C.ar  422  PHE422     -0.0003
     35  CZ       -23.7520  -27.9110   54.2680 C.ar  422  PHE422     -0.0000
     36  N        -25.5230  -35.8460   48.5200 N.3   425  LEU425     -0.1231
     37  CA       -26.4740  -35.0910   47.7110 C.3   425  LEU425      0.1693
     38  C        -25.7660  -34.1180   46.7780 C.2   425  LEU425      0.2592
     39  O        -26.2610  -33.8490   45.6790 O.2   425  LEU425     -0.2718
     40  CB       -27.4650  -34.3510   48.6100 C.3   425  LEU425      0.0284
     41  CG       -28.7050  -33.7980   47.9030 C.3   425  LEU425      0.0019
     42  CD1      -29.9500  -34.0790   48.7190 C.3   425  LEU425      0.0001
     43  CD2      -28.5680  -32.3080   47.6440 C.3   425  LEU425      0.0001
     44  N        -24.6150  -33.5830   47.1920 N.am  426  GLY426     -0.1957
     45  CA       -23.8360  -32.7470   46.2920 C.3   426  GLY426      0.1869
     46  C        -23.3660  -33.5040   45.0650 C.2   426  GLY426      0.2309
     47  O        -23.4390  -32.9950   43.9440 O.2   426  GLY426     -0.2863
     48  N        -25.6550  -41.6810   55.3950 N.3   516  LEU516     -0.1245
     49  CA       -26.0950  -40.3380   55.7600 C.3   516  LEU516      0.1561
     50  C        -27.3900  -40.3830   56.5630 C.2   516  LEU516      0.2260
     51  O        -27.4670  -39.8490   57.6750 O.2   516  LEU516     -0.2867
     52  CB       -26.2700  -39.4900   54.4980 C.3   516  LEU516      0.0270
     53  CG       -27.0820  -38.2000   54.6340 C.3   516  LEU516      0.0019
     54  CD1      -26.4140  -37.2280   55.5940 C.3   516  LEU516      0.0001
     55  CD2      -27.2930  -37.5570   53.2730 C.3   516  LEU516      0.0001
     56  N        -27.7790  -39.7070   60.7050 N.3   520  THR520     -0.1218
     57  CA       -28.6750  -38.6370   61.1320 C.3   520  THR520      0.1862
     58  C        -29.7720  -39.1820   62.0350 C.2   520  THR520      0.2287
     59  O        -30.0790  -38.6030   63.0830 O.2   520  THR520     -0.2866
     60  CB       -29.2830  -37.9410   59.9130 C.3   520  THR520      0.1770
     61  OG1      -28.2360  -37.4780   59.0510 O.3   520  THR520     -0.2211
     62  CG2      -30.1390  -36.7590   60.3440 C.3   520  THR520      0.0375
     63  N        -28.3940  -39.9080   65.5660 N.3   523  LEU523     -0.1231
     64  CA       -28.2800  -38.7160   66.4020 C.3   523  LEU523      0.1693
     65  C        -29.6410  -38.2720   66.9240 C.2   523  LEU523      0.2591
     66  O        -29.7750  -37.9060   68.0980 O.2   523  LEU523     -0.2718
     67  CB       -27.6160  -37.5850   65.6150 C.3   523  LEU523      0.0284
     68  CG       -27.7470  -36.1750   66.2000 C.3   523  LEU523      0.0019
     69  CD1      -27.0950  -36.0810   67.5740 C.3   523  LEU523      0.0001
     70  CD2      -27.1610  -35.1400   65.2530 C.3   523  LEU523      0.0001
     71  N        -30.6630  -38.3040   66.0680 N.am  524  ILE524     -0.1980
     72  CA       -31.9880  -37.8460   66.4740 C.3   524  ILE524      0.1595
     73  C        -32.5770  -38.7690   67.5360 C.2   524  ILE524      0.2287
     74  O        -33.2740  -38.3180   68.4530 O.2   524  ILE524     -0.2864
     75  CB       -32.9000  -37.7280   65.2380 C.3   524  ILE524      0.0276
     76  CG1      -32.3130  -36.7110   64.2620 C.3   524  ILE524      0.0022
     77  CG2      -34.3100  -37.3270   65.6410 C.3   524  ILE524      0.0022
     78  CD1      -32.8970  -36.7870   62.8790 C.3   524  ILE524      0.0001
     79  N        -40.6070  -36.8970   66.0920 N.3   569  LEU569     -0.1245
     80  CA       -39.7010  -36.4340   65.0470 C.3   569  LEU569      0.1561
     81  C        -38.9450  -37.6030   64.4270 C.2   569  LEU569      0.2260
     82  O        -38.6820  -37.6110   63.2180 O.2   569  LEU569     -0.2867
     83  CB       -38.7280  -35.4050   65.6270 C.3   569  LEU569      0.0270
     84  CG       -38.0970  -34.3480   64.7130 C.3   569  LEU569      0.0019
     85  CD1      -37.0450  -34.9390   63.7830 C.3   569  LEU569      0.0001
     86  CD2      -39.1760  -33.6280   63.9220 C.3   569  LEU569      0.0001
     87  N        -40.4450  -39.8950   61.4250 N.3   572  PHE572     -0.1227
     88  CA       -40.3700  -39.3690   60.0650 C.3   572  PHE572      0.1736
     89  C        -39.1020  -39.8420   59.3660 C.2   572  PHE572      0.2595
     90  O        -39.1430  -40.2960   58.2170 O.2   572  PHE572     -0.2718
     91  CB       -40.4310  -37.8420   60.0890 C.3   572  PHE572      0.0547
     92  CG       -41.7230  -37.2910   60.6170 C.ar  572  PHE572     -0.0202
     93  CD1      -42.8760  -38.0600   60.6170 C.ar  572  PHE572     -0.0042
     94  CD2      -41.7860  -35.9990   61.1100 C.ar  572  PHE572     -0.0042
     95  CE1      -44.0640  -37.5510   61.1020 C.ar  572  PHE572     -0.0003
     96  CE2      -42.9710  -35.4860   61.5950 C.ar  572  PHE572     -0.0003
     97  CZ       -44.1110  -36.2630   61.5910 C.ar  572  PHE572     -0.0000
     98  N        -37.9600  -39.7370   60.0490 N.am  573  TRP573     -0.1976
     99  CA       -36.7080  -40.2190   59.4760 C.3   573  TRP573      0.1640
    100  C        -36.7190  -41.7250   59.2830 C.2   573  TRP573      0.2290
    101  O        -36.1090  -42.2310   58.3340 O.2   573  TRP573     -0.2864
    102  CB       -35.5350  -39.8180   60.3640 C.3   573  TRP573      0.0576
    103  CG       -35.1680  -38.3950   60.2170 C.ar  573  TRP573      0.0006
    104  CD1      -35.6380  -37.3520   60.9510 C.ar  573  TRP573      0.0946
    105  CD2      -34.2590  -37.8430   59.2620 C.ar  573  TRP573      0.0152
    106  NE1      -35.0700  -36.1820   60.5190 N.ar  573  TRP573     -0.2442
    107  CE2      -34.2200  -36.4540   59.4810 C.ar  573  TRP573      0.0810
    108  CE3      -33.4710  -38.3880   58.2440 C.ar  573  TRP573      0.0012
    109  CZ2      -33.4250  -35.6000   58.7210 C.ar  573  TRP573      0.0191
    110  CZ3      -32.6830  -37.5410   57.4910 C.ar  573  TRP573      0.0001
    111  CH2      -32.6650  -36.1620   57.7330 C.ar  573  TRP573      0.0015
@<TRIPOS>BOND
     1    47    46    2
     2    46    45    1
     3    39    38    2
     4    45    44    1
     5    38    44   am
     6    38    37    1
     7    43    41    1
     8    37    36    1
     9    37    40    1
    10    41    40    1
    11    41    42    1
    12    28    27    2
    13    27    26    1
    14    24    23    2
    15    26    29    1
    16    26    25    1
    17    23    25   am
    18    23    22    1
    19    29    30    1
    20    31    30   ar
    21    31    33   ar
    22    30    32   ar
    23    33    35   ar
    24    22    21    1
    25    55    53    1
    26    32    34   ar
    27    35    34   ar
    28    52    53    1
    29    52    49    1
    30    53    54    1
    31    48    49    1
    32    16    15    2
    33    49    50    1
    34    50    51    2
    35    15    14    1
    36    10     9    2
    37   110   111   ar
    38   110   108   ar
    39    14    17    1
    40    14    13    1
    41   111   109   ar
    42    90    89    2
    43   108   105   ar
    44   101   100    2
    45    17    18    1
    46     9    13   am
    47     9     8    1
    48    20    18    1
    49   109   107   ar
    50    61    60    1
    51   105   107   ar
    52   105   103   ar
    53   100    99    1
    54    18    19    1
    55    89    98   am
    56    89    88    1
    57    99    98    1
    58    99   102    1
    59   107   106   ar
    60     8     7    1
    61     8    11    1
    62    12    11    1
    63    60    62    1
    64    60    57    1
    65    88    91    1
    66    88    87    1
    67    91    92    1
    68   103   102    1
    69   103   104   ar
    70   106   104   ar
    71    93    92   ar
    72    93    95   ar
    73    92    94   ar
    74    56    57    1
    75    95    97   ar
    76    94    96   ar
    77    57    58    1
    78    97    96   ar
    79     4     3    2
    80    58    59    2
    81     3     2    1
    82    78    76    1
    83    82    81    2
    84    85    84    1
    85    86    84    1
    86     2     5    1
    87     2     1    1
    88    76    75    1
    89    81    80    1
    90    84    83    1
    91     5     6    1
    92    80    83    1
    93    80    79    1
    94    75    77    1
    95    75    72    1
    96    70    68    1
    97    63    64    1
    98    67    68    1
    99    67    64    1
   100    71    72    1
   101    71    65   am
   102    68    69    1
   103    64    65    1
   104    72    73    1
   105    65    66    2
   106    73    74    2
