@<TRIPOS>MOLECULE
tmp/6fosD31.pdb
 102 98 0 0 0
SMALL
GASTEIGER

@<TRIPOS>ATOM
      1  N        -29.1000  -13.7180   67.0270 N.3    34  THR34      -0.1218
      2  CA       -29.3930  -14.1110   65.6510 C.3    34  THR34       0.1862
      3  C        -30.8190  -13.7510   65.2580 C.2    34  THR34       0.2287
      4  O        -31.0800  -13.4390   64.0900 O.2    34  THR34      -0.2866
      5  CB       -29.1770  -15.6140   65.4630 C.3    34  THR34       0.1770
      6  OG1      -29.8530  -16.3270   66.5030 O.3    34  THR34      -0.2211
      7  CG2      -27.7030  -15.9640   65.4900 C.3    34  THR34       0.0375
      8  N        -31.2780  -10.5040   63.5390 N.3    37  ILE37      -0.1231
      9  CA       -30.9180  -10.4640   62.1240 C.3    37  ILE37       0.1692
     10  C        -32.1440  -10.7080   61.2530 C.2    37  ILE37       0.2592
     11  O        -32.3040  -10.0940   60.1910 O.2    37  ILE37      -0.2718
     12  CB       -29.7990  -11.4830   61.8390 C.3    37  ILE37       0.0266
     13  CG1      -28.5170  -11.0780   62.5710 C.3    37  ILE37       0.0019
     14  CG2      -29.5610  -11.6240   60.3460 C.3    37  ILE37       0.0020
     15  CD1      -27.3820  -12.0630   62.4090 C.3    37  ILE37       0.0001
     16  N        -33.0350  -11.6000   61.6910 N.am   38  TRP38      -0.1976
     17  CA       -34.2540  -11.8680   60.9370 C.3    38  TRP38       0.1640
     18  C        -35.3460  -10.8470   61.2320 C.2    38  TRP38       0.2290
     19  O        -36.1700  -10.5600   60.3560 O.2    38  TRP38      -0.2864
     20  CB       -34.7560  -13.2820   61.2360 C.3    38  TRP38       0.0576
     21  CG       -33.7830  -14.3430   60.8290 C.ar   38  TRP38       0.0006
     22  CD1      -32.8150  -14.9110   61.6060 C.ar   38  TRP38       0.0946
     23  CD2      -33.6720  -14.9570   59.5380 C.ar   38  TRP38       0.0152
     24  NE1      -32.1130  -15.8430   60.8810 N.ar   38  TRP38      -0.2442
     25  CE2      -32.6190  -15.8900   59.6080 C.ar   38  TRP38       0.0810
     26  CE3      -34.3630  -14.8100   58.3310 C.ar   38  TRP38       0.0012
     27  CZ2      -32.2410  -16.6740   58.5190 C.ar   38  TRP38       0.0191
     28  CZ3      -33.9860  -15.5880   57.2500 C.ar   38  TRP38       0.0001
     29  CH2      -32.9350  -16.5080   57.3520 C.ar   38  TRP38       0.0015
     30  N        -29.0490  -25.9850   68.8450 N.3   686  ILE686     -0.1245
     31  CA       -27.9780  -25.0010   68.6940 C.3   686  ILE686      0.1561
     32  C        -27.0090  -25.0820   69.8650 C.2   686  ILE686      0.2260
     33  O        -25.7890  -25.1250   69.6750 O.2   686  ILE686     -0.2867
     34  CB       -28.5380  -23.5740   68.5450 C.3   686  ILE686      0.0252
     35  CG1      -30.0560  -23.5540   68.6870 C.3   686  ILE686      0.0019
     36  CG2      -28.0680  -22.9480   67.2340 C.3   686  ILE686      0.0019
     37  CD1      -30.7810  -22.9790   67.4960 C.3   686  ILE686      0.0001
     38  N        -24.1420  -27.1820   69.4120 N.3   689  ILE689     -0.1231
     39  CA       -23.2110  -26.5690   68.4700 C.3   689  ILE689      0.1692
     40  C        -22.5430  -25.3550   69.0980 C.2   689  ILE689      0.2591
     41  O        -21.3670  -25.0730   68.8330 O.2   689  ILE689     -0.2718
     42  CB       -23.9480  -26.2000   67.1670 C.3   689  ILE689      0.0266
     43  CG1      -24.7150  -27.4080   66.6270 C.3   689  ILE689      0.0019
     44  CG2      -22.9730  -25.6880   66.1270 C.3   689  ILE689      0.0020
     45  CD1      -25.5590  -27.1000   65.4090 C.3   689  ILE689      0.0001
     46  N        -23.2730  -24.6200   69.9410 N.am  690  VAL690     -0.1980
     47  CA       -22.6780  -23.4930   70.6500 C.3   690  VAL690      0.1595
     48  C        -21.7060  -23.9870   71.7160 C.2   690  VAL690      0.2287
     49  O        -20.7480  -23.2860   72.0650 O.2   690  VAL690     -0.2864
     50  CB       -23.7830  -22.5970   71.2430 C.3   690  VAL690      0.0276
     51  CG1      -23.1850  -21.3690   71.9140 C.3   690  VAL690      0.0022
     52  CG2      -24.7600  -22.1770   70.1570 C.3   690  VAL690      0.0022
     53  N        -18.8180  -24.4230   69.8960 N.3   693  HIS693     -0.1241
     54  CA       -18.3450  -23.0740   69.6220 C.3   693  HIS693      0.1621
     55  C        -17.7280  -22.4220   70.8530 C.2   693  HIS693      0.2264
     56  O        -16.8840  -21.5300   70.7160 O.2   693  HIS693     -0.2867
     57  CB       -19.4940  -22.2250   69.0820 C.3   693  HIS693      0.0745
     58  CG       -19.7610  -22.4280   67.6240 C.ar  693  HIS693      0.0817
     59  ND1      -20.3940  -23.5480   67.1310 N.ar  693  HIS693     -0.2268
     60  CD2      -19.4750  -21.6540   66.5500 C.ar  693  HIS693      0.1154
     61  CE1      -20.4870  -23.4550   65.8170 C.ar  693  HIS693      0.1986
     62  NE2      -19.9360  -22.3160   65.4390 N.ar  693  HIS693     -0.2212
     63  N        -15.0430  -20.1340   69.2510 N.3   698  VAL698     -0.1245
     64  CA       -15.4410  -19.7130   67.9130 C.3   698  VAL698      0.1561
     65  C        -16.9220  -19.3490   67.9320 C.2   698  VAL698      0.2260
     66  O        -17.5290  -19.0880   66.8860 O.2   698  VAL698     -0.2867
     67  CB       -15.1220  -20.8100   66.8760 C.3   698  VAL698      0.0252
     68  CG1      -16.1060  -21.9660   66.9830 C.3   698  VAL698      0.0019
     69  CG2      -15.0700  -20.2380   65.4600 C.3   698  VAL698      0.0019
     70  N        -19.8790  -17.0150   67.9880 N.3   700  PRO700     -0.2116
     71  CA       -20.0060  -15.6080   67.6070 C.3   700  PRO700      0.1372
     72  C        -20.5840  -14.7810   68.7400 C.2   700  PRO700      0.2244
     73  O        -21.3310  -15.2750   69.5880 O.2   700  PRO700     -0.2868
     74  CB       -20.9540  -15.6490   66.4050 C.3   700  PRO700      0.0268
     75  CG       -21.7640  -16.8800   66.6180 C.3   700  PRO700      0.0207
     76  CD       -20.8470  -17.8720   67.2820 C.3   700  PRO700      0.0892
     77  N        -22.8020  -12.5210   68.2840 N.3   702  ILE702     -0.1245
     78  CA       -24.2190  -12.7030   67.9990 C.3   702  ILE702      0.1561
     79  C        -24.5910  -14.1050   68.4630 C.2   702  ILE702      0.2260
     80  O        -24.1890  -15.1030   67.8530 O.2   702  ILE702     -0.2867
     81  CB       -24.5330  -12.4830   66.5060 C.3   702  ILE702      0.0252
     82  CG1      -24.5800  -10.9900   66.1670 C.3   702  ILE702      0.0019
     83  CG2      -25.8620  -13.0970   66.1430 C.3   702  ILE702      0.0019
     84  CD1      -23.2330  -10.3200   66.0540 C.3   702  ILE702      0.0001
     85  N        -26.0120  -17.5280   68.9000 N.3   704  PRO704     -0.2102
     86  CA       -26.7930  -18.3870   67.9960 C.3   704  PRO704      0.1504
     87  C        -28.1120  -18.8060   68.6250 C.2   704  PRO704      0.2575
     88  O        -28.1480  -19.4240   69.6920 O.2   704  PRO704     -0.2718
     89  CB       -25.8660  -19.5870   67.7640 C.3   704  PRO704      0.0282
     90  CG       -24.4930  -19.0810   68.0830 C.3   704  PRO704      0.0208
     91  CD       -24.6870  -18.0970   69.1960 C.3   704  PRO704      0.0893
     92  N        -29.2060  -18.4560   67.9520 N.am  705  ARG705     -0.1980
     93  CA       -30.5470  -18.8330   68.3670 C.3   705  ARG705      0.1597
     94  C        -31.3100  -19.3620   67.1600 C.2   705  ARG705      0.2287
     95  O        -30.9360  -19.1220   66.0090 O.2   705  ARG705     -0.2864
     96  CB       -31.3060  -17.6500   68.9860 C.3   705  ARG705      0.0334
     97  CG       -30.6530  -17.0540   70.2200 C.3   705  ARG705      0.0492
     98  CD       -30.8290  -17.9520   71.4270 C.3   705  ARG705      0.2205
     99  NE       -30.3580  -17.3160   72.6540 N.pl3 705  ARG705     -0.0865
    100  CZ       -29.1380  -17.4720   73.1570 C.cat 705  ARG705      0.5346
    101  NH1      -28.2570  -18.2460   72.5400 N.pl3 705  ARG705      0.1354
    102  NH2      -28.8000  -16.8540   74.2800 N.pl3 705  ARG705      0.1354
@<TRIPOS>BOND
     1    28    29   ar
     2    28    26   ar
     3    29    27   ar
     4    26    23   ar
     5    27    25   ar
     6    23    25   ar
     7    23    21   ar
     8    25    24   ar
     9    11    10    2
    10    14    12    1
    11    19    18    2
    12    21    20    1
    13    21    22   ar
    14    24    22   ar
    15    17    18    1
    16    17    20    1
    17    17    16    1
    18    10    16   am
    19    10     9    1
    20    12     9    1
    21    12    13    1
    22     9     8    1
    23    15    13    1
    24     4     3    2
    25     3     2    1
    26    45    43    1
    27    62    61   ar
    28    62    60   ar
    29    69    67    1
    30     5     7    1
    31     5     2    1
    32     5     6    1
    33     2     1    1
    34    61    59   ar
    35    95    94    2
    36    84    82    1
    37    44    42    1
    38    83    81    1
    39    82    81    1
    40    74    75    1
    41    74    71    1
    42    81    78    1
    43    60    58   ar
    44    75    76    1
    45    43    42    1
    46    67    68    1
    47    67    64    1
    48    66    65    2
    49    59    58   ar
    50    94    93    1
    51    42    39    1
    52    36    34    1
    53    76    70    1
    54    37    35    1
    55    71    70    1
    56    71    72    1
    57    58    57    1
    58    89    86    1
    59    89    90    1
    60    80    79    2
    61    64    65    1
    62    64    63    1
    63    92    93    1
    64    92    87   am
    65    86    87    1
    66    86    85    1
    67    78    77    1
    68    78    79    1
    69    90    91    1
    70    93    96    1
    71    39    40    1
    72    39    38    1
    73    34    35    1
    74    34    31    1
    75    87    88    2
    76    31    30    1
    77    31    32    1
    78    72    73    2
    79    41    40    2
    80    85    91    1
    81    96    97    1
    82    57    54    1
    83    40    46   am
    84    54    53    1
    85    54    55    1
    86    33    32    2
    87    46    47    1
    88    52    50    1
    89    97    98    1
    90    47    50    1
    91    47    48    1
    92    56    55    2
    93    50    51    1
    94    98    99    1
    95    48    49    2
    96   101   100    1
    97    99   100    2
    98   100   102    1
