@<TRIPOS>MOLECULE
tmp/6fosC02.pdb
 110 104 0 0 0
SMALL
GASTEIGER

@<TRIPOS>ATOM
      1  N         -2.1020   -0.0290   60.3990 N.3     2  ASN2       -0.1240
      2  CA        -0.8030   -0.5930   60.7530 C.3     2  ASN2        0.1653
      3  C         -0.4640   -1.8000   59.8890 C.2     2  ASN2        0.2266
      4  O          0.6990   -1.9990   59.5180 O.2     2  ASN2       -0.2867
      5  CB        -0.7860   -0.9760   62.2330 C.3     2  ASN2        0.1155
      6  CG        -1.4370    0.0700   63.1130 C.2     2  ASN2        0.2627
      7  OD1       -1.5180    1.2430   62.7490 O.2     2  ASN2       -0.2716
      8  ND2       -1.9080   -0.3510   64.2820 N.am    2  ASN2       -0.0877
      9  N          0.7950   -0.6430   56.6090 N.3     5  GLN5       -0.1231
     10  CA         2.1290   -0.0950   56.8300 C.3     5  GLN5        0.1698
     11  C          3.1880   -1.1860   56.7490 C.2     5  GLN5        0.2592
     12  O          4.1880   -1.0460   56.0390 O.2     5  GLN5       -0.2718
     13  CB         2.1800    0.6090   58.1890 C.3     5  GLN5        0.0381
     14  CG         3.2950    1.6370   58.3420 C.3     5  GLN5        0.0905
     15  CD         4.6760    1.0150   58.4190 C.2     5  GLN5        0.2608
     16  OE1        5.6470    1.5800   57.9180 O.2     5  GLN5       -0.2717
     17  NE2        4.7720   -0.1500   59.0490 N.am    5  GLN5       -0.0878
     18  N          2.9720   -2.2930   57.4610 N.am    6  GLU6       -0.1979
     19  CA         3.9740   -3.3520   57.4900 C.3     6  GLU6        0.1602
     20  C          4.1430   -3.9900   56.1170 C.2     6  GLU6        0.2287
     21  O          5.2690   -4.1480   55.6330 O.2     6  GLU6       -0.2864
     22  CB         3.6030   -4.4000   58.5390 C.3     6  GLU6        0.0415
     23  CG         4.7180   -5.3930   58.8160 C.3     6  GLU6        0.1163
     24  CD         6.0470   -4.7110   59.0920 C.2     6  GLU6        0.3649
     25  OE1        6.0510   -3.6360   59.7280 O.co2   6  GLU6       -0.2457
     26  OE2        7.0900   -5.2480   58.6640 O.co2   6  GLU6       -0.2457
     27  N          5.5780   -1.6650   53.3730 N.3     9  ILE9       -0.1231
     28  CA         7.0060   -1.4150   53.5420 C.3     9  ILE9        0.1692
     29  C          7.8400   -2.6240   53.1340 C.2     9  ILE9        0.2591
     30  O          8.8610   -2.4760   52.4580 O.2     9  ILE9       -0.2718
     31  CB         7.2930   -0.9920   54.9960 C.3     9  ILE9        0.0266
     32  CG1        6.7820    0.4300   55.2400 C.3     9  ILE9        0.0019
     33  CG2        8.7740   -1.1080   55.3160 C.3     9  ILE9        0.0020
     34  CD1        7.0770    1.3930   54.1130 C.3     9  ILE9        0.0001
     35  N          7.4270   -3.8310   53.5350 N.am   10  LYS10      -0.1980
     36  CA         8.1580   -5.0290   53.1330 C.3    10  LYS10       0.1596
     37  C          8.1980   -5.1640   51.6160 C.2    10  LYS10       0.2287
     38  O          9.2300   -5.5350   51.0450 O.2    10  LYS10      -0.2864
     39  CB         7.5270   -6.2730   53.7600 C.3    10  LYS10       0.0298
     40  CG         7.5200   -6.2810   55.2800 C.3    10  LYS10       0.0038
     41  CD         8.9260   -6.2480   55.8530 C.3    10  LYS10       0.0206
     42  CE         9.6830   -7.5270   55.5400 C.3    10  LYS10       0.1093
     43  NZ        11.0390   -7.5250   56.1540 N.3    10  LYS10      -0.1314
     44  N         11.2070  -12.8210   63.9110 N.3    73  LEU73      -0.1245
     45  CA        10.4620  -11.5870   64.1340 C.3    73  LEU73       0.1561
     46  C          9.4020  -11.7650   65.2130 C.2    73  LEU73       0.2260
     47  O          9.1000  -10.8180   65.9490 O.2    73  LEU73      -0.2867
     48  CB         9.8260  -11.1180   62.8220 C.3    73  LEU73       0.0270
     49  CG         9.3810   -9.6550   62.7040 C.3    73  LEU73       0.0019
     50  CD1        7.9800   -9.4320   63.2650 C.3    73  LEU73       0.0001
     51  CD2       10.3870   -8.7400   63.3870 C.3    73  LEU73       0.0001
     52  N         10.3530   -7.4800   70.3850 N.3    78  GLU78      -0.1231
     53  CA        10.7570   -6.1740   69.8860 C.3    78  GLU78       0.1699
     54  C          9.7370   -5.1110   70.2750 C.2    78  GLU78       0.2592
     55  O          8.5250   -5.3460   70.2340 O.2    78  GLU78      -0.2718
     56  CB        10.9220   -6.2140   68.3670 C.3    78  GLU78       0.0402
     57  CG        11.9570   -7.2170   67.8840 C.3    78  GLU78       0.1161
     58  CD        12.0860   -7.2410   66.3740 C.2    78  GLU78       0.3649
     59  OE1       11.2860   -6.5610   65.6980 O.co2  78  GLU78      -0.2457
     60  OE2       12.9880   -7.9390   65.8640 O.co2  78  GLU78      -0.2457
     61  N         10.2420   -3.9360   70.6550 N.am   79  TRP79      -0.1976
     62  CA         9.4140   -2.8170   71.0940 C.3    79  TRP79       0.1640
     63  C          8.5120   -3.2190   72.2540 C.2    79  TRP79       0.2290
     64  O          8.9710   -3.3320   73.3950 O.2    79  TRP79      -0.2864
     65  CB         8.5810   -2.2720   69.9300 C.3    79  TRP79       0.0576
     66  CG         9.4030   -1.6270   68.8580 C.ar   79  TRP79       0.0006
     67  CD1        9.8770   -2.2150   67.7210 C.ar   79  TRP79       0.0946
     68  CD2        9.8530   -0.2670   68.8240 C.ar   79  TRP79       0.0152
     69  NE1       10.5920   -1.3040   66.9810 N.ar   79  TRP79      -0.2442
     70  CE2       10.5920   -0.1010   67.6370 C.ar   79  TRP79       0.0810
     71  CE3        9.7010    0.8260   69.6830 C.ar   79  TRP79       0.0012
     72  CZ2       11.1780    1.1130   67.2860 C.ar   79  TRP79       0.0191
     73  CZ3       10.2830    2.0310   69.3330 C.ar   79  TRP79       0.0001
     74  CH2       11.0120    2.1650   68.1450 C.ar   79  TRP79       0.0015
     75  N         12.0170    8.6410   63.6950 N.3    81  LYS81      -0.1245
     76  CA        10.6320    8.5670   63.2450 C.3    81  LYS81       0.1561
     77  C         10.4450    9.3100   61.9260 C.2    81  LYS81       0.2260
     78  O          9.5900    8.9490   61.1170 O.2    81  LYS81      -0.2867
     79  CB         9.6920    9.1330   64.3100 C.3    81  LYS81       0.0271
     80  CG         9.7090    8.3650   65.6230 C.3    81  LYS81       0.0035
     81  CD         9.1860    6.9480   65.4440 C.3    81  LYS81       0.0206
     82  CE         7.7300    6.9480   65.0080 C.3    81  LYS81       0.1093
     83  NZ         7.1940    5.5670   64.8570 N.3    81  LYS81      -0.1314
     84  N         11.4440    7.0340   59.1950 N.3    84  ARG84      -0.1245
     85  CA        10.3250    6.1350   58.9420 C.3    84  ARG84       0.1563
     86  C          9.2220    6.8330   58.1580 C.2    84  ARG84       0.2260
     87  O          8.5650    6.2070   57.3200 O.2    84  ARG84      -0.2867
     88  CB         9.7790    5.5910   60.2640 C.3    84  ARG84       0.0307
     89  CG        10.8080    4.8560   61.1130 C.3    84  ARG84       0.0489
     90  CD        11.3540    3.6330   60.3920 C.3    84  ARG84       0.2205
     91  NE        12.3160    2.8930   61.2050 N.pl3  84  ARG84      -0.0865
     92  CZ        11.9910    1.9200   62.0500 C.cat  84  ARG84       0.5346
     93  NH1       10.7230    1.5650   62.2020 N.pl3  84  ARG84       0.1354
     94  NH2       12.9360    1.3030   62.7460 N.pl3  84  ARG84       0.1354
     95  N         10.2650    6.8280   54.6600 N.3    87  GLU87      -0.1231
     96  CA        10.2470    5.4730   54.1220 C.3    87  GLU87       0.1699
     97  C          8.8270    5.0060   53.8240 C.2    87  GLU87       0.2592
     98  O          8.6150    4.2320   52.8840 O.2    87  GLU87      -0.2718
     99  CB        10.9370    4.5180   55.0980 C.3    87  GLU87       0.0402
    100  CG        11.4600    3.2410   54.4620 C.3    87  GLU87       0.1161
    101  CD        10.5300    2.0640   54.6610 C.2    87  GLU87       0.3649
    102  OE1        9.7570    2.0780   55.6410 O.co2  87  GLU87      -0.2457
    103  OE2       10.5740    1.1270   53.8370 O.co2  87  GLU87      -0.2457
    104  N          7.8450    5.4620   54.6070 N.am   88  VAL88      -0.1980
    105  CA         6.4520    5.1380   54.3150 C.3    88  VAL88       0.1595
    106  C          6.0450    5.7020   52.9590 C.2    88  VAL88       0.2287
    107  O          5.2160    5.1130   52.2530 O.2    88  VAL88      -0.2864
    108  CB         5.5410    5.6500   55.4510 C.3    88  VAL88       0.0276
    109  CG1        4.0730    5.5660   55.0610 C.3    88  VAL88       0.0022
    110  CG2        5.7880    4.8540   56.7230 C.3    88  VAL88       0.0022
@<TRIPOS>BOND
     1    38    37    2
     2    37    36    1
     3   107   106    2
     4    30    29    2
     5    98    97    2
     6   106   105    1
     7    36    35    1
     8    36    39    1
     9    29    35   am
    10    29    28    1
    11    27    28    1
    12    28    31    1
    13    39    40    1
    14    97    96    1
    15    97   104   am
    16   103   101   ar
    17    34    32    1
    18    96    95    1
    19    96    99    1
    20   105   104    1
    21   105   108    1
    22   100   101    1
    23   100    99    1
    24   101   102   ar
    25    31    32    1
    26    31    33    1
    27   109   108    1
    28    40    41    1
    29   108   110    1
    30    42    41    1
    31    42    43    1
    32    21    20    2
    33    12    11    2
    34    20    19    1
    35     9    10    1
    36    11    10    1
    37    11    18   am
    38    10    13    1
    39    87    86    2
    40    18    19    1
    41    19    22    1
    42    16    15    2
    43    86    85    1
    44    13    14    1
    45    14    15    1
    46    15    17   am
    47    22    23    1
    48    26    24   ar
    49    23    24    1
    50    85    84    1
    51    85    88    1
    52    24    25   ar
    53     4     3    2
    54     3     2    1
    55    88    89    1
    56    90    89    1
    57    90    91    1
    58     1     2    1
    59     2     5    1
    60    78    77    2
    61    91    92    2
    62    77    76    1
    63    92    93    1
    64    92    94    1
    65     5     6    1
    66    49    48    1
    67    49    50    1
    68    49    51    1
    69     7     6    2
    70    48    45    1
    71     6     8   am
    72    76    75    1
    73    76    79    1
    74    44    45    1
    75    45    46    1
    76    79    80    1
    77    83    82    1
    78    82    81    1
    79    46    47    2
    80    81    80    1
    81    59    58   ar
    82    60    58   ar
    83    58    57    1
    84    69    70   ar
    85    69    67   ar
    86    72    70   ar
    87    72    74   ar
    88    70    68   ar
    89    67    66   ar
    90    57    56    1
    91    74    73   ar
    92    56    53    1
    93    68    66   ar
    94    68    71   ar
    95    66    65    1
    96    73    71   ar
    97    53    54    1
    98    53    52    1
    99    65    62    1
   100    55    54    2
   101    54    61   am
   102    61    62    1
   103    62    63    1
   104    63    64    2
