@<TRIPOS>MOLECULE
tmp/6fosD52.pdb
 147 142 0 0 0
SMALL
GASTEIGER

@<TRIPOS>ATOM
      1  N        -37.1010   -3.1900   35.0440 N.3    75  TRP75      -0.1241
      2  CA       -37.4290   -4.5230   34.5510 C.3    75  TRP75       0.1605
      3  C        -37.9610   -4.4740   33.1230 C.2    75  TRP75       0.2264
      4  O        -37.5930   -5.3120   32.2910 O.2    75  TRP75      -0.2867
      5  CB       -38.4420   -5.1820   35.4870 C.3    75  TRP75       0.0550
      6  CG       -38.7830   -6.5850   35.1200 C.ar   75  TRP75       0.0003
      7  CD1      -37.9820   -7.6810   35.2430 C.ar   75  TRP75       0.0946
      8  CD2      -40.0250   -7.0530   34.5810 C.ar   75  TRP75       0.0152
      9  NE1      -38.6450   -8.8010   34.8080 N.ar   75  TRP75      -0.2442
     10  CE2      -39.9020   -8.4420   34.3970 C.ar   75  TRP75       0.0810
     11  CE3      -41.2290   -6.4320   34.2370 C.ar   75  TRP75       0.0012
     12  CZ2      -40.9340   -9.2200   33.8830 C.ar   75  TRP75       0.0191
     13  CZ3      -42.2520   -7.2060   33.7250 C.ar   75  TRP75       0.0001
     14  CH2      -42.0990   -8.5840   33.5540 C.ar   75  TRP75       0.0015
     15  N        -36.5450   -5.7620   28.7030 N.3    79  MET79      -0.1245
     16  CA       -37.2490   -6.6690   27.8000 C.3    79  MET79       0.1570
     17  C        -37.1230   -6.2170   26.3500 C.2    79  MET79       0.2261
     18  O        -36.9510   -7.0480   25.4490 O.2    79  MET79      -0.2867
     19  CB       -38.7180   -6.7810   28.2060 C.3    79  MET79       0.0387
     20  CG       -38.9430   -7.3090   29.6180 C.3    79  MET79       0.0595
     21  SD       -38.2500   -8.9530   29.9010 S.3    79  MET79      -0.1393
     22  CE       -36.7290   -8.5560   30.7630 C.3    79  MET79       0.0692
     23  N        -33.4240   -7.2350   25.3580 N.3    82  HIS82      -0.1241
     24  CA       -33.1830   -8.6450   25.0710 C.3    82  HIS82       0.1621
     25  C        -33.7730   -9.0730   23.7350 C.2    82  HIS82       0.2264
     26  O        -33.3140  -10.0640   23.1560 O.2    82  HIS82      -0.2867
     27  CB       -33.7510   -9.5170   26.1930 C.3    82  HIS82       0.0745
     28  CG       -32.9920   -9.4170   27.4800 C.ar   82  HIS82       0.0817
     29  ND1      -31.7070   -9.8930   27.6230 N.ar   82  HIS82      -0.2268
     30  CD2      -33.3380   -8.9030   28.6840 C.ar   82  HIS82       0.1154
     31  CE1      -31.2920   -9.6730   28.8580 C.ar   82  HIS82       0.1986
     32  NE2      -32.2630   -9.0720   29.5220 N.ar   82  HIS82      -0.2212
     33  N        -35.2800  -15.3940   23.2420 N.3   103  ALA103     -0.1231
     34  CA       -34.6880  -14.1060   23.5800 C.3   103  ALA103      0.1694
     35  C        -33.7460  -14.2380   24.7710 C.2   103  ALA103      0.2591
     36  O        -33.6930  -13.3500   25.6290 O.2   103  ALA103     -0.2718
     37  CB       -35.7790  -13.0740   23.8760 C.3   103  ALA103      0.0304
     38  N        -33.0010  -15.3400   24.8300 N.am  104  GLN104     -0.1979
     39  CA       -32.0750  -15.5820   25.9350 C.3   104  GLN104      0.1601
     40  C        -31.0540  -16.6150   25.4870 C.2   104  GLN104      0.2287
     41  O        -31.4310  -17.7200   25.0850 O.2   104  GLN104     -0.2864
     42  CB       -32.8240  -16.0600   27.1780 C.3   104  GLN104      0.0394
     43  CG       -31.9410  -16.2840   28.3910 C.3   104  GLN104      0.0908
     44  CD       -32.7220  -16.7790   29.5910 C.2   104  GLN104      0.2608
     45  OE1      -33.9090  -17.0890   29.4880 O.2   104  GLN104     -0.2717
     46  NE2      -32.0590  -16.8540   30.7390 N.am  104  GLN104     -0.0878
     47  N        -28.5070  -25.7420   26.3300 N.3   115  LEU115     -0.1245
     48  CA       -29.7690  -25.0280   26.4810 C.3   115  LEU115      0.1561
     49  C        -30.1010  -24.1550   25.2790 C.2   115  LEU115      0.2260
     50  O        -31.2300  -23.6630   25.1890 O.2   115  LEU115     -0.2867
     51  CB       -29.7480  -24.1690   27.7480 C.3   115  LEU115      0.0270
     52  CG       -30.1380  -24.8380   29.0700 C.3   115  LEU115      0.0019
     53  CD1      -29.0600  -25.7970   29.5550 C.3   115  LEU115      0.0001
     54  CD2      -30.4470  -23.7910   30.1320 C.3   115  LEU115      0.0001
     55  N        -32.7720  -19.6660   24.2570 N.3   126  ILE126     -0.1231
     56  CA       -33.7760  -20.2650   25.1290 C.3   126  ILE126      0.1692
     57  C        -35.1420  -19.7330   24.7260 C.2   126  ILE126      0.2592
     58  O        -35.3150  -18.5230   24.5420 O.2   126  ILE126     -0.2718
     59  CB       -33.4810  -19.9720   26.6100 C.3   126  ILE126      0.0266
     60  CG1      -32.1060  -20.5210   26.9890 C.3   126  ILE126      0.0019
     61  CG2      -34.5620  -20.5630   27.5050 C.3   126  ILE126      0.0020
     62  CD1      -31.7170  -20.2490   28.4160 C.3   126  ILE126      0.0001
     63  N        -36.1100  -20.6370   24.5880 N.am  127  GLN127     -0.1966
     64  CA       -37.4520  -20.2440   24.1840 C.3   127  GLN127      0.1733
     65  C        -38.1200  -19.4050   25.2660 C.2   127  GLN127      0.2616
     66  O        -37.8780  -19.5820   26.4630 O.2   127  GLN127     -0.2715
     67  CB       -38.2980  -21.4780   23.8740 C.3   127  GLN127      0.0408
     68  CG       -37.7300  -22.3480   22.7660 C.3   127  GLN127      0.0908
     69  CD       -38.6830  -23.4450   22.3390 C.2   127  GLN127      0.2608
     70  OE1      -39.8050  -23.5350   22.8370 O.2   127  GLN127     -0.2717
     71  NE2      -38.2430  -24.2850   21.4100 N.am  127  GLN127     -0.0878
     72  N        -38.9700  -18.4790   24.8300 N.am  128  ILE128     -0.1963
     73  CA       -39.6410  -17.5450   25.7230 C.3   128  ILE128      0.1727
     74  C        -41.1450  -17.7490   25.6160 C.2   128  ILE128      0.2617
     75  O        -41.6750  -18.0810   24.5500 O.2   128  ILE128     -0.2715
     76  CB       -39.2530  -16.0820   25.4090 C.3   128  ILE128      0.0290
     77  CG1      -39.6470  -15.7050   23.9780 C.3   128  ILE128      0.0022
     78  CG2      -37.7600  -15.8820   25.6010 C.3   128  ILE128      0.0023
     79  CD1      -40.9110  -14.8710   23.8780 C.3   128  ILE128      0.0001
     80  N        -41.8360  -17.5560   26.7430 N.am  129  THR129     -0.1937
     81  CA       -43.2840  -17.7220   26.8190 C.3   129  THR129      0.2028
     82  C        -43.9400  -16.5260   27.4980 C.2   129  THR129      0.2642
     83  O        -44.9990  -16.6580   28.1160 O.2   129  THR129     -0.2714
     84  CB       -43.6530  -19.0130   27.5510 C.3   129  THR129      0.1808
     85  OG1      -43.1360  -18.9750   28.8870 O.3   129  THR129     -0.2208
     86  CG2      -43.0770  -20.2160   26.8270 C.3   129  THR129      0.0379
     87  N        -43.3240  -15.3520   27.3890 N.am  130  SER130     -0.1949
     88  CA       -43.8170  -14.1500   28.0450 C.3   130  SER130      0.1924
     89  C        -44.7540  -13.3310   27.1680 C.2   130  SER130      0.2314
     90  O        -45.2920  -12.3230   27.6360 O.2   130  SER130     -0.2863
     91  CB       -42.6410  -13.2750   28.4890 C.3   130  SER130      0.2116
     92  OG       -41.8360  -13.9470   29.4410 O.3   130  SER130     -0.2180
     93  N        -43.8330  -11.5730   24.6200 N.3   132  LEU132     -0.1245
     94  CA       -43.1580  -10.3570   24.1810 C.3   132  LEU132      0.1561
     95  C        -43.2830  -10.1650   22.6750 C.2   132  LEU132      0.2260
     96  O        -43.5490   -9.0530   22.2080 O.2   132  LEU132     -0.2867
     97  CB       -41.6880  -10.3960   24.5990 C.3   132  LEU132      0.0270
     98  CG       -41.4070  -10.4330   26.1030 C.3   132  LEU132      0.0019
     99  CD1      -39.9110  -10.5120   26.3670 C.3   132  LEU132      0.0001
    100  CD2      -42.0120   -9.2180   26.7880 C.3   132  LEU132      0.0001
    101  N        -33.1420  -28.1610   31.2030 N.3   656  ALA656     -0.1231
    102  CA       -33.2530  -27.3510   32.4110 C.3   656  ALA656      0.1694
    103  C        -34.6170  -27.5010   33.0710 C.2   656  ALA656      0.2592
    104  O        -34.7190  -27.4290   34.3010 O.2   656  ALA656     -0.2718
    105  CB       -32.9770  -25.8840   32.0880 C.3   656  ALA656      0.0304
    106  N        -35.6720  -27.7110   32.2810 N.am  657  TYR657     -0.1976
    107  CA       -37.0030  -27.8920   32.8450 C.3   657  TYR657      0.1639
    108  C        -37.1720  -29.2390   33.5330 C.2   657  TYR657      0.2290
    109  O        -38.1930  -29.4520   34.1950 O.2   657  TYR657     -0.2864
    110  CB       -38.0640  -27.7230   31.7570 C.3   657  TYR657      0.0560
    111  CG       -38.0780  -26.3450   31.1390 C.ar  657  TYR657     -0.0198
    112  CD1      -38.6420  -25.2680   31.8110 C.ar  657  TYR657     -0.0009
    113  CD2      -37.5280  -26.1190   29.8850 C.ar  657  TYR657     -0.0009
    114  CE1      -38.6550  -24.0040   31.2510 C.ar  657  TYR657      0.0417
    115  CE2      -37.5390  -24.8600   29.3160 C.ar  657  TYR657      0.0417
    116  CZ       -38.1040  -23.8070   30.0030 C.ar  657  TYR657      0.1957
    117  OH       -38.1150  -22.5520   29.4390 O.3   657  TYR657     -0.2866
    118  N        -35.0110  -28.3310   37.1050 N.3   660  MET660     -0.1245
    119  CA       -35.8630  -27.5260   37.9730 C.3   660  MET660      0.1570
    120  C        -37.0650  -28.3190   38.4660 C.2   660  MET660      0.2261
    121  O        -37.5230  -28.1070   39.5950 O.2   660  MET660     -0.2867
    122  CB       -36.3200  -26.2640   37.2400 C.3   660  MET660      0.0387
    123  CG       -35.1980  -25.2880   36.9260 C.3   660  MET660      0.0595
    124  SD       -34.3940  -24.6580   38.4130 S.3   660  MET660     -0.1393
    125  CE       -35.7330  -23.7400   39.1700 C.3   660  MET660      0.0692
    126  N        -44.3780  -25.0940   37.1750 N.3   729  TRP729     -0.1241
    127  CA       -43.7220  -24.1820   36.2420 C.3   729  TRP729      0.1605
    128  C        -42.8320  -24.9470   35.2720 C.2   729  TRP729      0.2264
    129  O        -42.8030  -24.6450   34.0740 O.2   729  TRP729     -0.2867
    130  CB       -42.9030  -23.1360   36.9960 C.3   729  TRP729      0.0550
    131  CG       -41.9770  -22.3670   36.0960 C.ar  729  TRP729      0.0003
    132  CD1      -42.3060  -21.3220   35.2830 C.ar  729  TRP729      0.0946
    133  CD2      -40.5720  -22.5900   35.9120 C.ar  729  TRP729      0.0152
    134  NE1      -41.1950  -20.8800   34.6060 N.ar  729  TRP729     -0.2442
    135  CE2      -40.1180  -21.6410   34.9740 C.ar  729  TRP729      0.0810
    136  CE3      -39.6540  -23.4990   36.4490 C.ar  729  TRP729      0.0012
    137  CZ2      -38.7880  -21.5740   34.5630 C.ar  729  TRP729      0.0191
    138  CZ3      -38.3330  -23.4300   36.0390 C.ar  729  TRP729      0.0001
    139  CH2      -37.9130  -22.4740   35.1060 C.ar  729  TRP729      0.0015
    140  N        -44.1270  -25.8700   31.3150 N.3   733  LEU733     -0.1245
    141  CA       -43.1100  -25.5440   30.3260 C.3   733  LEU733      0.1561
    142  C        -42.3840  -26.7790   29.8090 C.2   733  LEU733      0.2260
    143  O        -41.3480  -26.6470   29.1500 O.2   733  LEU733     -0.2867
    144  CB       -42.1050  -24.5510   30.9140 C.3   733  LEU733      0.0270
    145  CG       -42.4440  -23.0580   30.8430 C.3   733  LEU733      0.0019
    146  CD1      -42.6520  -22.6420   29.4010 C.3   733  LEU733      0.0001
    147  CD2      -43.6620  -22.6980   31.6860 C.3   733  LEU733      0.0001
@<TRIPOS>BOND
     1    71    69   am
     2    96    95    2
     3    69    68    1
     4    69    70    2
     5    95    94    1
     6    68    67    1
     7    26    25    2
     8    33    34    1
     9    34    37    1
    10    34    35    1
    11    25    24    1
    12    67    64    1
    13    79    77    1
    14    77    76    1
    15    94    97    1
    16    94    93    1
    17    64    63    1
    18    64    65    1
    19    55    56    1
    20    58    57    2
    21    75    74    2
    22    63    57   am
    23    97    98    1
    24    57    56    1
    25    35    38   am
    26    35    36    2
    27    72    65   am
    28    72    73    1
    29    38    39    1
    30    24    23    1
    31    24    27    1
    32    41    40    2
    33    56    59    1
    34    50    49    2
    35    65    66    2
    36    49    48    1
    37    76    78    1
    38    76    73    1
    39    18    17    2
    40    40    39    1
    41    74    73    1
    42    74    80   am
    43    39    42    1
    44    98    99    1
    45    98   100    1
    46    27    28    1
    47    47    48    1
    48    17    16    1
    49    48    51    1
    50    59    60    1
    51    59    61    1
    52    80    81    1
    53    81    82    1
    54    81    84    1
    55    86    84    1
    56    60    62    1
    57    89    90    2
    58    89    88    1
    59    42    43    1
    60    87    82   am
    61    87    88    1
    62    28    29   ar
    63    28    30   ar
    64    82    83    2
    65    84    85    1
    66    29    31   ar
    67    51    52    1
    68    16    19    1
    69    16    15    1
    70    88    91    1
    71    19    20    1
    72    43    44    1
    73    91    92    1
    74    30    32   ar
    75    31    32   ar
    76    52    53    1
    77    52    54    1
    78   143   142    2
    79   115   113   ar
    80   115   116   ar
    81   146   145    1
    82   117   116    1
    83    45    44    2
    84    44    46   am
    85    20    21    1
    86   142   141    1
    87   113   111   ar
    88    21    22    1
    89   116   114   ar
    90   141   144    1
    91   141   140    1
    92   145   144    1
    93   145   147    1
    94   111   110    1
    95   111   112   ar
    96   101   102    1
    97   114   112   ar
    98   110   107    1
    99   105   102    1
   100   106   107    1
   101   106   103   am
   102     4     3    2
   103   102   103    1
   104   107   108    1
   105   103   104    2
   106     3     2    1
   107   108   109    2
   108    14    13   ar
   109    14    12   ar
   110    13    11   ar
   111    12    10   ar
   112   129   128    2
   113    11     8   ar
   114    10     8   ar
   115    10     9   ar
   116     2     1    1
   117     2     5    1
   118   137   135   ar
   119   137   139   ar
   120     8     6   ar
   121   134   135   ar
   122   134   132   ar
   123     9     7   ar
   124   135   133   ar
   125   139   138   ar
   126     6     7   ar
   127     6     5    1
   128   128   127    1
   129   132   131   ar
   130   133   131   ar
   131   133   136   ar
   132   138   136   ar
   133   131   130    1
   134   127   130    1
   135   127   126    1
   136   123   122    1
   137   123   124    1
   138   118   119    1
   139   122   119    1
   140   119   120    1
   141   124   125    1
   142   120   121    2
