@<TRIPOS>MOLECULE
tmp/6fosC00.pdb
 90 87 0 0 0
SMALL
GASTEIGER

@<TRIPOS>ATOM
      1  N         18.0500   -6.4430   41.1270 N.3    21  HIS21      -0.1226
      2  CA        18.0860   -7.8330   40.6860 C.3    21  HIS21       0.1752
      3  C         18.0720   -7.9360   39.1670 C.2    21  HIS21       0.2596
      4  O         18.6490   -8.8730   38.6040 O.2    21  HIS21      -0.2718
      5  CB        16.9080   -8.6060   41.2820 C.3    21  HIS21       0.0759
      6  CG        16.9730  -10.0840   41.0530 C.ar   21  HIS21       0.0818
      7  ND1       17.9090  -10.8910   41.6640 N.ar   21  HIS21      -0.2268
      8  CD2       16.2160  -10.9010   40.2840 C.ar   21  HIS21       0.1154
      9  CE1       17.7260  -12.1420   41.2800 C.ar   21  HIS21       0.1986
     10  NE2       16.7050  -12.1750   40.4430 N.ar   21  HIS21      -0.2212
     11  N         17.4230   -6.9880   38.4910 N.am   22  PHE22      -0.1976
     12  CA        17.4100   -6.9570   37.0360 C.3    22  PHE22       0.1639
     13  C         18.5020   -6.0740   36.4480 C.2    22  PHE22       0.2290
     14  O         18.8360   -6.2340   35.2700 O.2    22  PHE22      -0.2864
     15  CB        16.0450   -6.4800   36.5230 C.3    22  PHE22       0.0560
     16  CG        14.9640   -7.5230   36.6060 C.ar   22  PHE22      -0.0200
     17  CD1       15.2730   -8.8430   36.8880 C.ar   22  PHE22      -0.0042
     18  CD2       13.6380   -7.1820   36.3900 C.ar   22  PHE22      -0.0042
     19  CE1       14.2800   -9.8020   36.9610 C.ar   22  PHE22      -0.0003
     20  CE2       12.6410   -8.1370   36.4610 C.ar   22  PHE22      -0.0003
     21  CZ        12.9630   -9.4490   36.7470 C.ar   22  PHE22      -0.0000
     22  N         21.5020   -8.3440   35.6550 N.3    25  THR25      -0.1203
     23  CA        21.2220   -9.3140   34.6010 C.3    25  THR25       0.1994
     24  C         21.0280   -8.6350   33.2500 C.2    25  THR25       0.2617
     25  O         21.6140   -9.0590   32.2480 O.2    25  THR25      -0.2717
     26  CB        19.9900  -10.1460   34.9640 C.3    25  THR25       0.1784
     27  OG1       18.8480   -9.2890   35.0800 O.3    25  THR25      -0.2211
     28  CG2       20.2110  -10.8720   36.2840 C.3    25  THR25       0.0376
     29  N         20.2090   -7.5790   33.2030 N.am   26  GLU26      -0.1979
     30  CA        19.9710   -6.8850   31.9400 C.3    26  GLU26       0.1602
     31  C         21.2550   -6.2700   31.3960 C.2    26  GLU26       0.2287
     32  O         21.5160   -6.3290   30.1880 O.2    26  GLU26      -0.2864
     33  CB        18.8950   -5.8110   32.1170 C.3    26  GLU26       0.0415
     34  CG        17.5110   -6.3520   32.4580 C.3    26  GLU26       0.1163
     35  CD        16.8580   -7.0780   31.3010 C.2    26  GLU26       0.3649
     36  OE1       17.1910   -6.7720   30.1370 O.co2  26  GLU26      -0.2457
     37  OE2       16.0110   -7.9610   31.5560 O.co2  26  GLU26      -0.2457
     38  N         22.9730   -9.2020   29.8780 N.3    29  GLN29      -0.1245
     39  CA        22.3510   -9.8070   28.7070 C.3    29  GLN29       0.1566
     40  C         22.0360   -8.7760   27.6250 C.2    29  GLN29       0.2260
     41  O         21.1000   -8.9530   26.8430 O.2    29  GLN29      -0.2867
     42  CB        21.0900  -10.5780   29.1020 C.3    29  GLN29       0.0367
     43  CG        19.9580   -9.7330   29.6600 C.3    29  GLN29       0.0905
     44  CD        18.7550  -10.5700   30.0490 C.2    29  GLN29       0.2608
     45  OE1       18.7350  -11.7820   29.8360 O.2    29  GLN29      -0.2717
     46  NE2       17.7460   -9.9290   30.6240 N.am   29  GLN29      -0.0878
     47  N         24.8180  -14.1850   27.4040 N.3    35  GLY35      -0.1210
     48  CA        24.1100  -15.4510   27.3340 C.3    35  GLY35       0.1956
     49  C         22.6740  -15.3360   26.8680 C.2    35  GLY35       0.2611
     50  O         22.0430  -16.3630   26.5970 O.2    35  GLY35      -0.2717
     51  N         22.1500  -14.1170   26.7720 N.am   36  ALA36      -0.1979
     52  CA        20.8020  -13.8540   26.2930 C.3    36  ALA36       0.1597
     53  C         20.8090  -12.5730   25.4660 C.2    36  ALA36       0.2287
     54  O         21.0030  -11.4850   26.0180 O.2    36  ALA36      -0.2864
     55  CB        19.8250  -13.7380   27.4630 C.3    36  ALA36       0.0319
     56  N         15.7410  -15.4490   23.6080 N.3    42  PRO42      -0.2116
     57  CA        15.6610  -16.4260   24.7030 C.3    42  PRO42       0.1372
     58  C         14.5380  -16.1230   25.6810 C.2    42  PRO42       0.2244
     59  O         14.7890  -15.7610   26.8350 O.2    42  PRO42      -0.2868
     60  CB        17.0350  -16.3060   25.3720 C.3    42  PRO42       0.0268
     61  CG        17.4460  -14.9010   25.0990 C.3    42  PRO42       0.0207
     62  CD        16.9150  -14.5690   23.7330 C.3    42  PRO42       0.0892
     63  N         17.0060  -25.7240   29.3800 N.3    47  PHE47      -0.1241
     64  CA        18.4180  -25.9610   29.6450 C.3    47  PHE47       0.1605
     65  C         18.5550  -27.2690   30.4110 C.2    47  PHE47       0.2264
     66  O         17.8440  -27.4860   31.3970 O.2    47  PHE47      -0.2867
     67  CB        19.0270  -24.7950   30.4340 C.3    47  PHE47       0.0534
     68  CG        20.5220  -24.8590   30.5650 C.ar   47  PHE47      -0.0203
     69  CD1       21.3320  -24.8810   29.4410 C.ar   47  PHE47      -0.0042
     70  CD2       21.1190  -24.8740   31.8150 C.ar   47  PHE47      -0.0042
     71  CE1       22.7080  -24.9350   29.5610 C.ar   47  PHE47      -0.0003
     72  CE2       22.4950  -24.9280   31.9420 C.ar   47  PHE47      -0.0003
     73  CZ        23.2900  -24.9570   30.8140 C.ar   47  PHE47      -0.0000
     74  N         16.1100  -27.8890   40.0290 N.3    54  ILE54      -0.1231
     75  CA        16.8800  -26.8080   40.6350 C.3    54  ILE54       0.1692
     76  C         15.9790  -25.6180   40.9410 C.2    54  ILE54       0.2591
     77  O         16.2360  -24.8610   41.8850 O.2    54  ILE54      -0.2718
     78  CB        18.0670  -26.4130   39.7340 C.3    54  ILE54       0.0266
     79  CG1       19.0730  -25.5620   40.5130 C.3    54  ILE54       0.0019
     80  CG2       17.5950  -25.6640   38.4970 C.3    54  ILE54       0.0020
     81  CD1       19.7650  -26.3070   41.6320 C.3    54  ILE54       0.0001
     82  N         14.9030  -25.4420   40.1690 N.am   55  GLN55      -0.1979
     83  CA        13.9620  -24.3610   40.4420 C.3    55  GLN55       0.1601
     84  C         13.1970  -24.6160   41.7340 C.2    55  GLN55       0.2287
     85  O         13.0640  -23.7210   42.5760 O.2    55  GLN55      -0.2864
     86  CB        12.9940  -24.1970   39.2680 C.3    55  GLN55       0.0394
     87  CG        13.6600  -23.8450   37.9470 C.3    55  GLN55       0.0908
     88  CD        14.2180  -22.4360   37.9280 C.2    55  GLN55       0.2608
     89  OE1       13.6820  -21.5340   38.5720 O.2    55  GLN55      -0.2717
     90  NE2       15.3020  -22.2390   37.1860 N.am   55  GLN55      -0.0878
@<TRIPOS>BOND
     1    56    62    1
     2    56    57    1
     3    62    61    1
     4    57    60    1
     5    57    58    1
     6    61    60    1
     7    53    54    2
     8    53    52    1
     9    58    59    2
    10    52    51    1
    11    52    55    1
    12    50    49    2
    13    51    49   am
    14    41    40    2
    15    49    48    1
    16    48    47    1
    17    40    39    1
    18    39    42    1
    19    39    38    1
    20    42    43    1
    21    63    64    1
    22    69    71   ar
    23    69    68   ar
    24    71    73   ar
    25    64    65    1
    26    64    67    1
    27    43    44    1
    28    45    44    2
    29    44    46   am
    30    36    35   ar
    31    32    31    2
    32    65    66    2
    33    67    68    1
    34    68    70   ar
    35    73    72   ar
    36    35    37   ar
    37    35    34    1
    38    31    30    1
    39    70    72   ar
    40    30    33    1
    41    30    29    1
    42    33    34    1
    43    25    24    2
    44    29    24   am
    45    24    23    1
    46    23    26    1
    47    23    22    1
    48    26    27    1
    49    26    28    1
    50    14    13    2
    51    18    20   ar
    52    18    16   ar
    53    13    12    1
    54    20    21   ar
    55    15    16    1
    56    15    12    1
    57    16    17   ar
    58    21    19   ar
    59    17    19   ar
    60    12    11    1
    61    90    88   am
    62    88    87    1
    63    88    89    2
    64    87    86    1
    65    11     3   am
    66    80    78    1
    67     4     3    2
    68     3     2    1
    69    86    83    1
    70    78    79    1
    71    78    75    1
    72    74    75    1
    73    82    83    1
    74    82    76   am
    75     8    10   ar
    76     8     6   ar
    77    83    84    1
    78    10     9   ar
    79    79    81    1
    80    75    76    1
    81     2     1    1
    82     2     5    1
    83    76    77    2
    84     6     5    1
    85     6     7   ar
    86     9     7   ar
    87    84    85    2
