@<TRIPOS>MOLECULE
tmp/6fosE23.pdb
 158 151 0 0 0
SMALL
GASTEIGER

@<TRIPOS>ATOM
      1  N        -31.2460  -59.1820   55.9830 N.3   341  GLN341     -0.1245
      2  CA       -30.0850  -59.3090   55.1100 C.3   341  GLN341      0.1566
      3  C        -29.7260  -60.7580   54.8070 C.2   341  GLN341      0.2260
      4  O        -28.9410  -61.0010   53.8850 O.2   341  GLN341     -0.2867
      5  CB       -28.8820  -58.5990   55.7320 C.3   341  GLN341      0.0367
      6  CG       -29.0020  -57.0860   55.7500 C.3   341  GLN341      0.0905
      7  CD       -29.0740  -56.4960   54.3550 C.2   341  GLN341      0.2608
      8  OE1      -30.0920  -55.9280   53.9600 O.2   341  GLN341     -0.2717
      9  NE2      -27.9880  -56.6270   53.6020 N.am  341  GLN341     -0.0878
     10  N        -31.9570  -62.7440   51.1480 N.3   344  TYR344     -0.1241
     11  CA       -31.6950  -62.6160   49.7200 C.3   344  TYR344      0.1605
     12  C        -30.3860  -63.2540   49.2870 C.2   344  TYR344      0.2264
     13  O        -30.2650  -63.6570   48.1280 O.2   344  TYR344     -0.2867
     14  CB       -31.6950  -61.1390   49.3020 C.3   344  TYR344      0.0534
     15  CG       -30.4650  -60.3620   49.7210 C.ar  344  TYR344     -0.0201
     16  CD1      -30.3600  -59.8250   50.9980 C.ar  344  TYR344     -0.0009
     17  CD2      -29.4160  -60.1530   48.8340 C.ar  344  TYR344     -0.0009
     18  CE1      -29.2390  -59.1100   51.3820 C.ar  344  TYR344      0.0417
     19  CE2      -28.2930  -59.4410   49.2100 C.ar  344  TYR344      0.0417
     20  CZ       -28.2100  -58.9220   50.4840 C.ar  344  TYR344      0.1957
     21  OH       -27.0930  -58.2110   50.8600 O.3   344  TYR344     -0.2866
     22  N        -38.9130  -59.1470   52.6490 N.3   363  TYR363     -0.1241
     23  CA       -37.7200  -58.4320   53.0930 C.3   363  TYR363      0.1605
     24  C        -38.0780  -57.0710   53.6750 C.2   363  TYR363      0.2264
     25  O        -37.6520  -56.7230   54.7830 O.2   363  TYR363     -0.2867
     26  CB       -36.7440  -58.2800   51.9250 C.3   363  TYR363      0.0534
     27  CG       -35.5570  -57.3860   52.2130 C.ar  363  TYR363     -0.0201
     28  CD1      -34.4520  -57.8690   52.8980 C.ar  363  TYR363     -0.0009
     29  CD2      -35.5370  -56.0640   51.7860 C.ar  363  TYR363     -0.0009
     30  CE1      -33.3620  -57.0600   53.1600 C.ar  363  TYR363      0.0417
     31  CE2      -34.4510  -55.2460   52.0440 C.ar  363  TYR363      0.0417
     32  CZ       -33.3670  -55.7510   52.7310 C.ar  363  TYR363      0.1957
     33  OH       -32.2820  -54.9440   52.9900 O.3   363  TYR363     -0.2866
     34  N        -16.1940  -52.0710   48.4360 N.3   451  ALA451     -0.1245
     35  CA       -17.2540  -53.0240   48.1380 C.3   451  ALA451      0.1562
     36  C        -16.8980  -53.9380   46.9730 C.2   451  ALA451      0.2260
     37  O        -17.4770  -55.0230   46.8540 O.2   451  ALA451     -0.2867
     38  CB       -18.5570  -52.2810   47.8510 C.3   451  ALA451      0.0290
     39  N        -15.1320  -57.1260   48.3080 N.3   454  ILE454     -0.1231
     40  CA       -15.9940  -58.2250   48.7370 C.3   454  ILE454      0.1692
     41  C        -16.1100  -59.2680   47.6330 C.2   454  ILE454      0.2591
     42  O        -16.1700  -60.4750   47.9000 O.2   454  ILE454     -0.2718
     43  CB       -17.3760  -57.6870   49.1540 C.3   454  ILE454      0.0266
     44  CG1      -17.2240  -56.5460   50.1620 C.3   454  ILE454      0.0019
     45  CG2      -18.2330  -58.8020   49.7360 C.3   454  ILE454      0.0020
     46  CD1      -18.5350  -55.8980   50.5510 C.3   454  ILE454      0.0001
     47  N        -16.1420  -58.8210   46.3750 N.am  455  GLN455     -0.1979
     48  CA       -16.1950  -59.7580   45.2580 C.3   455  GLN455      0.1601
     49  C        -14.8720  -60.4890   45.0770 C.2   455  GLN455      0.2287
     50  O        -14.8540  -61.6200   44.5780 O.2   455  GLN455     -0.2864
     51  CB       -16.5820  -59.0240   43.9720 C.3   455  GLN455      0.0394
     52  CG       -18.0790  -58.7940   43.8080 C.3   455  GLN455      0.0908
     53  CD       -18.6780  -57.9710   44.9330 C.2   455  GLN455      0.2608
     54  OE1      -19.6600  -58.3740   45.5570 O.2   455  GLN455     -0.2717
     55  NE2      -18.0900  -56.8100   45.1970 N.am  455  GLN455     -0.0878
     56  N        -23.6820  -62.1870   46.4980 N.3   500  PHE500     -0.1227
     57  CA       -22.7370  -61.0940   46.2880 C.3   500  PHE500      0.1736
     58  C        -22.8040  -60.5760   44.8560 C.2   500  PHE500      0.2595
     59  O        -22.0410  -61.0160   43.9910 O.2   500  PHE500     -0.2718
     60  CB       -21.3100  -61.5310   46.6360 C.3   500  PHE500      0.0547
     61  CG       -21.0700  -61.7080   48.1090 C.ar  500  PHE500     -0.0202
     62  CD1      -21.9520  -61.1790   49.0380 C.ar  500  PHE500     -0.0042
     63  CD2      -19.9580  -62.3970   48.5660 C.ar  500  PHE500     -0.0042
     64  CE1      -21.7320  -61.3390   50.3940 C.ar  500  PHE500     -0.0003
     65  CE2      -19.7330  -62.5600   49.9200 C.ar  500  PHE500     -0.0003
     66  CZ       -20.6210  -62.0300   50.8350 C.ar  500  PHE500     -0.0000
     67  N        -23.7120  -59.6370   44.6030 N.am  501  LEU501     -0.1980
     68  CA       -23.8950  -59.0890   43.2680 C.3   501  LEU501      0.1596
     69  C        -22.7420  -58.1500   42.9160 C.2   501  LEU501      0.2287
     70  O        -21.8500  -57.8760   43.7250 O.2   501  LEU501     -0.2864
     71  CB       -25.2310  -58.3530   43.1700 C.3   501  LEU501      0.0297
     72  CG       -26.5440  -59.1420   43.1870 C.3   501  LEU501      0.0022
     73  CD1      -26.8980  -59.6300   44.5850 C.3   501  LEU501      0.0001
     74  CD2      -27.6680  -58.2910   42.6190 C.3   501  LEU501      0.0001
     75  N        -21.0380  -54.5690   42.2400 N.3   503  ILE503     -0.1245
     76  CA       -21.1500  -53.3030   42.9540 C.3   503  ILE503      0.1561
     77  C        -20.3780  -52.2350   42.1930 C.2   503  ILE503      0.2260
     78  O        -19.2480  -52.4680   41.7500 O.2   503  ILE503     -0.2867
     79  CB       -20.6320  -53.4200   44.4030 C.3   503  ILE503      0.0252
     80  CG1      -21.3460  -54.5570   45.1380 C.3   503  ILE503      0.0019
     81  CG2      -20.8290  -52.1100   45.1430 C.3   503  ILE503      0.0019
     82  CD1      -20.8330  -54.7980   46.5380 C.3   503  ILE503      0.0001
     83  N        -24.4190  -48.1870   42.8850 N.3   507  ASP507     -0.1239
     84  CA       -24.4460  -49.0200   44.0770 C.3   507  ASP507      0.1674
     85  C        -23.7820  -48.3340   45.2680 C.2   507  ASP507      0.2266
     86  O        -24.2740  -48.4450   46.3960 O.2   507  ASP507     -0.2867
     87  CB       -23.7610  -50.3580   43.7870 C.3   507  ASP507      0.1410
     88  CG       -24.2060  -51.4570   44.7260 C.2   507  ASP507      0.3668
     89  OD1      -24.7500  -51.1380   45.8010 O.co2 507  ASP507     -0.2456
     90  OD2      -24.0100  -52.6440   44.3900 O.co2 507  ASP507     -0.2456
     91  N        -25.3580  -46.3770   49.1090 N.3   511  HIS511     -0.1241
     92  CA       -24.8190  -46.7600   50.4110 C.3   511  HIS511      0.1621
     93  C        -24.2710  -45.5480   51.1520 C.2   511  HIS511      0.2264
     94  O        -24.3670  -45.4680   52.3820 O.2   511  HIS511     -0.2867
     95  CB       -23.7380  -47.8270   50.2480 C.3   511  HIS511      0.0745
     96  CG       -24.2770  -49.1970   49.9790 C.ar  511  HIS511      0.0817
     97  ND1      -24.3810  -49.7210   48.7090 N.ar  511  HIS511     -0.2268
     98  CD2      -24.7490  -50.1500   50.8190 C.ar  511  HIS511      0.1154
     99  CE1      -24.8890  -50.9390   48.7780 C.ar  511  HIS511      0.1986
    100  NE2      -25.1220  -51.2220   50.0470 N.ar  511  HIS511     -0.2212
    101  N        -27.4020  -44.0560   52.4330 N.3   514  ILE514     -0.1245
    102  CA       -27.9250  -44.8260   53.5580 C.3   514  ILE514      0.1561
    103  C        -27.1350  -44.5200   54.8230 C.2   514  ILE514      0.2260
    104  O        -27.7070  -44.3830   55.9110 O.2   514  ILE514     -0.2867
    105  CB       -27.9180  -46.3290   53.2260 C.3   514  ILE514      0.0252
    106  CG1      -28.9520  -46.6370   52.1400 C.3   514  ILE514      0.0019
    107  CG2      -28.1970  -47.1590   54.4700 C.3   514  ILE514      0.0019
    108  CD1      -28.8930  -48.0580   51.6260 C.3   514  ILE514      0.0001
    109  N        -28.9040  -42.8870   58.0630 N.3   518  LEU518     -0.1245
    110  CA       -28.8850  -43.7020   59.2740 C.3   518  LEU518      0.1561
    111  C        -28.1150  -43.0140   60.3950 C.2   518  LEU518      0.2260
    112  O        -28.5100  -43.0950   61.5640 O.2   518  LEU518     -0.2867
    113  CB       -28.2940  -45.0790   58.9680 C.3   518  LEU518      0.0270
    114  CG       -28.7010  -46.2240   59.8990 C.3   518  LEU518      0.0019
    115  CD1      -28.7220  -47.5410   59.1410 C.3   518  LEU518      0.0001
    116  CD2      -27.7650  -46.3170   61.0890 C.3   518  LEU518      0.0001
    117  N        -33.4570  -47.5320   51.6680 N.3   581  VAL581     -0.1245
    118  CA       -32.8770  -48.8680   51.5710 C.3   581  VAL581      0.1561
    119  C        -33.7200  -49.7500   50.6600 C.2   581  VAL581      0.2260
    120  O        -33.1910  -50.5730   49.9030 O.2   581  VAL581     -0.2867
    121  CB       -32.7270  -49.4830   52.9750 C.3   581  VAL581      0.0252
    122  CG1      -32.1250  -50.8780   52.8910 C.3   581  VAL581      0.0019
    123  CG2      -31.8800  -48.5820   53.8630 C.3   581  VAL581      0.0019
    124  N        -33.5270  -48.6990   46.9220 N.3   584  TYR584     -0.1227
    125  CA       -32.2890  -49.2460   46.3820 C.3   584  TYR584      0.1736
    126  C        -32.4130  -50.7430   46.1310 C.2   584  TYR584      0.2595
    127  O        -32.0300  -51.2390   45.0650 O.2   584  TYR584     -0.2718
    128  CB       -31.1360  -48.9580   47.3400 C.3   584  TYR584      0.0548
    129  CG       -29.9160  -49.8120   47.0990 C.ar  584  TYR584     -0.0200
    130  CD1      -29.0460  -49.5360   46.0530 C.ar  584  TYR584     -0.0009
    131  CD2      -29.6320  -50.8940   47.9210 C.ar  584  TYR584     -0.0009
    132  CE1      -27.9310  -50.3170   45.8300 C.ar  584  TYR584      0.0417
    133  CE2      -28.5210  -51.6790   47.7060 C.ar  584  TYR584      0.0417
    134  CZ       -27.6740  -51.3870   46.6610 C.ar  584  TYR584      0.1957
    135  OH       -26.5670  -52.1730   46.4500 O.3   584  TYR584     -0.2866
    136  N        -32.9430  -51.4800   47.1100 N.am  585  TRP585     -0.1976
    137  CA       -33.0420  -52.9290   46.9920 C.3   585  TRP585      0.1640
    138  C        -34.0280  -53.3600   45.9140 C.2   585  TRP585      0.2290
    139  O        -33.9300  -54.4870   45.4180 O.2   585  TRP585     -0.2864
    140  CB       -33.4390  -53.5320   48.3400 C.3   585  TRP585      0.0576
    141  CG       -33.3950  -55.0280   48.3730 C.ar  585  TRP585      0.0006
    142  CD1      -32.2820  -55.8130   48.4550 C.ar  585  TRP585      0.0946
    143  CD2      -34.5140  -55.9220   48.3330 C.ar  585  TRP585      0.0152
    144  NE1      -32.6380  -57.1400   48.4640 N.ar  585  TRP585     -0.2442
    145  CE2      -34.0030  -57.2330   48.3910 C.ar  585  TRP585      0.0810
    146  CE3      -35.8980  -55.7400   48.2520 C.ar  585  TRP585      0.0012
    147  CZ2      -34.8260  -58.3570   48.3700 C.ar  585  TRP585      0.0191
    148  CZ3      -36.7140  -56.8570   48.2310 C.ar  585  TRP585      0.0001
    149  CH2      -36.1750  -58.1480   48.2900 C.ar  585  TRP585      0.0015
    150  N        -31.8700  -53.7450   42.5820 N.3   588  LYS588     -0.1245
    151  CA       -30.8740  -54.8120   42.5450 C.3   588  LYS588      0.1561
    152  C        -31.4800  -56.1650   42.1820 C.2   588  LYS588      0.2260
    153  O        -30.7650  -57.1740   42.1390 O.2   588  LYS588     -0.2867
    154  CB       -30.1570  -54.9120   43.8920 C.3   588  LYS588      0.0271
    155  CG       -29.2490  -53.7290   44.2160 C.3   588  LYS588      0.0035
    156  CD       -27.9310  -53.7900   43.4500 C.3   588  LYS588      0.0206
    157  CE       -27.9520  -52.9130   42.2070 C.3   588  LYS588      0.1093
    158  NZ       -26.6760  -52.9970   41.4450 N.3   588  LYS588     -0.1314
@<TRIPOS>BOND
     1   158   157    1
     2    78    77    2
     3   153   152    2
     4   152   151    1
     5    77    76    1
     6   157   156    1
     7    75    76    1
     8   151   150    1
     9   151   154    1
    10    74    72    1
    11    83    84    1
    12    69    68    1
    13    69    70    2
    14    76    79    1
    15    71    72    1
    16    71    68    1
    17    72    73    1
    18    68    67    1
    19   156   155    1
    20    87    84    1
    21    87    88    1
    22    52    51    1
    23    52    53    1
    24   154   155    1
    25    51    48    1
    26    59    58    2
    27    84    85    1
    28    90    88   ar
    29    79    80    1
    30    79    81    1
    31    50    49    2
    32    67    58   am
    33    88    89   ar
    34    58    57    1
    35    53    55   am
    36    53    54    2
    37   127   126    2
    38    49    48    1
    39    80    82    1
    40    48    47    1
    41    85    86    2
    42   139   138    2
    43   132   130   ar
    44   132   134   ar
    45   138   137    1
    46   130   129   ar
    47   126   125    1
    48   126   136   am
    49    57    56    1
    50    57    60    1
    51    47    41   am
    52   125   124    1
    53   125   128    1
    54   135   134    1
    55    60    61    1
    56   134   133   ar
    57    37    36    2
    58    36    35    1
    59   137   136    1
    60   137   140    1
    61   129   128    1
    62   129   131   ar
    63    41    42    2
    64    41    40    1
    65   133   131   ar
    66    38    35    1
    67    61    63   ar
    68    61    62   ar
    69    13    12    2
    70    35    34    1
    71   148   146   ar
    72   148   149   ar
    73   146   143   ar
    74   149   147   ar
    75    39    40    1
    76   143   141   ar
    77   143   145   ar
    78   140   141    1
    79   147   145   ar
    80   141   142   ar
    81   145   144   ar
    82   142   144   ar
    83    63    65   ar
    84    97    99   ar
    85    97    96   ar
    86    40    43    1
    87    99   100   ar
    88    17    19   ar
    89    17    15   ar
    90    62    64   ar
    91    91    92    1
    92    43    45    1
    93    43    44    1
    94    19    20   ar
    95    12    11    1
    96    14    11    1
    97    14    15    1
    98    11    10    1
    99    15    16   ar
   100   120   119    2
   101    65    66   ar
   102    96    95    1
   103    96    98   ar
   104   100    98   ar
   105    44    46    1
   106    95    92    1
   107    64    66   ar
   108    92    93    1
   109    20    21    1
   110    20    18   ar
   111   119   118    1
   112    16    18   ar
   113    93    94    2
   114   118   117    1
   115   118   121    1
   116   108   106    1
   117    29    31   ar
   118    29    27   ar
   119    26    27    1
   120    26    23    1
   121    31    32   ar
   122   106   105    1
   123    27    28   ar
   124   101   102    1
   125    22    23    1
   126    32    33    1
   127    32    30   ar
   128   122   121    1
   129    28    30   ar
   130   121   123    1
   131    23    24    1
   132   105   102    1
   133   105   107    1
   134   102   103    1
   135     9     7   am
   136    24    25    2
   137     4     3    2
   138     8     7    2
   139     7     6    1
   140     3     2    1
   141   103   104    2
   142     2     5    1
   143     2     1    1
   144     5     6    1
   145   109   110    1
   146   113   110    1
   147   113   114    1
   148   115   114    1
   149   110   111    1
   150   114   116    1
   151   111   112    2
