@<TRIPOS>MOLECULE
tmp/6fosD20.pdb
 157 153 0 0 0
SMALL
GASTEIGER

@<TRIPOS>ATOM
      1  N        -40.6230   -3.9160   56.1240 N.3    45  HIS45      -0.1226
      2  CA       -41.7310   -3.4290   55.3170 C.3    45  HIS45       0.1752
      3  C        -43.0030   -3.2180   56.1230 C.2    45  HIS45       0.2596
      4  O        -44.0200   -2.8080   55.5550 O.2    45  HIS45      -0.2718
      5  CB       -42.0020   -4.3950   54.1580 C.3    45  HIS45       0.0759
      6  CG       -40.7890   -4.6990   53.3360 C.ar   45  HIS45       0.0818
      7  ND1      -40.1830   -3.7580   52.5310 N.ar   45  HIS45      -0.2268
      8  CD2      -40.0650   -5.8350   53.1990 C.ar   45  HIS45       0.1154
      9  CE1      -39.1390   -4.3030   51.9320 C.ar   45  HIS45       0.1986
     10  NE2      -39.0460   -5.5620   52.3200 N.ar   45  HIS45      -0.2212
     11  N        -42.9750   -3.4890   57.4270 N.am   46  ASP46      -0.1960
     12  CA       -44.1270   -3.2570   58.2980 C.3    46  ASP46       0.1840
     13  C        -44.0640   -1.8240   58.8270 C.2    46  ASP46       0.2622
     14  O        -43.7870   -1.5600   59.9980 O.2    46  ASP46      -0.2715
     15  CB       -44.1510   -4.2790   59.4270 C.3    46  ASP46       0.1450
     16  CG       -45.5470   -4.5260   59.9620 C.2    46  ASP46       0.3671
     17  OD1      -46.5200   -4.1040   59.3030 O.co2  46  ASP46      -0.2456
     18  OD2      -45.6700   -5.1430   61.0410 O.co2  46  ASP46      -0.2456
     19  N        -44.3380   -0.8840   57.9160 N.am   47  PHE47      -0.1974
     20  CA       -44.1030    0.5300   58.1910 C.3    47  PHE47       0.1639
     21  C        -44.9470    1.0650   59.3410 C.2    47  PHE47       0.2290
     22  O        -44.5550    2.0560   59.9680 O.2    47  PHE47      -0.2864
     23  CB       -44.3540    1.3580   56.9300 C.3    47  PHE47       0.0560
     24  CG       -43.2890    1.2020   55.8810 C.ar   47  PHE47      -0.0200
     25  CD1      -42.1310    1.9600   55.9350 C.ar   47  PHE47      -0.0042
     26  CD2      -43.4440    0.2980   54.8440 C.ar   47  PHE47      -0.0042
     27  CE1      -41.1480    1.8190   54.9730 C.ar   47  PHE47      -0.0003
     28  CE2      -42.4650    0.1520   53.8790 C.ar   47  PHE47      -0.0003
     29  CZ       -41.3160    0.9140   53.9440 C.ar   47  PHE47      -0.0000
     30  N        -53.4430    0.9770   55.1670 N.3   338  HIS338     -0.1241
     31  CA       -53.7580   -0.4400   55.0840 C.3   338  HIS338      0.1621
     32  C        -55.1310   -0.6620   54.4590 C.2   338  HIS338      0.2264
     33  O        -55.2780   -1.4620   53.5290 O.2   338  HIS338     -0.2867
     34  CB       -53.6830   -1.0560   56.4840 C.3   338  HIS338      0.0745
     35  CG       -52.3260   -1.5630   56.8590 C.ar  338  HIS338      0.0817
     36  ND1      -51.8920   -2.8320   56.5420 N.ar  338  HIS338     -0.2268
     37  CD2      -51.3090   -0.9750   57.5340 C.ar  338  HIS338      0.1154
     38  CE1      -50.6650   -3.0030   57.0010 C.ar  338  HIS338      0.1986
     39  NE2      -50.2880   -1.8910   57.6050 N.ar  338  HIS338     -0.2212
     40  N        -55.5780   -1.0970   50.9620 N.3   341  LEU341     -0.1245
     41  CA       -54.7640   -2.1190   50.3140 C.3   341  LEU341      0.1561
     42  C        -55.4850   -3.4570   50.1900 C.2   341  LEU341      0.2260
     43  O        -55.2470   -4.1860   49.2220 O.2   341  LEU341     -0.2867
     44  CB       -53.4390   -2.2910   51.0610 C.3   341  LEU341      0.0270
     45  CG       -52.3860   -3.1480   50.3540 C.3   341  LEU341      0.0019
     46  CD1      -52.2610   -2.7550   48.8870 C.3   341  LEU341      0.0001
     47  CD2      -51.0420   -3.0320   51.0520 C.3   341  LEU341      0.0001
     48  N        -55.9920   -5.1540   46.7970 N.3   345  LEU345     -0.1245
     49  CA       -55.4800   -6.4990   46.5580 C.3   345  LEU345      0.1561
     50  C        -56.5960   -7.4730   46.1980 C.2   345  LEU345      0.2260
     51  O        -56.3880   -8.3820   45.3860 O.2   345  LEU345     -0.2867
     52  CB       -54.7140   -6.9910   47.7850 C.3   345  LEU345      0.0270
     53  CG       -53.3180   -6.3970   47.9760 C.3   345  LEU345      0.0019
     54  CD1      -52.6800   -6.8990   49.2630 C.3   345  LEU345      0.0001
     55  CD2      -52.4410   -6.7150   46.7760 C.3   345  LEU345      0.0001
     56  N        -52.0060  -14.7850   45.0800 N.3   388  PHE388     -0.1227
     57  CA       -51.2300  -14.0890   46.1010 C.3   388  PHE388      0.1736
     58  C        -51.8840  -12.7710   46.4930 C.2   388  PHE388      0.2595
     59  O        -51.8950  -12.4020   47.6730 O.2   388  PHE388     -0.2718
     60  CB       -49.8050  -13.8430   45.6060 C.3   388  PHE388      0.0547
     61  CG       -48.8760  -15.0010   45.8220 C.ar  388  PHE388     -0.0202
     62  CD1      -49.3330  -16.1790   46.3860 C.ar  388  PHE388     -0.0042
     63  CD2      -47.5390  -14.9050   45.4770 C.ar  388  PHE388     -0.0042
     64  CE1      -48.4770  -17.2430   46.5900 C.ar  388  PHE388     -0.0003
     65  CE2      -46.6780  -15.9640   45.6820 C.ar  388  PHE388     -0.0003
     66  CZ       -47.1480  -17.1350   46.2380 C.ar  388  PHE388     -0.0000
     67  N        -52.4350  -12.0460   45.5170 N.am  389  CYS389     -0.1970
     68  CA       -53.0010  -10.7330   45.8070 C.3   389  CYS389      0.1712
     69  C        -54.2640  -10.8420   46.6530 C.2   389  CYS389      0.2296
     70  O        -54.4630  -10.0510   47.5810 O.2   389  CYS389     -0.2864
     71  CB       -53.2850   -9.9840   44.5070 C.3   389  CYS389      0.0983
     72  SG       -51.8030   -9.4670   43.6140 S.3   389  CYS389     -0.0798
     73  N        -55.0190  -13.2700   48.7210 N.3   391  VAL391     -0.1231
     74  CA       -54.6260  -13.6730   50.0680 C.3   391  VAL391      0.1692
     75  C        -53.9700  -12.5130   50.8010 C.2   391  VAL391      0.2592
     76  O        -54.0870  -12.3950   52.0270 O.2   391  VAL391     -0.2718
     77  CB       -53.7110  -14.9070   50.0110 C.3   391  VAL391      0.0266
     78  CG1      -53.2890  -15.3200   51.4040 C.3   391  VAL391      0.0020
     79  CG2      -54.4410  -16.0380   49.3510 C.3   391  VAL391      0.0020
     80  N        -53.2750  -11.6370   50.0730 N.am  392  GLY392     -0.1957
     81  CA       -52.8040  -10.4040   50.6790 C.3   392  GLY392      0.1869
     82  C        -53.9480   -9.4970   51.0830 C.2   392  GLY392      0.2309
     83  O        -53.8690   -8.7950   52.0960 O.2   392  GLY392     -0.2863
     84  N        -54.7990  -10.8770   54.1280 N.3   395  ALA395     -0.1231
     85  CA       -53.7180  -10.6070   55.0730 C.3   395  ALA395      0.1694
     86  C        -53.8680   -9.2370   55.7120 C.2   395  ALA395      0.2592
     87  O        -53.5410   -9.0520   56.8900 O.2   395  ALA395     -0.2718
     88  CB       -52.3630  -10.7180   54.3730 C.3   395  ALA395      0.0304
     89  N        -54.3610   -8.2640   54.9540 N.am  396  HIS396     -0.1976
     90  CA       -54.5120   -6.9140   55.4690 C.3   396  HIS396      0.1656
     91  C        -55.9180   -6.6180   55.9620 C.2   396  HIS396      0.2291
     92  O        -56.0670   -5.9140   56.9620 O.2   396  HIS396     -0.2864
     93  CB       -54.0870   -5.9040   54.4020 C.3   396  HIS396      0.0771
     94  CG       -52.6600   -6.0650   53.9840 C.ar  396  HIS396      0.0820
     95  ND1      -52.1830   -5.6390   52.7630 N.ar  396  HIS396     -0.2267
     96  CD2      -51.6070   -6.6230   54.6260 C.ar  396  HIS396      0.1154
     97  CE1      -50.8950   -5.9230   52.6750 C.ar  396  HIS396      0.1986
     98  NE2      -50.5210   -6.5180   53.7930 N.ar  396  HIS396     -0.2212
     99  N        -55.4380   -7.2200   59.1400 N.3   399  ILE399     -0.1245
    100  CA       -54.6620   -6.1830   59.8180 C.3   399  ILE399      0.1561
    101  C        -55.5720   -5.0970   60.3800 C.2   399  ILE399      0.2260
    102  O        -55.2750   -4.5030   61.4240 O.2   399  ILE399     -0.2867
    103  CB       -53.6150   -5.5980   58.8420 C.3   399  ILE399      0.0252
    104  CG1      -52.4630   -6.5800   58.6180 C.3   399  ILE399      0.0019
    105  CG2      -53.0830   -4.2540   59.3260 C.3   399  ILE399      0.0019
    106  CD1      -51.4310   -6.5620   59.7160 C.3   399  ILE399      0.0001
    107  N        -50.5280   -9.3720   65.4660 N.3   559  PHE559     -0.1227
    108  CA       -50.9110   -9.9750   64.1950 C.3   559  PHE559      0.1736
    109  C        -50.0350  -11.1600   63.8180 C.2   559  PHE559      0.2595
    110  O        -50.5520  -12.2350   63.5010 O.2   559  PHE559     -0.2718
    111  CB       -50.8660   -8.9130   63.0850 C.3   559  PHE559      0.0547
    112  CG       -51.2410   -9.4330   61.7250 C.ar  559  PHE559     -0.0202
    113  CD1      -52.5610   -9.7150   61.4140 C.ar  559  PHE559     -0.0042
    114  CD2      -50.2730   -9.6220   60.7510 C.ar  559  PHE559     -0.0042
    115  CE1      -52.9080  -10.1870   60.1610 C.ar  559  PHE559     -0.0003
    116  CE2      -50.6150  -10.0870   59.4950 C.ar  559  PHE559     -0.0003
    117  CZ       -51.9330  -10.3730   59.2020 C.ar  559  PHE559     -0.0000
    118  N        -48.7160  -10.9930   63.8440 N.am  560  ARG560     -0.1980
    119  CA       -47.7850  -12.0760   63.5240 C.3   560  ARG560      0.1597
    120  C        -47.1730  -12.6500   64.8010 C.2   560  ARG560      0.2287
    121  O        -45.9630  -12.6030   65.0260 O.2   560  ARG560     -0.2864
    122  CB       -46.7040  -11.5790   62.5670 C.3   560  ARG560      0.0334
    123  CG       -47.2080  -11.2460   61.1730 C.3   560  ARG560      0.0492
    124  CD       -46.0730  -10.8110   60.2610 C.3   560  ARG560      0.2205
    125  NE       -45.4600   -9.5630   60.7060 N.pl3 560  ARG560     -0.0865
    126  CZ       -44.4100   -8.9960   60.1220 C.cat 560  ARG560      0.5346
    127  NH1      -43.8480   -9.5670   59.0650 N.pl3 560  ARG560      0.1354
    128  NH2      -43.9200   -7.8590   60.5950 N.pl3 560  ARG560      0.1354
    129  N        -52.7430  -13.7310   60.9320 N.3   577  TRP577     -0.1241
    130  CA       -51.6680  -13.9540   59.9720 C.3   577  TRP577      0.1605
    131  C        -51.4680  -15.4370   59.6950 C.2   577  TRP577      0.2264
    132  O        -50.9880  -15.8090   58.6180 O.2   577  TRP577     -0.2867
    133  CB       -50.3690  -13.3300   60.4790 C.3   577  TRP577      0.0550
    134  CG       -49.2130  -13.5250   59.5510 C.ar  577  TRP577      0.0003
    135  CD1      -49.0350  -12.9460   58.3280 C.ar  577  TRP577      0.0946
    136  CD2      -48.0670  -14.3540   59.7720 C.ar  577  TRP577      0.0152
    137  NE1      -47.8510  -13.3660   57.7730 N.ar  577  TRP577     -0.2442
    138  CE2      -47.2370  -14.2310   58.6400 C.ar  577  TRP577      0.0810
    139  CE3      -47.6620  -15.1890   60.8180 C.ar  577  TRP577      0.0012
    140  CZ2      -46.0270  -14.9120   58.5240 C.ar  577  TRP577      0.0191
    141  CZ3      -46.4610  -15.8640   60.7010 C.ar  577  TRP577      0.0001
    142  CH2      -45.6580  -15.7220   59.5630 C.ar  577  TRP577      0.0015
    143  N        -53.8970  -16.4660   57.2680 N.3   580  VAL580     -0.1245
    144  CA       -53.3490  -16.1170   55.9640 C.3   580  VAL580      0.1561
    145  C        -52.2660  -17.1060   55.5590 C.2   580  VAL580      0.2260
    146  O        -52.1570  -17.4790   54.3850 O.2   580  VAL580     -0.2867
    147  CB       -52.8160  -14.6760   56.0030 C.3   580  VAL580      0.0252
    148  CG1      -52.2920  -14.2600   54.6430 C.3   580  VAL580      0.0019
    149  CG2      -53.9050  -13.7430   56.4800 C.3   580  VAL580      0.0019
    150  N        -52.8520  -18.9130   52.3710 N.3   584  LEU584     -0.1245
    151  CA       -51.9680  -19.0970   51.2260 C.3   584  LEU584      0.1561
    152  C        -51.9970  -20.5360   50.7290 C.2   584  LEU584      0.2260
    153  O        -51.8260  -20.7820   49.5300 O.2   584  LEU584     -0.2867
    154  CB       -50.5370  -18.6990   51.5950 C.3   584  LEU584      0.0270
    155  CG       -50.1950  -17.2100   51.6840 C.3   584  LEU584      0.0019
    156  CD1      -48.9020  -17.0020   52.4540 C.3   584  LEU584      0.0001
    157  CD2      -50.0860  -16.6000   50.2960 C.3   584  LEU584      0.0001
@<TRIPOS>BOND
     1    72    71    1
     2    71    68    1
     3    56    57    1
     4    51    50    2
     5    63    65   ar
     6    63    61   ar
     7    67    68    1
     8    67    58   am
     9    60    61    1
    10    60    57    1
    11    65    66   ar
    12    68    69    1
    13    61    62   ar
    14    57    58    1
    15    50    49    1
    16    66    64   ar
    17    62    64   ar
    18    58    59    2
    19    49    48    1
    20    49    52    1
    21    69    70    2
    22    55    53    1
    23    52    53    1
    24    53    54    1
    25    73    74    1
    26    46    45    1
    27    43    42    2
    28    79    77    1
    29   153   152    2
    30    77    74    1
    31    77    78    1
    32    74    75    1
    33    80    81    1
    34    80    75   am
    35    42    41    1
    36   157   155    1
    37    41    40    1
    38    41    44    1
    39    45    47    1
    40    45    44    1
    41    81    82    1
    42   152   151    1
    43    75    76    2
    44    82    83    2
    45   151   154    1
    46   151   150    1
    47   154   155    1
    48   155   156    1
    49     9    10   ar
    50     9     7   ar
    51    10     8   ar
    52     7     6   ar
    53    97    95   ar
    54    97    98   ar
    55    95    94   ar
    56     8     6   ar
    57     6     5    1
    58    33    32    2
    59    98    96   ar
    60    28    29   ar
    61    28    26   ar
    62    29    27   ar
    63    94    93    1
    64    94    96   ar
    65    84    85    1
    66     5     2    1
    67    88    85    1
    68   146   145    2
    69    93    90    1
    70    32    31    1
    71   148   147    1
    72    26    24   ar
    73    89    90    1
    74    89    86   am
    75    27    25   ar
    76    85    86    1
    77    31    30    1
    78    31    34    1
    79     2     3    1
    80     2     1    1
    81    90    91    1
    82     4     3    2
    83   145   144    1
    84    86    87    2
    85    24    25   ar
    86    24    23    1
    87    91    92    2
    88   144   147    1
    89   144   143    1
    90   147   149    1
    91     3    11   am
    92    34    35    1
    93    36    35   ar
    94    36    38   ar
    95    35    37   ar
    96    23    20    1
    97    38    39   ar
    98    11    12    1
    99    37    39   ar
   100   137   135   ar
   101   137   138   ar
   102    19    20    1
   103    19    13   am
   104    20    21    1
   105    12    13    1
   106    12    15    1
   107   135   134   ar
   108   140   138   ar
   109   140   142   ar
   110   104   103    1
   111   104   106    1
   112   132   131    2
   113   138   136   ar
   114    13    14    2
   115   103   105    1
   116   103   100    1
   117   127   126    1
   118    99   100    1
   119   117   116   ar
   120   117   115   ar
   121    17    16   ar
   122    21    22    2
   123    15    16    1
   124   116   114   ar
   125   134   136   ar
   126   134   133    1
   127   142   141   ar
   128   131   130    1
   129   136   139   ar
   130   100   101    1
   131    16    18   ar
   132   130   133    1
   133   130   129    1
   134   126   128    1
   135   126   125    2
   136   115   113   ar
   137   124   125    1
   138   124   123    1
   139   101   102    2
   140   141   139   ar
   141   114   112   ar
   142   123   122    1
   143   113   112   ar
   144   112   111    1
   145   122   119    1
   146   111   108    1
   147   110   109    2
   148   119   118    1
   149   119   120    1
   150   109   118   am
   151   109   108    1
   152   108   107    1
   153   120   121    2
