@<TRIPOS>MOLECULE
tmp/6fosD49.pdb
 178 173 0 0 0
SMALL
GASTEIGER

@<TRIPOS>ATOM
      1  N        -40.6230   -3.9160   56.1240 N.3    45  HIS45      -0.1241
      2  CA       -41.7310   -3.4290   55.3170 C.3    45  HIS45       0.1621
      3  C        -43.0030   -3.2180   56.1230 C.2    45  HIS45       0.2264
      4  O        -44.0200   -2.8080   55.5550 O.2    45  HIS45      -0.2867
      5  CB       -42.0020   -4.3950   54.1580 C.3    45  HIS45       0.0745
      6  CG       -40.7890   -4.6990   53.3360 C.ar   45  HIS45       0.0817
      7  ND1      -40.1830   -3.7580   52.5310 N.ar   45  HIS45      -0.2268
      8  CD2      -40.0650   -5.8350   53.1990 C.ar   45  HIS45       0.1154
      9  CE1      -39.1390   -4.3030   51.9320 C.ar   45  HIS45       0.1986
     10  NE2      -39.0460   -5.5620   52.3200 N.ar   45  HIS45      -0.2212
     11  N        -44.3380   -0.8840   57.9160 N.3    47  PHE47      -0.1227
     12  CA       -44.1030    0.5300   58.1910 C.3    47  PHE47       0.1736
     13  C        -44.9470    1.0650   59.3410 C.2    47  PHE47       0.2595
     14  O        -44.5550    2.0560   59.9680 O.2    47  PHE47      -0.2718
     15  CB       -44.3540    1.3580   56.9300 C.3    47  PHE47       0.0547
     16  CG       -43.2890    1.2020   55.8810 C.ar   47  PHE47      -0.0202
     17  CD1      -42.1310    1.9600   55.9350 C.ar   47  PHE47      -0.0042
     18  CD2      -43.4440    0.2980   54.8440 C.ar   47  PHE47      -0.0042
     19  CE1      -41.1480    1.8190   54.9730 C.ar   47  PHE47      -0.0003
     20  CE2      -42.4650    0.1520   53.8790 C.ar   47  PHE47      -0.0003
     21  CZ       -41.3160    0.9140   53.9440 C.ar   47  PHE47      -0.0000
     22  N        -46.0890    0.4460   59.6370 N.am   48  ASP48      -0.1974
     23  CA       -46.8940    0.8850   60.7710 C.3    48  ASP48       0.1709
     24  C        -46.3430    0.4020   62.1070 C.2    48  ASP48       0.2293
     25  O        -46.9510    0.6810   63.1460 O.2    48  ASP48      -0.2864
     26  CB       -48.3470    0.4250   60.6050 C.3    48  ASP48       0.1436
     27  CG       -48.4800   -1.0820   60.4920 C.2    48  ASP48       0.3671
     28  OD1      -47.4450   -1.7770   60.4510 O.co2  48  ASP48      -0.2456
     29  OD2      -49.6290   -1.5730   60.4450 O.co2  48  ASP48      -0.2456
     30  N        -44.5660    5.3310   52.3800 N.3    61  ILE61      -0.1245
     31  CA       -45.1820    4.3380   51.5110 C.3    61  ILE61       0.1561
     32  C        -45.2360    4.8120   50.0640 C.2    61  ILE61       0.2260
     33  O        -44.9890    4.0320   49.1440 O.2    61  ILE61      -0.2867
     34  CB       -46.5910    3.9860   52.0350 C.3    61  ILE61       0.0252
     35  CG1      -46.4970    3.4040   53.4450 C.3    61  ILE61       0.0019
     36  CG2      -47.2890    3.0190   51.0910 C.3    61  ILE61       0.0019
     37  CD1      -47.8320    3.2150   54.1120 C.3    61  ILE61       0.0001
     38  N        -41.9590    4.0890   48.8220 N.3    64  ALA64      -0.1231
     39  CA       -41.8560    2.6990   48.3920 C.3    64  ALA64       0.1694
     40  C        -42.6290    2.4550   47.1050 C.2    64  ALA64       0.2592
     41  O        -42.2640    1.5730   46.3190 O.2    64  ALA64      -0.2718
     42  CB       -42.3540    1.7680   49.4980 C.3    64  ALA64       0.0304
     43  N        -43.6990    3.2200   46.8740 N.am   65  HIS65      -0.1976
     44  CA       -44.4050    3.1410   45.5990 C.3    65  HIS65       0.1656
     45  C        -43.4860    3.5150   44.4450 C.2    65  HIS65       0.2291
     46  O        -43.3570    2.7660   43.4710 O.2    65  HIS65      -0.2864
     47  CB       -45.6360    4.0490   45.6180 C.3    65  HIS65       0.0771
     48  CG       -46.7930    3.4850   46.3810 C.ar   65  HIS65       0.0820
     49  ND1      -47.9660    4.1820   46.5730 N.ar   65  HIS65      -0.2267
     50  CD2      -46.9590    2.2900   46.9960 C.ar   65  HIS65       0.1154
     51  CE1      -48.8050    3.4420   47.2760 C.ar   65  HIS65       0.1986
     52  NE2      -48.2180    2.2900   47.5460 N.ar   65  HIS65      -0.2212
     53  N        -40.6150    0.7570   44.1190 N.3    68  GLN68      -0.1231
     54  CA       -41.1110   -0.3980   43.3760 C.3    68  GLN68       0.1698
     55  C        -41.3970   -0.0320   41.9270 C.2    68  GLN68       0.2592
     56  O        -41.1480   -0.8290   41.0140 O.2    68  GLN68      -0.2718
     57  CB       -42.3710   -0.9460   44.0470 C.3    68  GLN68       0.0381
     58  CG       -42.9960   -2.1270   43.3320 C.3    68  GLN68       0.0905
     59  CD       -42.0780   -3.3260   43.2870 C.2    68  GLN68       0.2608
     60  OE1      -41.7220   -3.8900   44.3220 O.2    68  GLN68      -0.2717
     61  NE2      -41.6770   -3.7160   42.0860 N.am   68  GLN68      -0.0878
     62  N        -41.9150    1.1760   41.7010 N.am   69  LEU69      -0.1980
     63  CA       -42.1890    1.6380   40.3450 C.3    69  LEU69       0.1596
     64  C        -40.9050    1.7420   39.5310 C.2    69  LEU69       0.2287
     65  O        -40.8790    1.3850   38.3470 O.2    69  LEU69      -0.2864
     66  CB       -42.9130    2.9840   40.4100 C.3    69  LEU69       0.0297
     67  CG       -43.7290    3.5260   39.2370 C.3    69  LEU69       0.0022
     68  CD1      -42.9560    4.6230   38.5370 C.3    69  LEU69       0.0001
     69  CD2      -44.1150    2.4200   38.2680 C.3    69  LEU69       0.0001
     70  N        -39.8160   -1.7300   38.5550 N.3    72  ILE72      -0.1231
     71  CA       -40.6020   -2.2480   37.4410 C.3    72  ILE72       0.1692
     72  C        -40.1380   -1.6330   36.1250 C.2    72  ILE72       0.2592
     73  O        -40.0980   -2.3090   35.0890 O.2    72  ILE72      -0.2718
     74  CB       -42.1010   -2.0040   37.6960 C.3    72  ILE72       0.0266
     75  CG1      -42.5520   -2.7470   38.9540 C.3    72  ILE72       0.0019
     76  CG2      -42.9330   -2.4480   36.5080 C.3    72  ILE72       0.0020
     77  CD1      -43.9840   -2.4660   39.3490 C.3    72  ILE72       0.0001
     78  N        -39.7670   -0.3490   36.1420 N.am   73  PHE73      -0.1976
     79  CA       -39.2970    0.2940   34.9170 C.3    73  PHE73       0.1639
     80  C        -37.9320   -0.2390   34.4970 C.2    73  PHE73       0.2290
     81  O        -37.6760   -0.4240   33.3020 O.2    73  PHE73      -0.2864
     82  CB       -39.2520    1.8120   35.0950 C.3    73  PHE73       0.0560
     83  CG       -40.5310    2.5010   34.7120 C.ar   73  PHE73      -0.0200
     84  CD1      -40.8940    2.6230   33.3810 C.ar   73  PHE73      -0.0042
     85  CD2      -41.3690    3.0260   35.6790 C.ar   73  PHE73      -0.0042
     86  CE1      -42.0700    3.2530   33.0230 C.ar   73  PHE73      -0.0003
     87  CE2      -42.5460    3.6580   35.3220 C.ar   73  PHE73      -0.0003
     88  CZ       -42.8960    3.7710   33.9960 C.ar   73  PHE73      -0.0000
     89  N        -38.8210   -3.4980   32.8170 N.3    76  LEU76      -0.1245
     90  CA       -39.4030   -3.4210   31.4790 C.3    76  LEU76       0.1561
     91  C        -38.4010   -2.9250   30.4450 C.2    76  LEU76       0.2260
     92  O        -38.4450   -3.3610   29.2880 O.2    76  LEU76      -0.2867
     93  CB       -40.6360   -2.5160   31.4820 C.3    76  LEU76       0.0270
     94  CG       -42.0010   -3.1980   31.6030 C.3    76  LEU76       0.0019
     95  CD1      -42.3800   -3.4070   33.0560 C.3    76  LEU76       0.0001
     96  CD2      -43.0700   -2.3970   30.8760 C.3    76  LEU76       0.0001
     97  N        -55.2540    8.6880   34.6920 N.3   193  LEU193     -0.1245
     98  CA       -54.5610    7.4250   34.4580 C.3   193  LEU193      0.1561
     99  C        -55.3970    6.4850   33.5940 C.2   193  LEU193      0.2260
    100  O        -54.9750    6.0940   32.5020 O.2   193  LEU193     -0.2867
    101  CB       -54.2110    6.7580   35.7930 C.3   193  LEU193      0.0270
    102  CG       -53.5160    5.3990   35.6840 C.3   193  LEU193      0.0019
    103  CD1      -52.1770    5.5410   34.9770 C.3   193  LEU193      0.0001
    104  CD2      -53.3390    4.7710   37.0560 C.3   193  LEU193      0.0001
    105  N        -53.9630    3.6670   55.5480 N.3   337  TRP337     -0.1227
    106  CA       -53.2800    3.2450   54.3290 C.3   337  TRP337      0.1737
    107  C        -53.4770    1.7590   54.0900 C.2   337  TRP337      0.2595
    108  O        -53.6400    1.3150   52.9470 O.2   337  TRP337     -0.2718
    109  CB       -51.7890    3.5590   54.4220 C.3   337  TRP337      0.0564
    110  CG       -51.4540    4.9400   54.0250 C.ar  337  TRP337      0.0003
    111  CD1      -51.3200    6.0180   54.8460 C.ar  337  TRP337      0.0946
    112  CD2      -51.2100    5.4100   52.6970 C.ar  337  TRP337      0.0152
    113  NE1      -51.0050    7.1330   54.1110 N.ar  337  TRP337     -0.2442
    114  CE2      -50.9320    6.7850   52.7880 C.ar  337  TRP337      0.0810
    115  CE3      -51.2000    4.7990   51.4390 C.ar  337  TRP337      0.0012
    116  CZ2      -50.6450    7.5620   51.6690 C.ar  337  TRP337      0.0191
    117  CZ3      -50.9150    5.5720   50.3290 C.ar  337  TRP337      0.0001
    118  CH2      -50.6420    6.9390   50.4520 C.ar  337  TRP337      0.0015
    119  N        -53.4430    0.9770   55.1670 N.am  338  HIS338     -0.1975
    120  CA       -53.7580   -0.4400   55.0840 C.3   338  HIS338      0.1656
    121  C        -55.1310   -0.6620   54.4590 C.2   338  HIS338      0.2291
    122  O        -55.2780   -1.4620   53.5290 O.2   338  HIS338     -0.2864
    123  CB       -53.6830   -1.0560   56.4840 C.3   338  HIS338      0.0771
    124  CG       -52.3260   -1.5630   56.8590 C.ar  338  HIS338      0.0820
    125  ND1      -51.8920   -2.8320   56.5420 N.ar  338  HIS338     -0.2267
    126  CD2      -51.3090   -0.9750   57.5340 C.ar  338  HIS338      0.1154
    127  CE1      -50.6650   -3.0030   57.0010 C.ar  338  HIS338      0.1986
    128  NE2      -50.2880   -1.8910   57.6050 N.ar  338  HIS338     -0.2212
    129  N        -57.1120    0.7020   52.3740 N.3   340  ASN340     -0.1225
    130  CA       -57.2230    0.7160   50.9200 C.3   340  ASN340      0.1785
    131  C        -56.5660   -0.5050   50.2900 C.2   340  ASN340      0.2597
    132  O        -56.9560   -0.9180   49.1930 O.2   340  ASN340     -0.2718
    133  CB       -56.5940    1.9880   50.3490 C.3   340  ASN340      0.1169
    134  CG       -57.4410    3.2200   50.5840 C.2   340  ASN340      0.2627
    135  OD1      -58.6650    3.1420   50.6560 O.2   340  ASN340     -0.2716
    136  ND2      -56.7890    4.3710   50.6920 N.am  340  ASN340     -0.0877
    137  N        -55.5780   -1.0970   50.9620 N.am  341  LEU341     -0.1980
    138  CA       -54.7640   -2.1190   50.3140 C.3   341  LEU341      0.1596
    139  C        -55.4850   -3.4570   50.1900 C.2   341  LEU341      0.2287
    140  O        -55.2470   -4.1860   49.2220 O.2   341  LEU341     -0.2864
    141  CB       -53.4390   -2.2910   51.0610 C.3   341  LEU341      0.0297
    142  CG       -52.3860   -3.1480   50.3540 C.3   341  LEU341      0.0022
    143  CD1      -52.2610   -2.7550   48.8870 C.3   341  LEU341      0.0001
    144  CD2      -51.0420   -3.0320   51.0520 C.3   341  LEU341      0.0001
    145  N        -57.9540   -3.1200   47.3790 N.3   344  ASN344     -0.1225
    146  CA       -57.1500   -3.1010   46.1620 C.3   344  ASN344      0.1785
    147  C        -56.6330   -4.4940   45.8300 C.2   344  ASN344      0.2597
    148  O        -56.8200   -4.9840   44.7120 O.2   344  ASN344     -0.2718
    149  CB       -55.9900   -2.1140   46.3090 C.3   344  ASN344      0.1169
    150  CG       -56.3730   -0.7050   45.9070 C.2   344  ASN344      0.2627
    151  OD1      -56.2190    0.2410   46.6790 O.2   344  ASN344     -0.2716
    152  ND2      -56.8800   -0.5600   44.6890 N.am  344  ASN344     -0.0877
    153  N        -55.9920   -5.1540   46.7970 N.am  345  LEU345     -0.1980
    154  CA       -55.4800   -6.4990   46.5580 C.3   345  LEU345      0.1596
    155  C        -56.5960   -7.4730   46.1980 C.2   345  LEU345      0.2287
    156  O        -56.3880   -8.3820   45.3860 O.2   345  LEU345     -0.2864
    157  CB       -54.7140   -6.9910   47.7850 C.3   345  LEU345      0.0297
    158  CG       -53.3180   -6.3970   47.9760 C.3   345  LEU345      0.0022
    159  CD1      -52.6800   -6.8990   49.2630 C.3   345  LEU345      0.0001
    160  CD2      -52.4410   -6.7150   46.7760 C.3   345  LEU345      0.0001
    161  N        -57.9370   -6.1850   42.4910 N.3   348  LEU348     -0.1245
    162  CA       -56.8800   -6.3890   41.5050 C.3   348  LEU348      0.1561
    163  C        -56.4520   -7.8500   41.4310 C.2   348  LEU348      0.2260
    164  O        -56.0360   -8.3180   40.3640 O.2   348  LEU348     -0.2867
    165  CB       -55.6770   -5.5010   41.8280 C.3   348  LEU348      0.0270
    166  CG       -55.9200   -3.9900   41.8980 C.3   348  LEU348      0.0019
    167  CD1      -54.7020   -3.2780   42.4670 C.3   348  LEU348      0.0001
    168  CD2      -56.2800   -3.4250   40.5350 C.3   348  LEU348      0.0001
    169  N        -54.3610   -8.2640   54.9540 N.3   396  HIS396     -0.1241
    170  CA       -54.5120   -6.9140   55.4690 C.3   396  HIS396      0.1621
    171  C        -55.9180   -6.6180   55.9620 C.2   396  HIS396      0.2264
    172  O        -56.0670   -5.9140   56.9620 O.2   396  HIS396     -0.2867
    173  CB       -54.0870   -5.9040   54.4020 C.3   396  HIS396      0.0745
    174  CG       -52.6600   -6.0650   53.9840 C.ar  396  HIS396      0.0817
    175  ND1      -52.1830   -5.6390   52.7630 N.ar  396  HIS396     -0.2268
    176  CD2      -51.6070   -6.6230   54.6260 C.ar  396  HIS396      0.1154
    177  CE1      -50.8950   -5.9230   52.6750 C.ar  396  HIS396      0.1986
    178  NE2      -50.5210   -6.5180   53.7930 N.ar  396  HIS396     -0.2212
@<TRIPOS>BOND
     1    92    91    2
     2    91    90    1
     3    96    94    1
     4    90    93    1
     5    90    89    1
     6    93    94    1
     7    94    95    1
     8   100    99    2
     9    86    84   ar
    10    86    88   ar
    11    81    80    2
    12    84    83   ar
    13    99    98    1
    14    88    87   ar
    15    98    97    1
    16    98   101    1
    17    80    79    1
    18    83    82    1
    19    83    85   ar
    20    79    82    1
    21    79    78    1
    22   103   102    1
    23    73    72    2
    24    87    85   ar
    25   102   101    1
    26   102   104    1
    27    72    78   am
    28    72    71    1
    29    76    74    1
    30    71    74    1
    31    71    70    1
    32    74    75    1
    33    69    67    1
    34    65    64    2
    35    68    67    1
    36    75    77    1
    37    67    66    1
    38    64    63    1
    39    63    66    1
    40    63    62    1
    41   164   163    2
    42   168   166    1
    43    56    55    2
    44   163   162    1
    45   162   165    1
    46   162   161    1
    47    62    55   am
    48   165   166    1
    49   166   167    1
    50    55    54    1
    51    61    59   am
    52    59    58    1
    53    59    60    2
    54    58    57    1
    55    54    57    1
    56    54    53    1
    57    46    45    2
    58    45    44    1
    59   152   150   am
    60   148   147    2
    61   156   155    2
    62    44    47    1
    63    44    43    1
    64    47    48    1
    65   147   146    1
    66   147   153   am
    67   150   149    1
    68   150   151    2
    69   146   149    1
    70   146   145    1
    71   155   154    1
    72    41    40    2
    73    48    49   ar
    74    48    50   ar
    75   154   153    1
    76   154   157    1
    77    49    51   ar
    78   160   158    1
    79    43    40   am
    80    50    52   ar
    81    40    39    1
    82    51    52   ar
    83   157   158    1
    84   158   159    1
    85    39    38    1
    86    39    42    1
    87   143   142    1
    88    33    32    2
    89   132   131    2
    90   140   139    2
    91    32    31    1
    92   139   138    1
    93   131   130    1
    94   131   137   am
    95   138   137    1
    96   138   141    1
    97   117   118   ar
    98   117   115   ar
    99   133   134    1
   100   133   130    1
   101   142   144    1
   102   142   141    1
   103   118   116   ar
   104   134   135    2
   105   134   136   am
   106   130   129    1
   107    36    34    1
   108   115   112   ar
   109    31    34    1
   110    31    30    1
   111   116   114   ar
   112     9    10   ar
   113     9     7   ar
   114    34    35    1
   115    10     8   ar
   116     7     6   ar
   117   177   175   ar
   118   177   178   ar
   119   112   114   ar
   120   112   110   ar
   121   175   174   ar
   122   114   113   ar
   123   108   107    2
   124     8     6   ar
   125     6     5    1
   126    35    37    1
   127   122   121    2
   128   178   176   ar
   129    20    21   ar
   130    20    18   ar
   131    21    19   ar
   132   174   173    1
   133   174   176   ar
   134   110   109    1
   135   110   111   ar
   136   107   106    1
   137   107   119   am
   138   113   111   ar
   139     5     2    1
   140   106   109    1
   141   106   105    1
   142   173   170    1
   143   121   120    1
   144    18    16   ar
   145   169   170    1
   146    19    17   ar
   147   120   119    1
   148   120   123    1
   149     2     3    1
   150     2     1    1
   151   170   171    1
   152     4     3    2
   153    16    17   ar
   154    16    15    1
   155   171   172    2
   156   123   124    1
   157   125   124   ar
   158   125   127   ar
   159   124   126   ar
   160    15    12    1
   161   127   128   ar
   162   126   128   ar
   163    11    12    1
   164    12    13    1
   165    13    22   am
   166    13    14    2
   167    22    23    1
   168    29    27   ar
   169    28    27   ar
   170    27    26    1
   171    26    23    1
   172    23    24    1
   173    24    25    2
