@<TRIPOS>MOLECULE
tmp/6fosE09.pdb
 90 90 0 0 0
SMALL
GASTEIGER

@<TRIPOS>ATOM
      1  N        -42.6320  -72.4940   56.3060 N.3   115  TRP115     -0.1241
      2  CA       -42.7180  -73.9090   56.6520 C.3   115  TRP115      0.1605
      3  C        -43.1560  -74.6750   55.4080 C.2   115  TRP115      0.2264
      4  O        -44.3260  -75.0230   55.2260 O.2   115  TRP115     -0.2867
      5  CB       -43.6870  -74.1090   57.8100 C.3   115  TRP115      0.0550
      6  CG       -44.9140  -73.2530   57.6840 C.ar  115  TRP115      0.0003
      7  CD1      -46.1170  -73.6140   57.1500 C.ar  115  TRP115      0.0946
      8  CD2      -45.0480  -71.8840   58.0840 C.ar  115  TRP115      0.0152
      9  NE1      -46.9930  -72.5570   57.1980 N.ar  115  TRP115     -0.2442
     10  CE2      -46.3610  -71.4830   57.7670 C.ar  115  TRP115      0.0810
     11  CE3      -44.1860  -70.9590   58.6820 C.ar  115  TRP115      0.0012
     12  CZ2      -46.8320  -70.1990   58.0290 C.ar  115  TRP115      0.0191
     13  CZ3      -44.6550  -69.6860   58.9400 C.ar  115  TRP115      0.0001
     14  CH2      -45.9660  -69.3180   58.6140 C.ar  115  TRP115      0.0015
     15  N        -42.1840  -77.8820   54.3500 N.3   117  THR117     -0.1218
     16  CA       -42.5710  -79.1850   54.8990 C.3   117  THR117      0.1862
     17  C        -43.2940  -79.9880   53.8150 C.2   117  THR117      0.2287
     18  O        -43.0380  -79.8120   52.6190 O.2   117  THR117     -0.2866
     19  CB       -43.3700  -78.9830   56.1790 C.3   117  THR117      0.1770
     20  OG1      -44.6160  -78.3410   55.8780 O.3   117  THR117     -0.2211
     21  CG2      -42.5890  -78.1250   57.1660 C.3   117  THR117      0.0375
     22  N        -36.6850  -77.3670   72.2600 N.3   177  SER177     -0.1217
     23  CA       -37.2390  -77.1660   70.9280 C.3   177  SER177      0.1889
     24  C        -36.1570  -76.9980   69.8700 C.2   177  SER177      0.2288
     25  O        -36.4310  -76.4410   68.8020 O.2   177  SER177     -0.2866
     26  CB       -38.1790  -75.9570   70.9150 C.3   177  SER177      0.2089
     27  OG       -37.4650  -74.7490   71.1170 O.3   177  SER177     -0.2183
     28  N        -35.8820  -81.2070   69.4690 N.3   180  ALA180     -0.1231
     29  CA       -37.2100  -81.5230   68.9540 C.3   180  ALA180      0.1694
     30  C        -37.3880  -80.9900   67.5390 C.2   180  ALA180      0.2592
     31  O        -37.8770  -81.7020   66.6550 O.2   180  ALA180     -0.2718
     32  CB       -38.2860  -80.9580   69.8830 C.3   180  ALA180      0.0304
     33  N        -36.9910  -79.7370   67.3030 N.am  181  TRP181     -0.1976
     34  CA       -37.1440  -79.1440   65.9780 C.3   181  TRP181      0.1640
     35  C        -36.3320  -79.9050   64.9380 C.2   181  TRP181      0.2290
     36  O        -36.8370  -80.2320   63.8580 O.2   181  TRP181     -0.2864
     37  CB       -36.7290  -77.6740   66.0160 C.3   181  TRP181      0.0576
     38  CG       -36.9550  -76.9260   64.7380 C.ar  181  TRP181      0.0006
     39  CD1      -38.0260  -76.1410   64.4270 C.ar  181  TRP181      0.0946
     40  CD2      -36.0800  -76.8770   63.6050 C.ar  181  TRP181      0.0152
     41  NE1      -37.8760  -75.6110   63.1690 N.ar  181  TRP181     -0.2442
     42  CE2      -36.6890  -76.0480   62.6430 C.ar  181  TRP181      0.0810
     43  CE3      -34.8440  -77.4600   63.3080 C.ar  181  TRP181      0.0012
     44  CZ2      -36.1020  -75.7850   61.4070 C.ar  181  TRP181      0.0191
     45  CZ3      -34.2640  -77.1960   62.0830 C.ar  181  TRP181      0.0001
     46  CH2      -34.8920  -76.3650   61.1480 C.ar  181  TRP181      0.0015
     47  N        -37.7850  -83.2030   64.3320 N.3   184  HIS184     -0.1226
     48  CA       -39.1130  -83.1070   63.7390 C.3   184  HIS184      0.1752
     49  C        -39.1370  -82.1410   62.5580 C.2   184  HIS184      0.2595
     50  O        -40.1410  -81.4670   62.3170 O.2   184  HIS184     -0.2718
     51  CB       -40.1470  -82.7030   64.7880 C.3   184  HIS184      0.0759
     52  CG       -40.1420  -83.5790   66.0030 C.ar  184  HIS184      0.0818
     53  ND1      -39.7300  -83.1330   67.2400 N.ar  184  HIS184     -0.2268
     54  CD2      -40.4830  -84.8790   66.1650 C.ar  184  HIS184      0.1154
     55  CE1      -39.8270  -84.1180   68.1150 C.ar  184  HIS184      0.1986
     56  NE2      -40.2820  -85.1880   67.4890 N.ar  184  HIS184     -0.2212
     57  N        -38.0330  -82.0620   61.8150 N.am  185  LEU185     -0.1980
     58  CA       -38.0160  -81.3330   60.5530 C.3   185  LEU185      0.1596
     59  C        -37.2210  -82.1030   59.5090 C.2   185  LEU185      0.2287
     60  O        -37.6920  -82.3030   58.3860 O.2   185  LEU185     -0.2864
     61  CB       -37.4350  -79.9290   60.7270 C.3   185  LEU185      0.0297
     62  CG       -37.3910  -79.1330   59.4190 C.3   185  LEU185      0.0022
     63  CD1      -38.1860  -77.8400   59.5320 C.3   185  LEU185      0.0001
     64  CD2      -35.9560  -78.8590   58.9900 C.3   185  LEU185      0.0001
     65  N        -39.2890  -85.5570   60.2600 N.3   188  VAL188     -0.1231
     66  CA       -40.7300  -85.4380   60.0690 C.3   188  VAL188      0.1692
     67  C        -41.0390  -84.9280   58.6670 C.2   188  VAL188      0.2591
     68  O        -41.9690  -85.4070   58.0080 O.2   188  VAL188     -0.2718
     69  CB       -41.3440  -84.5380   61.1570 C.3   188  VAL188      0.0266
     70  CG1      -42.6400  -83.9120   60.6680 C.3   188  VAL188      0.0020
     71  CG2      -41.5910  -85.3440   62.4230 C.3   188  VAL188      0.0020
     72  N        -40.2610  -83.9580   58.1840 N.am  189  ALA189     -0.1980
     73  CA       -40.3950  -83.4500   56.8250 C.3   189  ALA189      0.1597
     74  C        -39.3420  -84.0320   55.8850 C.2   189  ALA189      0.2287
     75  O        -38.9220  -83.3650   54.9330 O.2   189  ALA189     -0.2864
     76  CB       -40.3380  -81.9230   56.8140 C.3   189  ALA189      0.0319
     77  N        -46.8760  -91.4160   62.4710 N.3   200  TRP200     -0.1241
     78  CA       -46.4640  -90.9690   63.7970 C.3   200  TRP200      0.1605
     79  C        -46.6250  -92.0810   64.8270 C.2   200  TRP200      0.2264
     80  O        -47.2130  -91.8680   65.8920 O.2   200  TRP200     -0.2867
     81  CB       -47.2580  -89.7320   64.2240 C.3   200  TRP200      0.0550
     82  CG       -47.0580  -88.5330   63.3370 C.ar  200  TRP200      0.0003
     83  CD1      -46.4760  -88.5090   62.1020 C.ar  200  TRP200      0.0946
     84  CD2      -47.4390  -87.1820   63.6260 C.ar  200  TRP200      0.0152
     85  NE1      -46.4770  -87.2300   61.6020 N.ar  200  TRP200     -0.2442
     86  CE2      -47.0610  -86.3960   62.5190 C.ar  200  TRP200      0.0810
     87  CE3      -48.0640  -86.5610   64.7110 C.ar  200  TRP200      0.0012
     88  CZ2      -47.2900  -85.0230   62.4650 C.ar  200  TRP200      0.0191
     89  CZ3      -48.2880  -85.1970   64.6570 C.ar  200  TRP200      0.0001
     90  CH2      -47.9010  -84.4440   63.5430 C.ar  200  TRP200      0.0015
@<TRIPOS>BOND
     1    18    17    2
     2    17    16    1
     3    15    16    1
     4    16    19    1
     5    75    74    2
     6     4     3    2
     7     3     2    1
     8    20    19    1
     9    74    73    1
    10    19    21    1
    11     1     2    1
    12     2     5    1
    13    76    73    1
    14    73    72    1
    15     7     9   ar
    16     7     6   ar
    17     9    10   ar
    18     6     5    1
    19     6     8   ar
    20    10    12   ar
    21    10     8   ar
    22    68    67    2
    23    12    14   ar
    24     8    11   ar
    25    72    67   am
    26    60    59    2
    27    14    13   ar
    28    67    66    1
    29    11    13   ar
    30    64    62    1
    31    62    63    1
    32    62    61    1
    33    59    58    1
    34    66    65    1
    35    66    69    1
    36    58    61    1
    37    58    57    1
    38    70    69    1
    39    46    44   ar
    40    46    45   ar
    41    69    71    1
    42    44    42   ar
    43    85    83   ar
    44    85    86   ar
    45    57    49   am
    46    45    43   ar
    47    83    82   ar
    48    50    49    2
    49    88    86   ar
    50    88    90   ar
    51    77    78    1
    52    86    84   ar
    53    49    48    1
    54    42    41   ar
    55    42    40   ar
    56    41    39   ar
    57    43    40   ar
    58    82    84   ar
    59    82    81    1
    60    90    89   ar
    61    40    38   ar
    62    84    87   ar
    63    48    47    1
    64    48    51    1
    65    78    81    1
    66    78    79    1
    67    36    35    2
    68    39    38   ar
    69    89    87   ar
    70    38    37    1
    71    51    52    1
    72    79    80    2
    73    35    34    1
    74    34    37    1
    75    34    33    1
    76    52    54   ar
    77    52    53   ar
    78    54    56   ar
    79    31    30    2
    80    53    55   ar
    81    33    30   am
    82    56    55   ar
    83    30    29    1
    84    25    24    2
    85    29    28    1
    86    29    32    1
    87    24    23    1
    88    26    23    1
    89    26    27    1
    90    23    22    1
