@<TRIPOS>MOLECULE
tmp/6fosD27.pdb
 150 144 0 0 0
SMALL
GASTEIGER

@<TRIPOS>ATOM
      1  N        -58.4270  -15.3780   32.4130 N.3   357  HIS357     -0.1241
      2  CA       -59.4880  -16.0700   31.6890 C.3   357  HIS357      0.1621
      3  C        -59.7500  -15.4140   30.3400 C.2   357  HIS357      0.2264
      4  O        -59.8870  -16.1020   29.3210 O.2   357  HIS357     -0.2867
      5  CB       -60.7680  -16.1000   32.5240 C.3   357  HIS357      0.0745
      6  CG       -60.6970  -17.0060   33.7130 C.ar  357  HIS357      0.0817
      7  ND1      -60.7210  -18.3800   33.6040 N.ar  357  HIS357     -0.2268
      8  CD2      -60.6170  -16.7340   35.0370 C.ar  357  HIS357      0.1154
      9  CE1      -60.6500  -18.9160   34.8090 C.ar  357  HIS357      0.1986
     10  NE2      -60.5860  -17.9390   35.6960 N.ar  357  HIS357     -0.2212
     11  N        -57.1130  -16.5700   27.2990 N.3   360  TYR360     -0.1241
     12  CA       -57.2860  -17.7710   26.4880 C.3   360  TYR360      0.1605
     13  C        -58.6400  -17.7990   25.7940 C.2   360  TYR360      0.2264
     14  O        -58.7590  -18.3650   24.7020 O.2   360  TYR360     -0.2867
     15  CB       -57.1050  -19.0260   27.3450 C.3   360  TYR360      0.0534
     16  CG       -58.2860  -19.3660   28.2310 C.ar  360  TYR360     -0.0201
     17  CD1      -58.3830  -18.8550   29.5160 C.ar  360  TYR360     -0.0009
     18  CD2      -59.2960  -20.2140   27.7870 C.ar  360  TYR360     -0.0009
     19  CE1      -59.4540  -19.1680   30.3290 C.ar  360  TYR360      0.0417
     20  CE2      -60.3750  -20.5280   28.5950 C.ar  360  TYR360      0.0417
     21  CZ       -60.4460  -20.0000   29.8660 C.ar  360  TYR360      0.1957
     22  OH       -61.5080  -20.3020   30.6850 O.3   360  TYR360     -0.2866
     23  N        -51.7670  -17.3840   31.2270 N.3   379  PHE379     -0.1241
     24  CA       -52.9790  -17.5890   32.0150 C.3   379  PHE379      0.1605
     25  C        -52.6360  -17.9320   33.4580 C.2   379  PHE379      0.2264
     26  O        -53.0370  -17.2310   34.3940 O.2   379  PHE379     -0.2867
     27  CB       -53.8370  -18.6940   31.3930 C.3   379  PHE379      0.0534
     28  CG       -55.0130  -19.1010   32.2450 C.ar  379  PHE379     -0.0203
     29  CD1      -56.2160  -18.4290   32.1490 C.ar  379  PHE379     -0.0042
     30  CD2      -54.9120  -20.1490   33.1470 C.ar  379  PHE379     -0.0042
     31  CE1      -57.2970  -18.7890   32.9320 C.ar  379  PHE379     -0.0003
     32  CE2      -55.9900  -20.5160   33.9340 C.ar  379  PHE379     -0.0003
     33  CZ       -57.1850  -19.8350   33.8240 C.ar  379  PHE379     -0.0000
     34  N        -52.9490  -16.0070   36.9820 N.3   383  MET383     -0.1245
     35  CA       -53.7510  -16.7980   37.9080 C.3   383  MET383      0.1570
     36  C        -53.1190  -16.8180   39.2950 C.2   383  MET383      0.2261
     37  O        -53.7710  -16.4930   40.2950 O.2   383  MET383     -0.2867
     38  CB       -53.9070  -18.2150   37.3550 C.3   383  MET383      0.0387
     39  CG       -55.2020  -18.9090   37.7070 C.3   383  MET383      0.0595
     40  SD       -56.6720  -18.0450   37.1340 S.3   383  MET383     -0.1393
     41  CE       -57.9060  -18.7670   38.2080 C.3   383  MET383      0.0692
     42  N        -74.0350  -21.2530   26.3590 N.3   476  GLN476     -0.1245
     43  CA       -73.2960  -21.2750   25.1020 C.3   476  GLN476      0.1566
     44  C        -74.2340  -21.1160   23.9140 C.2   476  GLN476      0.2260
     45  O        -73.8950  -20.4490   22.9300 O.2   476  GLN476     -0.2867
     46  CB       -72.4940  -22.5720   24.9840 C.3   476  GLN476      0.0367
     47  CG       -71.3870  -22.7160   26.0160 C.3   476  GLN476      0.0905
     48  CD       -70.5890  -23.9940   25.8410 C.2   476  GLN476      0.2608
     49  OE1      -70.9170  -24.8350   25.0040 O.2   476  GLN476     -0.2717
     50  NE2      -69.5330  -24.1440   26.6310 N.am  476  GLN476     -0.0878
     51  N        -67.7360  -20.0610   22.0760 N.3   498  PHE498     -0.1241
     52  CA       -69.1910  -20.0450   22.1530 C.3   498  PHE498      0.1605
     53  C        -69.8570  -20.5620   20.8850 C.2   498  PHE498      0.2264
     54  O        -70.8270  -21.3200   20.9690 O.2   498  PHE498     -0.2867
     55  CB       -69.6900  -18.6250   22.4380 C.3   498  PHE498      0.0534
     56  CG       -69.2300  -18.0690   23.7560 C.ar  498  PHE498     -0.0203
     57  CD1      -69.8130  -18.4860   24.9420 C.ar  498  PHE498     -0.0042
     58  CD2      -68.2220  -17.1200   23.8090 C.ar  498  PHE498     -0.0042
     59  CE1      -69.3940  -17.9720   26.1550 C.ar  498  PHE498     -0.0003
     60  CE2      -67.7990  -16.6020   25.0200 C.ar  498  PHE498     -0.0003
     61  CZ       -68.3850  -17.0290   26.1940 C.ar  498  PHE498     -0.0000
     62  N        -65.7310  -25.0440   23.1960 N.3   514  ILE514     -0.1245
     63  CA       -65.4060  -25.9110   24.3240 C.3   514  ILE514      0.1561
     64  C        -66.6450  -26.6810   24.7600 C.2   514  ILE514      0.2260
     65  O        -67.4210  -26.2140   25.6010 O.2   514  ILE514     -0.2867
     66  CB       -64.8180  -25.1010   25.4950 C.3   514  ILE514      0.0252
     67  CG1      -63.6430  -24.2480   25.0120 C.3   514  ILE514      0.0019
     68  CG2      -64.3670  -26.0290   26.6110 C.3   514  ILE514      0.0019
     69  CD1      -62.9970  -23.4250   26.1030 C.3   514  ILE514      0.0001
     70  N        -68.4310  -28.7460   26.9030 N.3   516  LEU516     -0.1245
     71  CA       -68.3510  -29.2750   28.2560 C.3   516  LEU516      0.1561
     72  C        -68.8740  -30.7080   28.2930 C.2   516  LEU516      0.2260
     73  O        -69.6590  -31.1320   27.4410 O.2   516  LEU516     -0.2867
     74  CB       -69.1480  -28.3960   29.2200 C.3   516  LEU516      0.0270
     75  CG       -68.7920  -26.9080   29.2470 C.3   516  LEU516      0.0019
     76  CD1      -69.7840  -26.1330   30.1000 C.3   516  LEU516      0.0001
     77  CD2      -67.3730  -26.7010   29.7530 C.3   516  LEU516      0.0001
     78  N        -65.0320  -28.0260   38.2690 N.3   524  HIS524     -0.1241
     79  CA       -65.5360  -26.7090   38.6490 C.3   524  HIS524      0.1621
     80  C        -65.9980  -26.6850   40.0990 C.2   524  HIS524      0.2264
     81  O        -65.9180  -25.6420   40.7580 O.2   524  HIS524     -0.2867
     82  CB       -66.6780  -26.2860   37.7240 C.3   524  HIS524      0.0745
     83  CG       -66.2230  -25.7720   36.3940 C.ar  524  HIS524      0.0817
     84  ND1      -65.9230  -26.6040   35.3370 N.ar  524  HIS524     -0.2268
     85  CD2      -66.0170  -24.5100   35.9500 C.ar  524  HIS524      0.1154
     86  CE1      -65.5530  -25.8760   34.2980 C.ar  524  HIS524      0.1986
     87  NE2      -65.6010  -24.6020   34.6440 N.ar  524  HIS524     -0.2212
     88  N        -63.0060  -26.6940   42.2440 N.3   527  HIS527     -0.1241
     89  CA       -62.6440  -25.2830   42.3220 C.3   527  HIS527      0.1621
     90  C        -63.4690  -24.5700   43.3850 C.2   527  HIS527      0.2264
     91  O        -62.9220  -23.9730   44.3180 O.2   527  HIS527     -0.2867
     92  CB       -62.8320  -24.6180   40.9570 C.3   527  HIS527      0.0745
     93  CG       -61.9090  -25.1370   39.8990 C.ar  527  HIS527      0.0817
     94  ND1      -62.0130  -24.7690   38.5740 N.ar  527  HIS527     -0.2268
     95  CD2      -60.8630  -25.9930   39.9700 C.ar  527  HIS527      0.1154
     96  CE1      -61.0710  -25.3770   37.8750 C.ar  527  HIS527      0.1986
     97  NE2      -60.3600  -26.1270   38.6980 N.ar  527  HIS527     -0.2212
     98  N        -62.3540  -22.7190   46.6270 N.3   531  ILE531     -0.1245
     99  CA       -62.5880  -21.2800   46.6830 C.3   531  ILE531      0.1561
    100  C        -63.3120  -20.9040   47.9700 C.2   531  ILE531      0.2260
    101  O        -62.9410  -19.9410   48.6490 O.2   531  ILE531     -0.2867
    102  CB       -63.3710  -20.8110   45.4390 C.3   531  ILE531      0.0252
    103  CG1      -62.5090  -20.9380   44.1830 C.3   531  ILE531      0.0019
    104  CG2      -63.8580  -19.3800   45.6170 C.3   531  ILE531      0.0019
    105  CD1      -61.1230  -20.3680   44.3360 C.3   531  ILE531      0.0001
    106  N        -57.0200  -25.2540   39.4720 N.3   594  VAL594     -0.1245
    107  CA       -57.5160  -24.4770   38.3410 C.3   594  VAL594      0.1561
    108  C        -56.5250  -24.5140   37.1830 C.2   594  VAL594      0.2260
    109  O        -56.9200  -24.6550   36.0190 O.2   594  VAL594     -0.2867
    110  CB       -57.8310  -23.0330   38.7730 C.3   594  VAL594      0.0252
    111  CG1      -58.2080  -22.2010   37.5640 C.3   594  VAL594      0.0019
    112  CG2      -58.9590  -23.0190   39.7920 C.3   594  VAL594      0.0019
    113  N        -56.7860  -27.9180   35.6050 N.3   597  HIS597     -0.1226
    114  CA       -57.9990  -27.9900   34.8000 C.3   597  HIS597      0.1752
    115  C        -57.8130  -27.2920   33.4600 C.2   597  HIS597      0.2596
    116  O        -57.9650  -27.9050   32.3980 O.2   597  HIS597     -0.2718
    117  CB       -59.1590  -27.3680   35.5780 C.3   597  HIS597      0.0759
    118  CG       -60.4610  -27.3820   34.8430 C.ar  597  HIS597      0.0818
    119  ND1      -61.1140  -28.5480   34.5050 N.ar  597  HIS597     -0.2268
    120  CD2      -61.2370  -26.3710   34.3850 C.ar  597  HIS597      0.1154
    121  CE1      -62.2340  -28.2550   33.8690 C.ar  597  HIS597      0.1986
    122  NE2      -62.3320  -26.9410   33.7830 N.ar  597  HIS597     -0.2212
    123  N        -57.4790  -26.0000   33.4960 N.am  598  PHE598     -0.1976
    124  CA       -57.2780  -25.2290   32.2740 C.3   598  PHE598      0.1639
    125  C        -56.2660  -25.9010   31.3540 C.2   598  PHE598      0.2290
    126  O        -56.5800  -26.2430   30.2100 O.2   598  PHE598     -0.2864
    127  CB       -56.8260  -23.8090   32.6270 C.3   598  PHE598      0.0560
    128  CG       -56.2020  -23.0660   31.4790 C.ar  598  PHE598     -0.0200
    129  CD1      -56.9920  -22.4710   30.5110 C.ar  598  PHE598     -0.0042
    130  CD2      -54.8240  -22.9580   31.3710 C.ar  598  PHE598     -0.0042
    131  CE1      -56.4200  -21.7870   29.4560 C.ar  598  PHE598     -0.0003
    132  CE2      -54.2480  -22.2740   30.3190 C.ar  598  PHE598     -0.0003
    133  CZ       -55.0480  -21.6870   29.3610 C.ar  598  PHE598     -0.0000
    134  N        -57.2540  -29.7340   30.0900 N.3   601  LYS601     -0.1231
    135  CA       -58.4880  -29.7900   29.3120 C.3   601  LYS601      0.1693
    136  C        -58.3140  -29.1480   27.9420 C.2   601  LYS601      0.2591
    137  O        -58.9810  -29.5490   26.9800 O.2   601  LYS601     -0.2718
    138  CB       -59.6330  -29.1170   30.0700 C.3   601  LYS601      0.0285
    139  CG       -60.9660  -29.1700   29.3390 C.3   601  LYS601      0.0035
    140  CD       -62.0490  -28.3960   30.0670 C.3   601  LYS601      0.0206
    141  CE       -63.3410  -28.4010   29.2680 C.3   601  LYS601      0.1093
    142  NZ       -63.8210  -29.7860   28.9990 N.3   601  LYS601     -0.1314
    143  N        -57.4190  -28.1650   27.8300 N.am  602  MET602     -0.1979
    144  CA       -57.1330  -27.5290   26.5510 C.3   602  MET602      0.1605
    145  C        -56.7120  -28.5570   25.5080 C.2   602  MET602      0.2287
    146  O        -57.4310  -28.7810   24.5300 O.2   602  MET602     -0.2864
    147  CB       -56.0480  -26.4610   26.7070 C.3   602  MET602      0.0413
    148  CG       -56.5050  -25.1720   27.3780 C.3   602  MET602      0.0598
    149  SD       -58.0160  -24.4740   26.6840 S.3   602  MET602     -0.1393
    150  CE       -59.2120  -24.9210   27.9420 C.3   602  MET602      0.0692
@<TRIPOS>BOND
     1    53    54    2
     2    53    52    1
     3    51    52    1
     4    52    55    1
     5    55    56    1
     6    45    44    2
     7    62    63    1
     8    56    58   ar
     9    56    57   ar
    10    58    60   ar
    11    44    43    1
    12    63    64    1
    13    63    66    1
    14   146   145    2
    15    14    13    2
    16    64    65    2
    17    57    59   ar
    18    46    43    1
    19    46    47    1
    20    49    48    2
    21    67    66    1
    22    67    69    1
    23    60    61   ar
    24    43    42    1
    25    66    68    1
    26   145   144    1
    27    13    12    1
    28    48    47    1
    29    48    50   am
    30    59    61   ar
    31    12    11    1
    32    12    15    1
    33   144   147    1
    34   144   143    1
    35   149   148    1
    36   149   150    1
    37   147   148    1
    38    70    71    1
    39   137   136    2
    40    15    16    1
    41    73    72    2
    42    18    16   ar
    43    18    20   ar
    44   143   136   am
    45   136   135    1
    46    16    17   ar
    47    71    72    1
    48    71    74    1
    49    20    21   ar
    50   142   141    1
    51    74    75    1
    52    75    77    1
    53    75    76    1
    54   141   140    1
    55   135   138    1
    56   135   134    1
    57     4     3    2
    58   139   140    1
    59   139   138    1
    60   133   131   ar
    61   133   132   ar
    62   131   129   ar
    63    17    19   ar
    64    21    19   ar
    65    21    22    1
    66   126   125    2
    67   132   130   ar
    68     3     2    1
    69   129   128   ar
    70    23    24    1
    71   125   124    1
    72   130   128   ar
    73    27    24    1
    74    27    28    1
    75   128   127    1
    76     2     1    1
    77     2     5    1
    78    24    25    1
    79    29    28   ar
    80    29    31   ar
    81    28    30   ar
    82   124   127    1
    83   124   123    1
    84   116   115    2
    85     5     6    1
    86    31    33   ar
    87    30    32   ar
    88    25    26    2
    89   115   123   am
    90   115   114    1
    91     7     6   ar
    92     7     9   ar
    93     6     8   ar
    94   122   121   ar
    95   122   120   ar
    96    33    32   ar
    97   121   119   ar
    98    86    87   ar
    99    86    84   ar
   100   120   118   ar
   101   119   118   ar
   102    87    85   ar
   103   114   117    1
   104   114   113    1
   105     9    10   ar
   106   118   117    1
   107     8    10   ar
   108    84    83   ar
   109    85    83   ar
   110   109   108    2
   111    83    82    1
   112    34    35    1
   113    40    39    1
   114    40    41    1
   115   108   107    1
   116    38    39    1
   117    38    35    1
   118   111   110    1
   119    82    79    1
   120    96    94   ar
   121    96    97   ar
   122    35    36    1
   123    78    79    1
   124   107   110    1
   125   107   106    1
   126    94    93   ar
   127    79    80    1
   128    97    95   ar
   129   110   112    1
   130    36    37    2
   131    93    95   ar
   132    93    92    1
   133    80    81    2
   134    92    89    1
   135    88    89    1
   136    89    90    1
   137    90    91    2
   138   103   105    1
   139   103   102    1
   140   102   104    1
   141   102    99    1
   142    98    99    1
   143    99   100    1
   144   100   101    2
