@<TRIPOS>MOLECULE
tmp/6fosD11.pdb
 92 85 0 0 0
SMALL
GASTEIGER

@<TRIPOS>ATOM
      1  N        -59.5350    9.9880   43.0530 N.3   186  LEU186     -0.1245
      2  CA       -60.2810    9.2180   42.0640 C.3   186  LEU186      0.1561
      3  C        -60.6130   10.0360   40.8240 C.2   186  LEU186      0.2260
      4  O        -60.8620    9.4550   39.7630 O.2   186  LEU186     -0.2867
      5  CB       -61.5700    8.6580   42.6710 C.3   186  LEU186      0.0270
      6  CG       -61.4450    7.3540   43.4630 C.3   186  LEU186      0.0019
      7  CD1      -60.8800    7.6140   44.8450 C.3   186  LEU186      0.0001
      8  CD2      -62.7830    6.6320   43.5510 C.3   186  LEU186      0.0001
      9  N        -59.1420    7.7790   37.6500 N.3   190  LEU190     -0.1245
     10  CA       -60.1160    7.2950   36.6820 C.3   190  LEU190      0.1561
     11  C        -60.1590    8.1390   35.4160 C.2   190  LEU190      0.2260
     12  O        -60.7070    7.6880   34.4050 O.2   190  LEU190     -0.2867
     13  CB       -61.5140    7.2510   37.3080 C.3   190  LEU190      0.0270
     14  CG       -61.8820    6.0750   38.2190 C.3   190  LEU190      0.0019
     15  CD1      -61.1270    6.1190   39.5410 C.3   190  LEU190      0.0001
     16  CD2      -63.3850    6.0400   38.4590 C.3   190  LEU190      0.0001
     17  N        -56.5870    6.1170   34.0730 N.3   194  LEU194     -0.1245
     18  CA       -57.4420    5.2190   33.3050 C.3   194  LEU194      0.1561
     19  C        -57.9830    5.9030   32.0560 C.2   194  LEU194      0.2260
     20  O        -57.9790    5.3140   30.9680 O.2   194  LEU194     -0.2867
     21  CB       -58.5870    4.7100   34.1800 C.3   194  LEU194      0.0270
     22  CG       -58.2120    3.8210   35.3680 C.3   194  LEU194      0.0019
     23  CD1      -59.4540    3.4380   36.1590 C.3   194  LEU194      0.0001
     24  CD2      -57.4650    2.5820   34.9020 C.3   194  LEU194      0.0001
     25  N        -65.6630    6.5140   28.3240 N.3   292  LEU292     -0.1231
     26  CA       -66.3610    6.1060   29.5390 C.3   292  LEU292      0.1693
     27  C        -65.5810    6.5120   30.7840 C.2   292  LEU292      0.2592
     28  O        -66.1720    6.8950   31.8000 O.2   292  LEU292     -0.2718
     29  CB       -66.6050    4.5950   29.5170 C.3   292  LEU292      0.0284
     30  CG       -67.5190    3.9790   30.5820 C.3   292  LEU292      0.0019
     31  CD1      -68.2400    2.7670   30.0130 C.3   292  LEU292      0.0001
     32  CD2      -66.7450    3.5890   31.8380 C.3   292  LEU292      0.0001
     33  N        -64.2500    6.4340   30.7240 N.am  293  PHE293     -0.1976
     34  CA       -63.4320    6.8390   31.8610 C.3   293  PHE293      0.1639
     35  C        -63.2900    8.3530   31.9560 C.2   293  PHE293      0.2290
     36  O        -63.1060    8.8830   33.0580 O.2   293  PHE293     -0.2864
     37  CB       -62.0550    6.1800   31.7810 C.3   293  PHE293      0.0560
     38  CG       -62.0490    4.7440   32.2140 C.ar  293  PHE293     -0.0200
     39  CD1      -63.0800    4.2380   32.9900 C.ar  293  PHE293     -0.0042
     40  CD2      -61.0160    3.8990   31.8510 C.ar  293  PHE293     -0.0042
     41  CE1      -63.0790    2.9160   33.3940 C.ar  293  PHE293     -0.0003
     42  CE2      -61.0090    2.5770   32.2550 C.ar  293  PHE293     -0.0003
     43  CZ       -62.0430    2.0850   33.0260 C.ar  293  PHE293     -0.0000
     44  N        -66.5060    8.8500   33.8520 N.3   296  ALA296     -0.1245
     45  CA       -66.4610    8.3000   35.2020 C.3   296  ALA296      0.1562
     46  C        -65.3930    8.9470   36.0750 C.2   296  ALA296      0.2260
     47  O        -65.4210    8.7620   37.2970 O.2   296  ALA296     -0.2867
     48  CB       -66.2340    6.7880   35.1450 C.3   296  ALA296      0.0290
     49  N        -66.5630   12.5220   39.4070 N.3   299  MET299     -0.1230
     50  CA       -67.5980   12.0500   40.3150 C.3   299  MET299      0.1702
     51  C        -67.4490   12.5450   41.7460 C.2   299  MET299      0.2592
     52  O        -68.3320   12.2650   42.5630 O.2   299  MET299     -0.2718
     53  CB       -67.6320   10.5120   40.3270 C.3   299  MET299      0.0401
     54  CG       -68.3670    9.8900   39.1560 C.3   299  MET299      0.0596
     55  SD       -70.1370   10.2110   39.2370 S.3   299  MET299     -0.1393
     56  CE       -70.5430    9.4690   40.8160 C.3   299  MET299      0.0692
     57  N        -66.3810   13.2620   42.0830 N.am  300  TYR300     -0.1976
     58  CA       -66.1090   13.5880   43.4740 C.3   300  TYR300      0.1639
     59  C        -65.7150   15.0530   43.6040 C.2   300  TYR300      0.2290
     60  O        -65.3100   15.7000   42.6350 O.2   300  TYR300     -0.2864
     61  CB       -65.0240   12.6690   44.0450 C.3   300  TYR300      0.0560
     62  CG       -65.3790   11.2020   43.9480 C.ar  300  TYR300     -0.0198
     63  CD1      -66.2110   10.6060   44.8870 C.ar  300  TYR300     -0.0009
     64  CD2      -64.8940   10.4160   42.9120 C.ar  300  TYR300     -0.0009
     65  CE1      -66.5450    9.2680   44.8000 C.ar  300  TYR300      0.0417
     66  CE2      -65.2220    9.0780   42.8170 C.ar  300  TYR300      0.0417
     67  CZ       -66.0470    8.5080   43.7650 C.ar  300  TYR300      0.1957
     68  OH       -66.3760    7.1750   43.6760 O.3   300  TYR300     -0.2866
     69  N        -66.9900   10.4700   48.3930 N.3   310  ILE310     -0.1245
     70  CA       -67.0050    9.2070   49.1230 C.3   310  ILE310      0.1561
     71  C        -67.6300    9.3750   50.5040 C.2   310  ILE310      0.2260
     72  O        -68.1350    8.4060   51.0800 O.2   310  ILE310     -0.2867
     73  CB       -65.5720    8.6320   49.2140 C.3   310  ILE310      0.0252
     74  CG1      -64.9120    8.5980   47.8330 C.3   310  ILE310      0.0019
     75  CG2      -65.5780    7.2310   49.8030 C.3   310  ILE310      0.0019
     76  CD1      -63.9550    9.7450   47.5730 C.3   310  ILE310      0.0001
     77  N        -71.8130    9.8350   49.9260 N.3   313  ILE313     -0.1245
     78  CA       -72.2700    8.6480   49.2070 C.3   313  ILE313      0.1561
     79  C        -72.4800    7.4970   50.1820 C.2   313  ILE313      0.2260
     80  O        -73.5410    6.8620   50.2070 O.2   313  ILE313     -0.2867
     81  CB       -71.2720    8.2660   48.0990 C.3   313  ILE313      0.0252
     82  CG1      -71.3920    9.2160   46.9080 C.3   313  ILE313      0.0019
     83  CG2      -71.4920    6.8280   47.6510 C.3   313  ILE313      0.0019
     84  CD1      -70.4170    8.9010   45.7960 C.3   313  ILE313      0.0001
     85  N        -58.8980   -3.9400   49.8280 N.3   343  ILE343     -0.1245
     86  CA       -59.8620   -3.8320   48.7380 C.3   343  ILE343      0.1561
     87  C        -59.1380   -3.7370   47.4010 C.2   343  ILE343      0.2260
     88  O        -59.6320   -4.2360   46.3840 O.2   343  ILE343     -0.2867
     89  CB       -60.8180   -2.6420   48.9580 C.3   343  ILE343      0.0252
     90  CG1      -60.0660   -1.3120   48.9050 C.3   343  ILE343      0.0019
     91  CG2      -61.5550   -2.7880   50.2810 C.3   343  ILE343      0.0019
     92  CD1      -60.9670   -0.1030   48.9810 C.3   343  ILE343      0.0001
@<TRIPOS>BOND
     1    25    26    1
     2    29    26    1
     3    29    30    1
     4    26    27    1
     5    31    30    1
     6    30    32    1
     7    33    27   am
     8    33    34    1
     9    27    28    2
    10    20    19    2
    11    37    34    1
    12    37    38    1
    13    40    38   ar
    14    40    42   ar
    15    34    35    1
    16    35    36    2
    17    19    18    1
    18    38    39   ar
    19    42    43   ar
    20    39    41   ar
    21    43    41   ar
    22    18    17    1
    23    18    21    1
    24    44    45    1
    25    21    22    1
    26    12    11    2
    27    24    22    1
    28    48    45    1
    29    45    46    1
    30    22    23    1
    31    11    10    1
    32    46    47    2
    33    10    13    1
    34    10     9    1
    35    13    14    1
    36    14    16    1
    37    14    15    1
    38    54    55    1
    39    54    53    1
    40    55    56    1
    41    49    50    1
    42     4     3    2
    43    50    53    1
    44    50    51    1
    45     3     2    1
    46    51    57   am
    47    51    52    2
    48     2     5    1
    49     2     1    1
    50    57    58    1
    51    60    59    2
    52     5     6    1
    53    66    64   ar
    54    66    67   ar
    55    64    62   ar
    56     6     8    1
    57     6     7    1
    58    58    59    1
    59    58    61    1
    60    68    67    1
    61    67    65   ar
    62    62    61    1
    63    62    63   ar
    64    65    63   ar
    65    84    82    1
    66    88    87    2
    67    82    81    1
    68    87    86    1
    69    76    74    1
    70    83    81    1
    71    74    73    1
    72    81    78    1
    73    69    70    1
    74    86    89    1
    75    86    85    1
    76    90    89    1
    77    90    92    1
    78    89    91    1
    79    70    73    1
    80    70    71    1
    81    78    77    1
    82    78    79    1
    83    73    75    1
    84    79    80    2
    85    71    72    2
