@<TRIPOS>MOLECULE
tmp/6fosE28.pdb
 105 101 0 0 0
SMALL
GASTEIGER

@<TRIPOS>ATOM
      1  N        -59.6810  -40.4180   74.1930 N.3    15  TRP15      -0.1241
      2  CA       -58.4670  -40.6250   73.4070 C.3    15  TRP15       0.1605
      3  C        -57.3390  -41.1770   74.2710 C.2    15  TRP15       0.2264
      4  O        -56.7910  -42.2490   73.9880 O.2    15  TRP15      -0.2867
      5  CB       -58.0560  -39.3170   72.7310 C.3    15  TRP15       0.0550
      6  CG       -59.0740  -38.8260   71.7480 C.ar   15  TRP15       0.0003
      7  CD1      -59.9790  -37.8210   71.9350 C.ar   15  TRP15       0.0946
      8  CD2      -59.3050  -39.3320   70.4280 C.ar   15  TRP15       0.0152
      9  NE1      -60.7520  -37.6650   70.8100 N.ar   15  TRP15      -0.2442
     10  CE2      -60.3590  -38.5810   69.8700 C.ar   15  TRP15       0.0810
     11  CE3      -58.7200  -40.3450   69.6620 C.ar   15  TRP15       0.0012
     12  CZ2      -60.8400  -38.8110   68.5820 C.ar   15  TRP15       0.0191
     13  CZ3      -59.1990  -40.5720   68.3830 C.ar   15  TRP15       0.0001
     14  CH2      -60.2490  -39.8080   67.8570 C.ar   15  TRP15       0.0015
     15  N        -55.9670  -44.7280   47.4710 N.3   643  PHE643     -0.1241
     16  CA       -56.3980  -44.6510   48.8640 C.3   643  PHE643      0.1605
     17  C        -55.2230  -44.4020   49.8000 C.2   643  PHE643      0.2264
     18  O        -55.4020  -43.8470   50.8900 O.2   643  PHE643     -0.2867
     19  CB       -57.1310  -45.9370   49.2550 C.3   643  PHE643      0.0534
     20  CG       -57.4510  -46.0350   50.7210 C.ar  643  PHE643     -0.0203
     21  CD1      -58.5190  -45.3370   51.2580 C.ar  643  PHE643     -0.0042
     22  CD2      -56.6860  -46.8300   51.5600 C.ar  643  PHE643     -0.0042
     23  CE1      -58.8160  -45.4250   52.6060 C.ar  643  PHE643     -0.0003
     24  CE2      -56.9780  -46.9230   52.9090 C.ar  643  PHE643     -0.0003
     25  CZ       -58.0450  -46.2200   53.4320 C.ar  643  PHE643     -0.0000
     26  N        -54.3600  -40.7130   49.6570 N.3   646  LEU646     -0.1231
     27  CA       -55.3790  -40.0510   50.4610 C.3   646  LEU646      0.1693
     28  C        -54.9850  -40.0450   51.9340 C.2   646  LEU646      0.2591
     29  O        -54.8340  -38.9800   52.5450 O.2   646  LEU646     -0.2718
     30  CB       -56.7280  -40.7460   50.2620 C.3   646  LEU646      0.0284
     31  CG       -57.9410  -40.1490   50.9750 C.3   646  LEU646      0.0019
     32  CD1      -58.2090  -38.7380   50.4790 C.3   646  LEU646      0.0001
     33  CD2      -59.1610  -41.0340   50.7740 C.3   646  LEU646      0.0001
     34  N        -54.7980  -41.2350   52.5150 N.am  647  VAL647     -0.1980
     35  CA       -54.4860  -41.3450   53.9390 C.3   647  VAL647      0.1595
     36  C        -53.1970  -40.6050   54.2710 C.2   647  VAL647      0.2287
     37  O        -53.1090  -39.9080   55.2900 O.2   647  VAL647     -0.2864
     38  CB       -54.4040  -42.8260   54.3540 C.3   647  VAL647      0.0276
     39  CG1      -54.0050  -42.9460   55.8160 C.3   647  VAL647      0.0022
     40  CG2      -55.7300  -43.5230   54.1010 C.3   647  VAL647      0.0022
     41  N        -53.9480  -37.1350   54.1420 N.3   650  THR650     -0.1218
     42  CA       -54.8340  -36.8670   55.2710 C.3   650  THR650      0.1862
     43  C        -54.0340  -36.4860   56.5100 C.2   650  THR650      0.2287
     44  O        -54.4370  -35.5980   57.2710 O.2   650  THR650     -0.2866
     45  CB       -55.7120  -38.0870   55.5600 C.3   650  THR650      0.1770
     46  OG1      -56.4300  -38.4560   54.3760 O.3   650  THR650     -0.2211
     47  CG2      -56.7040  -37.7850   56.6770 C.3   650  THR650      0.0375
     48  N        -53.1280  -32.8430   57.1860 N.3   653  MET653     -0.1230
     49  CA       -54.0580  -31.9610   57.8840 C.3   653  MET653      0.1702
     50  C        -53.6930  -31.8340   59.3580 C.2   653  MET653      0.2592
     51  O        -53.7500  -30.7370   59.9260 O.2   653  MET653     -0.2718
     52  CB       -55.4910  -32.4730   57.7360 C.3   653  MET653      0.0401
     53  CG       -56.5120  -31.6600   58.5220 C.3   653  MET653      0.0596
     54  SD       -58.0490  -32.5400   58.8590 S.3   653  MET653     -0.1393
     55  CE       -58.7390  -32.6670   57.2150 C.3   653  MET653      0.0692
     56  N        -53.3110  -32.9440   59.9910 N.am  654  PHE654     -0.1976
     57  CA       -53.0060  -32.9390   61.4170 C.3   654  PHE654      0.1639
     58  C        -51.6110  -32.4130   61.7250 C.2   654  PHE654      0.2290
     59  O        -51.3370  -32.0660   62.8790 O.2   654  PHE654     -0.2864
     60  CB       -53.1440  -34.3510   61.9960 C.3   654  PHE654      0.0560
     61  CG       -54.5270  -34.9310   61.8810 C.ar  654  PHE654     -0.0200
     62  CD1      -55.6320  -34.1130   61.7120 C.ar  654  PHE654     -0.0042
     63  CD2      -54.7210  -36.3010   61.9510 C.ar  654  PHE654     -0.0042
     64  CE1      -56.9020  -34.6510   61.6080 C.ar  654  PHE654     -0.0003
     65  CE2      -55.9870  -36.8430   61.8490 C.ar  654  PHE654     -0.0003
     66  CZ       -57.0780  -36.0170   61.6770 C.ar  654  PHE654     -0.0000
     67  N        -58.1300  -32.4410   69.3800 N.3   691  LEU691     -0.1245
     68  CA       -57.1590  -33.4060   69.8760 C.3   691  LEU691      0.1561
     69  C        -56.0850  -32.7140   70.7070 C.2   691  LEU691      0.2260
     70  O        -55.7710  -31.5380   70.5040 O.2   691  LEU691     -0.2867
     71  CB       -56.5110  -34.1650   68.7160 C.3   691  LEU691      0.0270
     72  CG       -57.1970  -35.4390   68.2150 C.3   691  LEU691      0.0019
     73  CD1      -58.5620  -35.1400   67.6160 C.3   691  LEU691      0.0001
     74  CD2      -56.3130  -36.1570   67.2060 C.3   691  LEU691      0.0001
     75  N        -51.7930  -39.0750   66.3410 N.3   699  VAL699     -0.1245
     76  CA       -52.7800  -39.5240   65.3640 C.3   699  VAL699      0.1561
     77  C        -52.3480  -39.1410   63.9540 C.2   699  VAL699      0.2260
     78  O        -52.5060  -39.9220   63.0070 O.2   699  VAL699     -0.2867
     79  CB       -54.1690  -38.9570   65.7110 C.3   699  VAL699      0.0252
     80  CG1      -55.1740  -39.3050   64.6290 C.3   699  VAL699      0.0019
     81  CG2      -54.6330  -39.4940   67.0540 C.3   699  VAL699      0.0019
     82  N        -49.8730  -41.5490   62.9580 N.3   702  VAL702     -0.1231
     83  CA       -50.5520  -42.7710   62.5360 C.3   702  VAL702      0.1692
     84  C        -50.9440  -42.6770   61.0680 C.2   702  VAL702      0.2592
     85  O        -50.7590  -43.6280   60.2990 O.2   702  VAL702     -0.2718
     86  CB       -51.7740  -43.0460   63.4340 C.3   702  VAL702      0.0266
     87  CG1      -52.6100  -44.1830   62.8650 C.3   702  VAL702      0.0020
     88  CG2      -51.3310  -43.3710   64.8510 C.3   702  VAL702      0.0020
     89  N        -51.4670  -41.5220   60.6500 N.am  703  HIS703     -0.1976
     90  CA       -51.8470  -41.3390   59.2530 C.3   703  HIS703      0.1656
     91  C        -50.6210  -41.2720   58.3520 C.2   703  HIS703      0.2291
     92  O        -50.5720  -41.9280   57.3050 O.2   703  HIS703     -0.2864
     93  CB       -52.6920  -40.0760   59.1000 C.3   703  HIS703      0.0771
     94  CG       -54.0400  -40.1750   59.7380 C.ar  703  HIS703      0.0820
     95  ND1      -54.2390  -39.9980   61.0900 N.ar  703  HIS703     -0.2267
     96  CD2      -55.2560  -40.4430   59.2090 C.ar  703  HIS703      0.1154
     97  CE1      -55.5220  -40.1490   61.3650 C.ar  703  HIS703      0.1986
     98  NE2      -56.1610  -40.4180   60.2410 N.ar  703  HIS703     -0.2212
     99  N        -49.3660  -45.1030   58.1560 N.3   706  VAL706     -0.1245
    100  CA       -50.1530  -46.1010   57.4330 C.3   706  VAL706      0.1561
    101  C        -50.4130  -45.6660   55.9950 C.2   706  VAL706      0.2260
    102  O        -50.5010  -46.5100   55.0950 O.2   706  VAL706     -0.2867
    103  CB       -51.4670  -46.4070   58.1780 C.3   706  VAL706      0.0252
    104  CG1      -51.1790  -46.8610   59.6020 C.3   706  VAL706      0.0019
    105  CG2      -52.4010  -45.2050   58.1690 C.3   706  VAL706      0.0019
@<TRIPOS>BOND
     1    15    16    1
     2    16    19    1
     3    16    17    1
     4    19    20    1
     5    26    27    1
     6    17    18    2
     7    30    27    1
     8    30    31    1
     9    27    28    1
    10    32    31    1
    11    20    21   ar
    12    20    22   ar
    13    33    31    1
    14    21    23   ar
    15    22    24   ar
    16    28    34   am
    17    28    29    2
    18    34    35    1
    19    23    25   ar
    20    24    25   ar
    21    35    36    1
    22    35    38    1
    23    40    38    1
    24    41    42    1
    25    36    37    2
    26    38    39    1
    27    46    45    1
    28   102   101    2
    29    42    45    1
    30    42    43    1
    31    45    47    1
    32   101   100    1
    33    43    44    2
    34    48    49    1
    35    55    54    1
    36    92    91    2
    37   100    99    1
    38   100   103    1
    39    52    49    1
    40    52    53    1
    41    49    50    1
    42   105   103    1
    43   103   104    1
    44    91    90    1
    45    53    54    1
    46    93    90    1
    47    93    94    1
    48    96    94   ar
    49    96    98   ar
    50    90    89    1
    51    50    51    2
    52    50    56   am
    53    94    95   ar
    54    56    57    1
    55    98    97   ar
    56    85    84    2
    57    89    84   am
    58    84    83    1
    59    95    97   ar
    60    57    58    1
    61    57    60    1
    62    64    66   ar
    63    64    62   ar
    64    66    65   ar
    65    62    61   ar
    66    58    59    2
    67    65    63   ar
    68    61    63   ar
    69    61    60    1
    70    83    82    1
    71    83    86    1
    72    87    86    1
    73    78    77    2
    74    86    88    1
    75    77    76    1
    76    80    79    1
    77    76    79    1
    78    76    75    1
    79    79    81    1
    80    74    72    1
    81    73    72    1
    82    14    13   ar
    83    14    12   ar
    84    72    71    1
    85    13    11   ar
    86    12    10   ar
    87    71    68    1
    88    67    68    1
    89    11     8   ar
    90    10     8   ar
    91    10     9   ar
    92    68    69    1
    93     8     6   ar
    94    70    69    2
    95     9     7   ar
    96     6     7   ar
    97     6     5    1
    98     5     2    1
    99     2     1    1
   100     2     3    1
   101     4     3    2
