@<TRIPOS>MOLECULE
tmp/6fosD05.pdb
 122 115 0 0 0
SMALL
GASTEIGER

@<TRIPOS>ATOM
      1  N        -57.1090    6.4040   26.3370 N.3   199  LEU199     -0.1245
      2  CA       -57.2000    7.2510   25.1550 C.3   199  LEU199      0.1561
      3  C        -55.8680    7.3650   24.4240 C.2   199  LEU199      0.2260
      4  O        -55.8430    7.4100   23.1890 O.2   199  LEU199     -0.2867
      5  CB       -57.7000    8.6470   25.5410 C.3   199  LEU199      0.0270
      6  CG       -57.8950    9.6340   24.3880 C.3   199  LEU199      0.0019
      7  CD1      -58.8790    9.0800   23.3670 C.3   199  LEU199      0.0001
      8  CD2      -58.3570   10.9870   24.9060 C.3   199  LEU199      0.0001
      9  N        -55.3040    4.2080   22.6380 N.3   202  ALA202     -0.1231
     10  CA       -56.3000    4.1290   21.5740 C.3   202  ALA202      0.1694
     11  C        -55.8470    4.9080   20.3470 C.2   202  ALA202      0.2592
     12  O        -55.9460    4.4190   19.2160 O.2   202  ALA202     -0.2718
     13  CB       -57.6500    4.6460   22.0730 C.3   202  ALA202      0.0304
     14  N        -55.3410    6.1250   20.5510 N.am  203  GLY203     -0.1957
     15  CA       -54.8150    6.9120   19.4510 C.3   203  GLY203      0.1869
     16  C        -53.5610    6.3480   18.8180 C.2   203  GLY203      0.2309
     17  O        -53.1620    6.8210   17.7480 O.2   203  GLY203     -0.2863
     18  N        -54.5120    3.1980   16.1400 N.3   206  ILE206     -0.1231
     19  CA       -55.2580    3.6330   14.9640 C.3   206  ILE206      0.1692
     20  C        -54.3140    4.0090   13.8290 C.2   206  ILE206      0.2592
     21  O        -54.6090    3.7590   12.6570 O.2   206  ILE206     -0.2718
     22  CB       -56.1960    4.8000   15.3370 C.3   206  ILE206      0.0266
     23  CG1      -57.2520    4.3360   16.3420 C.3   206  ILE206      0.0019
     24  CG2      -56.8680    5.3740   14.0980 C.3   206  ILE206      0.0020
     25  CD1      -58.1890    5.4340   16.7980 C.3   206  ILE206      0.0001
     26  N        -53.1600    4.5910   14.1590 N.am  207  HIS207     -0.1976
     27  CA       -52.1560    4.9580   13.1700 C.3   207  HIS207      0.1656
     28  C        -51.0100    3.9570   13.0750 C.2   207  HIS207      0.2291
     29  O        -50.1840    4.0730   12.1640 O.2   207  HIS207     -0.2864
     30  CB       -51.5900    6.3490   13.4810 C.3   207  HIS207      0.0771
     31  CG       -52.6090    7.4430   13.4180 C.ar  207  HIS207      0.0820
     32  ND1      -53.4670    7.7240   14.4600 N.ar  207  HIS207     -0.2267
     33  CD2      -52.9100    8.3250   12.4350 C.ar  207  HIS207      0.1154
     34  CE1      -54.2500    8.7330   14.1230 C.ar  207  HIS207      0.1986
     35  NE2      -53.9330    9.1160   12.8990 N.ar  207  HIS207     -0.2212
     36  N        -47.9610    9.2200    8.5220 N.3   232  ILE232     -0.1245
     37  CA       -48.5040   10.4240    9.1440 C.3   232  ILE232      0.1561
     38  C        -48.1160   11.6750    8.3650 C.2   232  ILE232      0.2260
     39  O        -48.9330   12.5830    8.1950 O.2   232  ILE232     -0.2867
     40  CB       -48.0450   10.5060   10.6130 C.3   232  ILE232      0.0252
     41  CG1      -48.4660    9.2460   11.3720 C.3   232  ILE232      0.0019
     42  CG2      -48.6170   11.7450   11.2830 C.3   232  ILE232      0.0019
     43  CD1      -48.0170    9.2250   12.8170 C.3   232  ILE232      0.0001
     44  N        -51.0460   12.0890    4.7240 N.3   235  ARG235     -0.1245
     45  CA       -52.3600   11.5830    5.1060 C.3   235  ARG235      0.1563
     46  C        -52.9930   10.7250    4.0190 C.2   235  ARG235      0.2260
     47  O        -53.8570    9.8960    4.3250 O.2   235  ARG235     -0.2867
     48  CB       -53.2950   12.7450    5.4490 C.3   235  ARG235      0.0307
     49  CG       -52.8940   13.5310    6.6860 C.3   235  ARG235      0.0489
     50  CD       -53.9100   14.6210    6.9950 C.3   235  ARG235      0.2205
     51  NE       -53.6120   15.3170    8.2430 N.pl3 235  ARG235     -0.0865
     52  CZ       -54.3390   16.3150    8.7350 C.cat 235  ARG235      0.5346
     53  NH1      -55.4130   16.7410    8.0840 N.pl3 235  ARG235      0.1354
     54  NH2      -53.9920   16.8900    9.8790 N.pl3 235  ARG235      0.1354
     55  N        -61.2910    6.1530    4.8820 N.3   244  SER244     -0.1202
     56  CA       -61.9430    7.0740    5.8010 C.3   244  SER244      0.2020
     57  C        -61.0310    8.1950    6.2760 C.2   244  SER244      0.2618
     58  O        -61.5200    9.1460    6.8950 O.2   244  SER244     -0.2717
     59  CB       -62.4830    6.3160    7.0230 C.3   244  SER244      0.2103
     60  OG       -63.1020    7.2020    7.9380 O.3   244  SER244     -0.2182
     61  N        -59.7290    8.1140    6.0020 N.am  245  PHE245     -0.1975
     62  CA       -58.7800    9.1070    6.4870 C.3   245  PHE245      0.1639
     63  C        -58.7200   10.3540    5.6130 C.2   245  PHE245      0.2290
     64  O        -58.1020   11.3430    6.0210 O.2   245  PHE245     -0.2864
     65  CB       -57.3850    8.4820    6.5980 C.3   245  PHE245      0.0560
     66  CG       -56.4760    9.1890    7.5640 C.ar  245  PHE245     -0.0200
     67  CD1      -56.5610    8.9380    8.9230 C.ar  245  PHE245     -0.0042
     68  CD2      -55.5330   10.0970    7.1130 C.ar  245  PHE245     -0.0042
     69  CE1      -55.7260    9.5850    9.8160 C.ar  245  PHE245     -0.0003
     70  CE2      -54.6950   10.7460    8.0000 C.ar  245  PHE245     -0.0003
     71  CZ       -54.7910   10.4900    9.3530 C.ar  245  PHE245     -0.0000
     72  N        -60.2240   13.4820    7.7160 N.3   248  GLY248     -0.1210
     73  CA       -59.3150   14.0780    8.6760 C.3   248  GLY248      0.1956
     74  C        -59.9890   14.9760    9.6930 C.2   248  GLY248      0.2611
     75  O        -59.7730   16.1920    9.6930 O.2   248  GLY248     -0.2717
     76  N        -60.8110   14.3830   10.5590 N.am  249  LEU249     -0.1979
     77  CA       -61.4780   15.0910   11.6530 C.3   249  LEU249      0.1596
     78  C        -62.3670   16.2200   11.1260 C.2   249  LEU249      0.2287
     79  O        -62.2390   17.3850   11.5100 O.2   249  LEU249     -0.2864
     80  CB       -60.4550   15.6160   12.6670 C.3   249  LEU249      0.0297
     81  CG       -59.5960   14.5610   13.3670 C.3   249  LEU249      0.0022
     82  CD1      -58.5820   15.2220   14.2860 C.3   249  LEU249      0.0001
     83  CD2      -60.4700   13.5860   14.1400 C.3   249  LEU249      0.0001
     84  N        -66.1000   14.2160   12.4120 N.3   252  PHE252     -0.1241
     85  CA       -66.0300   14.0540   13.8600 C.3   252  PHE252      0.1605
     86  C        -66.8040   15.1590   14.5690 C.2   252  PHE252      0.2264
     87  O        -67.4480   14.9170   15.5960 O.2   252  PHE252     -0.2867
     88  CB       -64.5670   14.0390   14.3080 C.3   252  PHE252      0.0534
     89  CG       -64.3810   13.7890   15.7770 C.ar  252  PHE252     -0.0203
     90  CD1      -64.3420   12.4970   16.2730 C.ar  252  PHE252     -0.0042
     91  CD2      -64.2310   14.8450   16.6600 C.ar  252  PHE252     -0.0042
     92  CE1      -64.1660   12.2630   17.6240 C.ar  252  PHE252     -0.0003
     93  CE2      -64.0560   14.6190   18.0120 C.ar  252  PHE252     -0.0003
     94  CZ       -64.0230   13.3250   18.4950 C.ar  252  PHE252     -0.0000
     95  N        -66.2720    7.0600    9.9010 N.3   260  TYR260     -0.1241
     96  CA       -65.0540    6.5250   10.5080 C.3   260  TYR260      0.1605
     97  C        -65.1450    5.0190   10.7190 C.2   260  TYR260      0.2264
     98  O        -64.6160    4.4880   11.6990 O.2   260  TYR260     -0.2867
     99  CB       -64.7650    7.2250   11.8330 C.3   260  TYR260      0.0534
    100  CG       -64.4960    8.7080   11.7180 C.ar  260  TYR260     -0.0201
    101  CD1      -63.2770    9.1780   11.2470 C.ar  260  TYR260     -0.0009
    102  CD2      -65.4550    9.6380   12.0960 C.ar  260  TYR260     -0.0009
    103  CE1      -63.0250   10.5320   11.1450 C.ar  260  TYR260      0.0417
    104  CE2      -65.2110   10.9940   12.0000 C.ar  260  TYR260      0.0417
    105  CZ       -63.9950   11.4350   11.5230 C.ar  260  TYR260      0.1957
    106  OH       -63.7470   12.7840   11.4240 O.3   260  TYR260     -0.2866
    107  N        -62.9290    1.7690   13.0450 N.3   264  LEU264     -0.1245
    108  CA       -63.7860    1.6410   14.2210 C.3   264  LEU264      0.1561
    109  C        -64.9410    0.7050   13.8770 C.2   264  LEU264      0.2260
    110  O        -65.9000    1.1040   13.2110 O.2   264  LEU264     -0.2867
    111  CB       -64.2890    3.0100   14.6670 C.3   264  LEU264      0.0270
    112  CG       -63.2130    4.0550   14.9680 C.3   264  LEU264      0.0019
    113  CD1      -63.8440    5.4100   15.2450 C.3   264  LEU264      0.0001
    114  CD2      -62.3460    3.6150   16.1370 C.3   264  LEU264      0.0001
    115  N        -61.1040    3.2410   22.5330 N.3   287  LEU287     -0.1245
    116  CA       -61.7980    4.5170   22.3940 C.3   287  LEU287      0.1561
    117  C        -63.0710    4.5310   23.2300 C.2   287  LEU287      0.2260
    118  O        -63.3740    5.5250   23.9010 O.2   287  LEU287     -0.2867
    119  CB       -62.1140    4.7830   20.9220 C.3   287  LEU287      0.0270
    120  CG       -62.7570    6.1230   20.5610 C.3   287  LEU287      0.0019
    121  CD1      -61.8640    7.2800   20.9820 C.3   287  LEU287      0.0001
    122  CD2      -63.0500    6.1840   19.0690 C.3   287  LEU287      0.0001
@<TRIPOS>BOND
     1    46    47    2
     2    46    45    1
     3    44    45    1
     4    55    56    1
     5    45    48    1
     6    48    49    1
     7    63    64    2
     8    63    62    1
     9    56    57    1
    10    56    59    1
    11    61    57   am
    12    61    62    1
    13    57    58    2
    14    62    65    1
    15    65    66    1
    16    49    50    1
    17    50    51    1
    18    59    60    1
    19    68    66   ar
    20    68    70   ar
    21    66    67   ar
    22    72    73    1
    23    70    71   ar
    24    53    52    1
    25    39    38    2
    26    51    52    2
    27    38    37    1
    28    36    37    1
    29    73    74    1
    30    52    54    1
    31    67    69   ar
    32    37    40    1
    33    71    69   ar
    34    74    75    2
    35    74    76   am
    36    95    96    1
    37    96    97    1
    38    96    99    1
    39    76    77    1
    40    40    42    1
    41    40    41    1
    42    97    98    2
    43    78    79    2
    44    78    77    1
    45   103   101   ar
    46   103   105   ar
    47   101   100   ar
    48    41    43    1
    49   106   105    1
    50   105   104   ar
    51    77    80    1
    52   100    99    1
    53   100   102   ar
    54   104   102   ar
    55    29    28    2
    56    84    85    1
    57    33    35   ar
    58    33    31   ar
    59    21    20    2
    60    80    81    1
    61    35    34   ar
    62   107   108    1
    63    28    27    1
    64    27    30    1
    65    27    26    1
    66   110   109    2
    67    81    83    1
    68    81    82    1
    69    31    30    1
    70    31    32   ar
    71    20    26   am
    72    20    19    1
    73    85    88    1
    74    85    86    1
    75   109   108    1
    76    24    22    1
    77    34    32   ar
    78   108   111    1
    79    88    89    1
    80    86    87    2
    81   111   112    1
    82    19    22    1
    83    19    18    1
    84   112   113    1
    85   112   114    1
    86    22    23    1
    87    89    90   ar
    88    89    91   ar
    89    90    92   ar
    90    23    25    1
    91    91    93   ar
    92    92    94   ar
    93    17    16    2
    94    93    94   ar
    95    16    15    1
    96   122   120    1
    97    12    11    2
    98    15    14    1
    99    11    14   am
   100    11    10    1
   101   120   119    1
   102   120   121    1
   103   119   116    1
   104    10    13    1
   105    10     9    1
   106   116   115    1
   107   116   117    1
   108     4     3    2
   109   117   118    2
   110     7     6    1
   111     6     8    1
   112     6     5    1
   113     3     2    1
   114     2     5    1
   115     2     1    1
