@<TRIPOS>MOLECULE
tmp/6fosE36.pdb
 160 159 0 0 0
SMALL
GASTEIGER

@<TRIPOS>ATOM
      1  N        -39.1110  -52.8910   57.7990 N.3   368  TYR368     -0.1241
      2  CA       -39.8670  -51.8420   58.4770 C.3   368  TYR368      0.1605
      3  C        -40.0800  -52.1760   59.9490 C.2   368  TYR368      0.2264
      4  O        -40.0280  -51.2860   60.8060 O.2   368  TYR368     -0.2867
      5  CB       -41.2120  -51.6230   57.7850 C.3   368  TYR368      0.0534
      6  CG       -41.1580  -50.7860   56.5230 C.ar  368  TYR368     -0.0201
      7  CD1      -40.0100  -50.7330   55.7430 C.ar  368  TYR368     -0.0009
      8  CD2      -42.2580  -50.0400   56.1180 C.ar  368  TYR368     -0.0009
      9  CE1      -39.9650  -49.9680   54.5910 C.ar  368  TYR368      0.0417
     10  CE2      -42.2190  -49.2710   54.9710 C.ar  368  TYR368      0.0417
     11  CZ       -41.0710  -49.2380   54.2110 C.ar  368  TYR368      0.1957
     12  OH       -41.0270  -48.4750   53.0670 O.3   368  TYR368     -0.2866
     13  N        -38.4840  -42.6660   55.8910 N.3   576  ASN576     -0.1240
     14  CA       -37.7790  -42.2760   54.6740 C.3   576  ASN576      0.1653
     15  C        -36.4510  -43.0090   54.5230 C.2   576  ASN576      0.2266
     16  O        -36.0940  -43.4180   53.4120 O.2   576  ASN576     -0.2867
     17  CB       -37.5520  -40.7650   54.6490 C.3   576  ASN576      0.1155
     18  CG       -37.4110  -40.2240   53.2390 C.2   576  ASN576      0.2627
     19  OD1      -37.5360  -39.0240   53.0090 O.2   576  ASN576     -0.2716
     20  ND2      -37.1680  -41.1130   52.2830 N.am  576  ASN576     -0.0877
     21  N        -37.1220  -46.3980   53.6680 N.3   579  GLY579     -0.1225
     22  CA       -37.6000  -46.4090   52.2970 C.3   579  GLY579      0.1811
     23  C        -36.4950  -46.2170   51.2820 C.2   579  GLY579      0.2280
     24  O        -36.5990  -46.7060   50.1530 O.2   579  GLY579     -0.2866
     25  N        -35.9800  -48.6170   48.2030 N.3   583  PHE583     -0.1241
     26  CA       -35.8880  -48.0990   46.8410 C.3   583  PHE583      0.1605
     27  C        -34.6150  -48.5830   46.1600 C.2   583  PHE583      0.2264
     28  O        -34.6080  -48.8540   44.9530 O.2   583  PHE583     -0.2867
     29  CB       -35.9350  -46.5700   46.8480 C.3   583  PHE583      0.0534
     30  CG       -37.2710  -45.9990   47.2290 C.ar  583  PHE583     -0.0203
     31  CD1      -38.4170  -46.7770   47.1830 C.ar  583  PHE583     -0.0042
     32  CD2      -37.3810  -44.6770   47.6290 C.ar  583  PHE583     -0.0042
     33  CE1      -39.6450  -46.2460   47.5330 C.ar  583  PHE583     -0.0003
     34  CE2      -38.6060  -44.1420   47.9800 C.ar  583  PHE583     -0.0003
     35  CZ       -39.7390  -44.9280   47.9310 C.ar  583  PHE583     -0.0000
     36  N        -37.9630  -45.8180   37.4320 N.3   614  TYR614     -0.1227
     37  CA       -38.5940  -46.4910   38.5620 C.3   614  TYR614      0.1736
     38  C        -39.9540  -45.8940   38.8950 C.2   614  TYR614      0.2595
     39  O        -40.9700  -46.5870   38.7830 O.2   614  TYR614     -0.2718
     40  CB       -37.6740  -46.4410   39.7870 C.3   614  TYR614      0.0548
     41  CG       -38.2310  -47.1570   40.9960 C.ar  614  TYR614     -0.0200
     42  CD1      -38.2030  -48.5420   41.0810 C.ar  614  TYR614     -0.0009
     43  CD2      -38.7840  -46.4480   42.0540 C.ar  614  TYR614     -0.0009
     44  CE1      -38.7130  -49.2010   42.1830 C.ar  614  TYR614      0.0417
     45  CE2      -39.2950  -47.0980   43.1610 C.ar  614  TYR614      0.0417
     46  CZ       -39.2570  -48.4750   43.2200 C.ar  614  TYR614      0.1957
     47  OH       -39.7640  -49.1280   44.3200 O.3   614  TYR614     -0.2866
     48  N        -40.0050  -44.6260   39.3010 N.am  615  LEU615     -0.1966
     49  CA       -41.2630  -43.9930   39.6740 C.3   615  LEU615      0.1728
     50  C        -42.1960  -43.7730   38.4890 C.2   615  LEU615      0.2616
     51  O        -43.3310  -43.3300   38.6970 O.2   615  LEU615     -0.2715
     52  CB       -40.9860  -42.6570   40.3670 C.3   615  LEU615      0.0311
     53  CG       -40.0450  -42.6430   41.5750 C.3   615  LEU615      0.0022
     54  CD1      -39.8300  -41.2210   42.0650 C.3   615  LEU615      0.0001
     55  CD2      -40.5780  -43.5110   42.6990 C.3   615  LEU615      0.0001
     56  N        -41.7600  -44.0690   37.2650 N.am  616  TRP616     -0.1974
     57  CA       -42.5740  -43.8510   36.0760 C.3   616  TRP616      0.1640
     58  C        -42.7530  -45.1100   35.2440 C.2   616  TRP616      0.2290
     59  O        -43.8910  -45.4890   34.9400 O.2   616  TRP616     -0.2864
     60  CB       -41.9550  -42.7390   35.2130 C.3   616  TRP616      0.0576
     61  CG       -42.7300  -42.4530   33.9630 C.ar  616  TRP616      0.0006
     62  CD1      -43.8960  -41.7530   33.8660 C.ar  616  TRP616      0.0946
     63  CD2      -42.3910  -42.8540   32.6290 C.ar  616  TRP616      0.0152
     64  NE1      -44.3070  -41.6940   32.5570 N.ar  616  TRP616     -0.2442
     65  CE2      -43.4000  -42.3620   31.7770 C.ar  616  TRP616      0.0810
     66  CE3      -41.3330  -43.5800   32.0720 C.ar  616  TRP616      0.0012
     67  CZ2      -43.3830  -42.5740   30.3990 C.ar  616  TRP616      0.0191
     68  CZ3      -41.3180  -43.7890   30.7040 C.ar  616  TRP616      0.0001
     69  CH2      -42.3370  -43.2880   29.8830 C.ar  616  TRP616      0.0015
     70  N        -44.2960  -48.1560   37.1820 N.3   619  SER619     -0.1217
     71  CA       -45.6560  -47.8770   37.6200 C.3   619  SER619      0.1889
     72  C        -46.6730  -47.9590   36.4880 C.2   619  SER619      0.2288
     73  O        -47.8400  -47.6150   36.6980 O.2   619  SER619     -0.2866
     74  CB       -45.7260  -46.4970   38.2780 C.3   619  SER619      0.2089
     75  OG       -45.3920  -45.4740   37.3560 O.3   619  SER619     -0.2183
     76  N        -50.7210  -48.2970   37.5220 N.3   623  ILE623     -0.1245
     77  CA       -51.8100  -47.3710   37.2290 C.3   623  ILE623      0.1561
     78  C        -52.7810  -47.9670   36.2180 C.2   623  ILE623      0.2260
     79  O        -53.9680  -47.6200   36.2110 O.2   623  ILE623     -0.2867
     80  CB       -51.2520  -46.0230   36.7390 C.3   623  ILE623      0.0252
     81  CG1      -50.4510  -46.2150   35.4500 C.3   623  ILE623      0.0019
     82  CG2      -50.3930  -45.3810   37.8160 C.3   623  ILE623      0.0019
     83  CD1      -49.9900  -44.9260   34.8260 C.3   623  ILE623      0.0001
     84  N        -53.2480  -47.8170   45.9630 N.3   641  PHE641     -0.1241
     85  CA       -52.2350  -46.7930   45.7270 C.3   641  PHE641      0.1605
     86  C        -52.8310  -45.3920   45.7820 C.2   641  PHE641      0.2264
     87  O        -52.1620  -44.4490   46.2190 O.2   641  PHE641     -0.2867
     88  CB       -51.5560  -47.0400   44.3780 C.3   641  PHE641      0.0534
     89  CG       -50.3580  -46.1680   44.1270 C.ar  641  PHE641     -0.0203
     90  CD1      -49.1440  -46.4440   44.7340 C.ar  641  PHE641     -0.0042
     91  CD2      -50.4410  -45.0840   43.2690 C.ar  641  PHE641     -0.0042
     92  CE1      -48.0380  -45.6470   44.5000 C.ar  641  PHE641     -0.0003
     93  CE2      -49.3380  -44.2840   43.0300 C.ar  641  PHE641     -0.0003
     94  CZ       -48.1350  -44.5670   43.6460 C.ar  641  PHE641     -0.0000
     95  N        -52.3400  -42.4470   48.9580 N.3   645  HIS645     -0.1241
     96  CA       -52.0730  -41.0170   48.8400 C.3   645  HIS645      0.1621
     97  C        -53.1480  -40.1760   49.5120 C.2   645  HIS645      0.2264
     98  O        -52.8770  -39.0350   49.8990 O.2   645  HIS645     -0.2867
     99  CB       -51.9420  -40.6190   47.3680 C.3   645  HIS645      0.0745
    100  CG       -50.6940  -41.1230   46.7150 C.ar  645  HIS645      0.0817
    101  ND1      -49.4350  -40.7210   47.1060 N.ar  645  HIS645     -0.2268
    102  CD2      -50.5100  -41.9940   45.6940 C.ar  645  HIS645      0.1154
    103  CE1      -48.5290  -41.3250   46.3580 C.ar  645  HIS645      0.1986
    104  NE2      -49.1550  -42.1030   45.4930 N.ar  645  HIS645     -0.2212
    105  N        -52.1750  -40.7500   53.4250 N.3   648  TRP648     -0.1241
    106  CA       -50.9240  -40.0320   53.6450 C.3   648  TRP648      0.1605
    107  C        -51.1580  -38.5270   53.6850 C.2   648  TRP648      0.2264
    108  O        -50.7780  -37.8520   54.6490 O.2   648  TRP648     -0.2867
    109  CB       -49.9140  -40.3890   52.5570 C.3   648  TRP648      0.0550
    110  CG       -48.6830  -39.5400   52.5950 C.ar  648  TRP648      0.0003
    111  CD1      -47.6500  -39.6380   53.4790 C.ar  648  TRP648      0.0946
    112  CD2      -48.3530  -38.4630   51.7090 C.ar  648  TRP648      0.0152
    113  NE1      -46.6960  -38.6890   53.1990 N.ar  648  TRP648     -0.2442
    114  CE2      -47.1050  -37.9540   52.1180 C.ar  648  TRP648      0.0810
    115  CE3      -48.9910  -37.8820   50.6080 C.ar  648  TRP648      0.0012
    116  CZ2      -46.4800  -36.8940   51.4640 C.ar  648  TRP648      0.0191
    117  CZ3      -48.3700  -36.8260   49.9620 C.ar  648  TRP648      0.0001
    118  CH2      -47.1280  -36.3440   50.3920 C.ar  648  TRP648      0.0015
    119  N        -48.2560  -43.9100   54.1670 N.3   708  TYR708     -0.1241
    120  CA       -46.9880  -44.1990   53.5070 C.3   708  TYR708      0.1605
    121  C        -46.7840  -45.7010   53.3410 C.2   708  TYR708      0.2264
    122  O        -46.2650  -46.1530   52.3140 O.2   708  TYR708     -0.2867
    123  CB       -45.8460  -43.5810   54.3130 C.3   708  TYR708      0.0534
    124  CG       -44.4980  -43.5600   53.6310 C.ar  708  TYR708     -0.0201
    125  CD1      -44.1730  -42.5600   52.7240 C.ar  708  TYR708     -0.0009
    126  CD2      -43.5360  -44.5200   53.9190 C.ar  708  TYR708     -0.0009
    127  CE1      -42.9370  -42.5280   52.1090 C.ar  708  TYR708      0.0417
    128  CE2      -42.2960  -44.4960   53.3090 C.ar  708  TYR708      0.0417
    129  CZ       -42.0020  -43.4960   52.4070 C.ar  708  TYR708      0.1957
    130  OH       -40.7700  -43.4690   51.7950 O.3   708  TYR708     -0.2866
    131  N        -48.8250  -46.6550   50.6410 N.3   711  THR711     -0.1203
    132  CA       -48.2910  -46.0680   49.4160 C.3   711  THR711      0.1994
    133  C        -47.2750  -46.9970   48.7700 C.2   711  THR711      0.2617
    134  O        -47.1950  -47.0830   47.5380 O.2   711  THR711     -0.2717
    135  CB       -47.6670  -44.7030   49.7070 C.3   711  THR711      0.1784
    136  OG1      -48.6060  -43.8880   50.4190 O.3   711  THR711     -0.2211
    137  CG2      -47.2890  -44.0000   48.4110 C.3   711  THR711      0.0376
    138  N        -46.5020  -47.7130   49.5830 N.am  712  TYR712     -0.1975
    139  CA       -45.5530  -48.6820   49.0650 C.3   712  TYR712      0.1639
    140  C        -46.0950  -50.1040   49.0490 C.2   712  TYR712      0.2290
    141  O        -45.5120  -50.9620   48.3780 O.2   712  TYR712     -0.2864
    142  CB       -44.2560  -48.6460   49.8790 C.3   712  TYR712      0.0560
    143  CG       -43.0820  -49.2070   49.1210 C.ar  712  TYR712     -0.0198
    144  CD1      -42.5750  -48.5460   48.0110 C.ar  712  TYR712     -0.0009
    145  CD2      -42.4890  -50.3990   49.5030 C.ar  712  TYR712     -0.0009
    146  CE1      -41.5080  -49.0560   47.3050 C.ar  712  TYR712      0.0417
    147  CE2      -41.4190  -50.9150   48.8050 C.ar  712  TYR712      0.0417
    148  CZ       -40.9320  -50.2390   47.7060 C.ar  712  TYR712      0.1957
    149  OH       -39.8640  -50.7480   47.0030 O.3   712  TYR712     -0.2866
    150  N        -47.8230  -50.4050   45.3810 N.3   715  PHE715     -0.1241
    151  CA       -46.9530  -50.3310   44.2130 C.3   715  PHE715      0.1605
    152  C        -46.2120  -51.6430   43.9890 C.2   715  PHE715      0.2264
    153  O        -46.0840  -52.0970   42.8480 O.2   715  PHE715     -0.2867
    154  CB       -45.9640  -49.1750   44.3630 C.3   715  PHE715      0.0534
    155  CG       -44.8500  -49.1970   43.3530 C.ar  715  PHE715     -0.0203
    156  CD1      -45.0890  -48.8580   42.0310 C.ar  715  PHE715     -0.0042
    157  CD2      -43.5650  -49.5560   43.7250 C.ar  715  PHE715     -0.0042
    158  CE1      -44.0680  -48.8800   41.0990 C.ar  715  PHE715     -0.0003
    159  CE2      -42.5400  -49.5790   42.7980 C.ar  715  PHE715     -0.0003
    160  CZ       -42.7920  -49.2400   41.4840 C.ar  715  PHE715     -0.0000
@<TRIPOS>BOND
     1    69    67   ar
     2    69    68   ar
     3    67    65   ar
     4    68    66   ar
     5    65    64   ar
     6    65    63   ar
     7    66    63   ar
     8    64    62   ar
     9    63    61   ar
    10    62    61   ar
    11    61    60    1
    12    83    81    1
    13    59    58    2
    14    60    57    1
    15    58    57    1
    16    81    80    1
    17    57    56    1
    18    79    78    2
    19    78    77    1
    20    72    73    2
    21    72    71    1
    22    80    77    1
    23    80    82    1
    24    70    71    1
    25    77    76    1
    26    56    50   am
    27    75    74    1
    28    36    37    1
    29    71    74    1
    30    50    51    2
    31    50    49    1
    32    37    38    1
    33    37    40    1
    34    39    38    2
    35    38    48   am
    36    48    49    1
    37    49    52    1
    38    40    41    1
    39    52    53    1
    40    41    42   ar
    41    41    43   ar
    42    42    44   ar
    43   158   160   ar
    44   158   156   ar
    45   160   159   ar
    46    53    54    1
    47    53    55    1
    48   156   155   ar
    49    43    45   ar
    50    44    46   ar
    51   159   157   ar
    52   153   152    2
    53    93    91   ar
    54    93    94   ar
    55    45    46   ar
    56    46    47    1
    57    91    89   ar
    58   155   157   ar
    59   155   154    1
    60    94    92   ar
    61   152   151    1
    62    89    88    1
    63    89    90   ar
    64   151   154    1
    65   151   150    1
    66    88    85    1
    67    92    90   ar
    68    28    27    2
    69   104   102   ar
    70   104   103   ar
    71   102   100   ar
    72    85    86    1
    73    85    84    1
    74    86    87    2
    75    27    26    1
    76   103   101   ar
    77   100   101   ar
    78   100    99    1
    79    26    29    1
    80    26    25    1
    81    29    30    1
    82   149   148    1
    83    31    30   ar
    84    31    33   ar
    85    30    32   ar
    86   146   148   ar
    87   146   144   ar
    88    99    96    1
    89    33    35   ar
    90   134   133    2
    91    32    34   ar
    92   148   147   ar
    93    35    34   ar
    94   144   143   ar
    95   141   140    2
    96   137   135    1
    97   133   132    1
    98   133   138   am
    99   147   145   ar
   100    96    95    1
   101    96    97    1
   102   140   139    1
   103   139   138    1
   104   139   142    1
   105   143   145   ar
   106   143   142    1
   107   132   135    1
   108   132   131    1
   109    97    98    2
   110   135   136    1
   111   117   118   ar
   112   117   115   ar
   113    24    23    2
   114   118   116   ar
   115   115   112   ar
   116    23    22    1
   117   116   114   ar
   118   112   114   ar
   119   112   110   ar
   120   130   129    1
   121   127   129   ar
   122   127   125   ar
   123   114   113   ar
   124    20    18   am
   125    22    21    1
   126   122   121    2
   127   129   128   ar
   128   109   110    1
   129   109   106    1
   130   110   111   ar
   131   125   124   ar
   132    19    18    2
   133    12    11    1
   134   113   111   ar
   135    18    17    1
   136   128   126   ar
   137   121   120    1
   138    16    15    2
   139   105   106    1
   140   120   119    1
   141   120   123    1
   142   124   126   ar
   143   124   123    1
   144   106   107    1
   145   107   108    2
   146    11     9   ar
   147    11    10   ar
   148    15    14    1
   149     9     7   ar
   150    17    14    1
   151    14    13    1
   152    10     8   ar
   153     7     6   ar
   154     8     6   ar
   155     6     5    1
   156     5     2    1
   157     1     2    1
   158     2     3    1
   159     3     4    2
