@<TRIPOS>MOLECULE
tmp/6fosE18.pdb
 196 193 0 0 0
SMALL
GASTEIGER

@<TRIPOS>ATOM
      1  N        -51.1770  -63.8120   68.6920 N.3    50  ILE50      -0.1231
      2  CA       -50.2580  -64.2830   67.6570 C.3    50  ILE50       0.1692
      3  C        -50.6480  -65.6820   67.1960 C.2    50  ILE50       0.2592
      4  O        -50.6950  -65.9690   65.9940 O.2    50  ILE50      -0.2718
      5  CB       -48.8070  -64.2440   68.1680 C.3    50  ILE50       0.0266
      6  CG1      -48.3440  -62.8020   68.3750 C.3    50  ILE50       0.0019
      7  CG2      -47.8790  -64.9720   67.2050 C.3    50  ILE50       0.0020
      8  CD1      -46.8680  -62.6820   68.6860 C.3    50  ILE50       0.0001
      9  N        -50.9390  -66.5730   68.1460 N.am   51  PHE51      -0.1976
     10  CA       -51.2560  -67.9520   67.7880 C.3    51  PHE51       0.1639
     11  C        -52.6530  -68.0780   67.1950 C.2    51  PHE51       0.2290
     12  O        -52.8790  -68.9300   66.3280 O.2    51  PHE51      -0.2864
     13  CB       -51.1030  -68.8580   69.0090 C.3    51  PHE51       0.0560
     14  CG       -49.6740  -69.0830   69.4160 C.ar   51  PHE51      -0.0200
     15  CD1      -48.6420  -68.8450   68.5230 C.ar   51  PHE51      -0.0042
     16  CD2      -49.3620  -69.5340   70.6880 C.ar   51  PHE51      -0.0042
     17  CE1      -47.3250  -69.0510   68.8900 C.ar   51  PHE51      -0.0003
     18  CE2      -48.0460  -69.7420   71.0610 C.ar   51  PHE51      -0.0003
     19  CZ       -47.0270  -69.5000   70.1600 C.ar   51  PHE51      -0.0000
     20  N        -53.9860  -65.7590   65.2890 N.3    53  TRP53      -0.1227
     21  CA       -53.8090  -65.2630   63.9300 C.3    53  TRP53       0.1737
     22  C        -52.9980  -66.2330   63.0790 C.2    53  TRP53       0.2596
     23  O        -53.2090  -66.3120   61.8630 O.2    53  TRP53      -0.2718
     24  CB       -53.1700  -63.8730   63.9920 C.3    53  TRP53       0.0564
     25  CG       -52.2030  -63.5330   62.9060 C.ar   53  TRP53       0.0003
     26  CD1      -52.4780  -63.3700   61.5820 C.ar   53  TRP53       0.0946
     27  CD2      -50.8060  -63.2600   63.0640 C.ar   53  TRP53       0.0152
     28  NE1      -51.3330  -63.0360   60.9010 N.ar   53  TRP53      -0.2442
     29  CE2      -50.2920  -62.9610   61.7890 C.ar   53  TRP53       0.0810
     30  CE3      -49.9370  -63.2510   64.1600 C.ar   53  TRP53       0.0012
     31  CZ2      -48.9490  -62.6560   61.5780 C.ar   53  TRP53       0.0191
     32  CZ3      -48.6050  -62.9480   63.9490 C.ar   53  TRP53       0.0001
     33  CH2      -48.1240  -62.6550   62.6680 C.ar   53  TRP53       0.0015
     34  N        -52.0880  -66.9920   63.6950 N.am   54  THR54      -0.1953
     35  CA       -51.4120  -68.0640   62.9710 C.3    54  THR54       0.1897
     36  C        -52.3880  -69.1760   62.6070 C.2    54  THR54       0.2313
     37  O        -52.3240  -69.7310   61.5030 O.2    54  THR54      -0.2863
     38  CB       -50.2570  -68.6210   63.8050 C.3    54  THR54       0.1794
     39  OG1      -49.3310  -67.5700   64.1070 O.3    54  THR54      -0.2208
     40  CG2      -49.5330  -69.7270   63.0490 C.3    54  THR54       0.0378
     41  N        -54.2070  -68.0960   59.6220 N.3    57  ASN57      -0.1240
     42  CA       -53.3570  -68.1890   58.4390 C.3    57  ASN57       0.1653
     43  C        -53.3520  -69.6040   57.8750 C.2    57  ASN57       0.2266
     44  O        -53.4190  -69.7950   56.6560 O.2    57  ASN57      -0.2867
     45  CB       -51.9330  -67.7470   58.7760 C.3    57  ASN57       0.1155
     46  CG       -51.8450  -66.2760   59.1320 C.2    57  ASN57       0.2627
     47  OD1      -52.5440  -65.4430   58.5550 O.2    57  ASN57      -0.2716
     48  ND2      -50.9830  -65.9490   60.0870 N.am   57  ASN57      -0.0877
     49  N        -47.8690  -63.6620   51.5340 N.3   111  VAL111     -0.1231
     50  CA       -47.1370  -64.3680   52.5800 C.3   111  VAL111      0.1692
     51  C        -46.7990  -65.7570   52.0620 C.2   111  VAL111      0.2592
     52  O        -47.5750  -66.7050   52.2320 O.2   111  VAL111     -0.2718
     53  CB       -47.9390  -64.4460   53.8920 C.3   111  VAL111      0.0266
     54  CG1      -47.1560  -65.2100   54.9530 C.3   111  VAL111      0.0020
     55  CG2      -48.2630  -63.0600   54.3860 C.3   111  VAL111      0.0020
     56  N        -45.6510  -65.8820   51.4080 N.am  112  TYR112     -0.1976
     57  CA       -45.2240  -67.1730   50.8990 C.3   112  TYR112      0.1639
     58  C        -44.6960  -68.0370   52.0380 C.2   112  TYR112      0.2290
     59  O        -44.1010  -67.5440   53.0020 O.2   112  TYR112     -0.2864
     60  CB       -44.1690  -67.0070   49.8040 C.3   112  TYR112      0.0560
     61  CG       -42.9160  -66.2710   50.2210 C.ar  112  TYR112     -0.0198
     62  CD1      -42.9310  -64.9020   50.4540 C.ar  112  TYR112     -0.0009
     63  CD2      -41.7100  -66.9420   50.3540 C.ar  112  TYR112     -0.0009
     64  CE1      -41.7870  -64.2310   50.8270 C.ar  112  TYR112      0.0417
     65  CE2      -40.5610  -66.2760   50.7200 C.ar  112  TYR112      0.0417
     66  CZ       -40.6040  -64.9210   50.9590 C.ar  112  TYR112      0.1957
     67  OH       -39.4570  -64.2560   51.3280 O.3   112  TYR112     -0.2866
     68  N        -43.0010  -70.1930   54.7240 N.3   114  TRP114     -0.1227
     69  CA       -41.7050  -70.4750   55.3310 C.3   114  TRP114      0.1737
     70  C        -41.5870  -71.9500   55.6870 C.2   114  TRP114      0.2595
     71  O        -40.5660  -72.5880   55.4080 O.2   114  TRP114     -0.2718
     72  CB       -41.5180  -69.6080   56.5800 C.3   114  TRP114      0.0564
     73  CG       -40.3110  -69.9300   57.4160 C.ar  114  TRP114      0.0003
     74  CD1      -40.1890  -70.9350   58.3330 C.ar  114  TRP114      0.0946
     75  CD2      -39.0700  -69.2170   57.4380 C.ar  114  TRP114      0.0152
     76  NE1      -38.9430  -70.9010   58.9080 N.ar  114  TRP114     -0.2442
     77  CE2      -38.2380  -69.8540   58.3760 C.ar  114  TRP114      0.0810
     78  CE3      -38.5790  -68.1080   56.7490 C.ar  114  TRP114      0.0012
     79  CZ2      -36.9460  -69.4130   58.6430 C.ar  114  TRP114      0.0191
     80  CZ3      -37.2960  -67.6750   57.0120 C.ar  114  TRP114      0.0001
     81  CH2      -36.4930  -68.3270   57.9500 C.ar  114  TRP114      0.0015
     82  N        -42.6320  -72.4940   56.3060 N.am  115  TRP115     -0.1976
     83  CA       -42.7180  -73.9090   56.6520 C.3   115  TRP115      0.1640
     84  C        -43.1560  -74.6750   55.4080 C.2   115  TRP115      0.2290
     85  O        -44.3260  -75.0230   55.2260 O.2   115  TRP115     -0.2864
     86  CB       -43.6870  -74.1090   57.8100 C.3   115  TRP115      0.0576
     87  CG       -44.9140  -73.2530   57.6840 C.ar  115  TRP115      0.0006
     88  CD1      -46.1170  -73.6140   57.1500 C.ar  115  TRP115      0.0946
     89  CD2      -45.0480  -71.8840   58.0840 C.ar  115  TRP115      0.0152
     90  NE1      -46.9930  -72.5570   57.1980 N.ar  115  TRP115     -0.2442
     91  CE2      -46.3610  -71.4830   57.7670 C.ar  115  TRP115      0.0810
     92  CE3      -44.1860  -70.9590   58.6820 C.ar  115  TRP115      0.0012
     93  CZ2      -46.8320  -70.1990   58.0290 C.ar  115  TRP115      0.0191
     94  CZ3      -44.6550  -69.6860   58.9400 C.ar  115  TRP115      0.0001
     95  CH2      -45.9660  -69.3180   58.6140 C.ar  115  TRP115      0.0015
     96  N        -32.9130  -57.8300   69.5230 N.3   332  LEU332     -0.1245
     97  CA       -33.7850  -58.4310   68.5200 C.3   332  LEU332      0.1561
     98  C        -33.7880  -57.6220   67.2310 C.2   332  LEU332      0.2260
     99  O        -33.9660  -58.1860   66.1470 O.2   332  LEU332     -0.2867
    100  CB       -35.2090  -58.5660   69.0610 C.3   332  LEU332      0.0270
    101  CG       -35.4700  -59.6880   70.0670 C.3   332  LEU332      0.0019
    102  CD1      -36.9370  -59.7140   70.4700 C.3   332  LEU332      0.0001
    103  CD2      -35.0460  -61.0310   69.4930 C.3   332  LEU332      0.0001
    104  N        -30.6510  -58.5230   65.2590 N.3   335  VAL335     -0.1231
    105  CA       -30.9240  -59.7840   64.5810 C.3   335  VAL335      0.1692
    106  C        -32.0230  -59.6170   63.5340 C.2   335  VAL335      0.2592
    107  O        -32.0780  -60.3780   62.5610 O.2   335  VAL335     -0.2718
    108  CB       -31.2810  -60.8620   65.6240 C.3   335  VAL335      0.0266
    109  CG1      -31.4350  -62.2240   64.9660 C.3   335  VAL335      0.0020
    110  CG2      -30.2180  -60.9100   66.7110 C.3   335  VAL335      0.0020
    111  N        -32.9060  -58.6270   63.6990 N.am  336  THR336     -0.1953
    112  CA       -33.9660  -58.4200   62.7130 C.3   336  THR336      0.1897
    113  C        -33.3950  -57.9330   61.3860 C.2   336  THR336      0.2313
    114  O        -33.6940  -58.4970   60.3260 O.2   336  THR336     -0.2863
    115  CB       -35.0070  -57.4280   63.2350 C.3   336  THR336      0.1794
    116  OG1      -35.3820  -57.7810   64.5710 O.3   336  THR336     -0.2208
    117  CG2      -36.2450  -57.4570   62.3520 C.3   336  THR336      0.0378
    118  N        -31.5610  -60.7470   59.9630 N.3   339  VAL339     -0.1245
    119  CA       -32.4510  -61.7140   59.3250 C.3   339  VAL339      0.1561
    120  C        -32.8800  -61.2170   57.9500 C.2   339  VAL339      0.2260
    121  O        -32.8840  -61.9770   56.9740 O.2   339  VAL339     -0.2867
    122  CB       -33.6620  -62.0040   60.2320 C.3   339  VAL339      0.0252
    123  CG1      -34.8490  -62.4840   59.4140 C.3   339  VAL339      0.0019
    124  CG2      -33.2940  -63.0390   61.2850 C.3   339  VAL339      0.0019
    125  N        -31.9920  -63.0880   53.8820 N.3   343  MET343     -0.1245
    126  CA       -33.0890  -63.6700   53.1230 C.3   343  MET343      0.1570
    127  C        -32.9460  -63.5040   51.6180 C.2   343  MET343      0.2261
    128  O        -33.7520  -64.0730   50.8720 O.2   343  MET343     -0.2867
    129  CB       -34.4310  -63.0710   53.5710 C.3   343  MET343      0.0387
    130  CG       -34.8160  -63.4320   54.9940 C.3   343  MET343      0.0595
    131  SD       -34.7440  -65.2080   55.2950 S.3   343  MET343     -0.1393
    132  CE       -34.7750  -65.2480   57.0840 C.3   343  MET343      0.0692
    133  N        -36.0090  -70.5870   51.3660 N.3   349  TYR349     -0.1241
    134  CA       -37.2010  -71.0370   50.6660 C.3   349  TYR349      0.1605
    135  C        -36.8290  -71.7020   49.3470 C.2   349  TYR349      0.2264
    136  O        -35.7590  -71.4620   48.7820 O.2   349  TYR349     -0.2867
    137  CB       -38.1500  -69.8730   50.3710 C.3   349  TYR349      0.0534
    138  CG       -38.4670  -68.9400   51.5140 C.ar  349  TYR349     -0.0201
    139  CD1      -39.5900  -69.1370   52.3040 C.ar  349  TYR349     -0.0009
    140  CD2      -37.6720  -67.8300   51.7700 C.ar  349  TYR349     -0.0009
    141  CE1      -39.8990  -68.2720   53.3350 C.ar  349  TYR349      0.0417
    142  CE2      -37.9710  -66.9600   52.8010 C.ar  349  TYR349      0.0417
    143  CZ       -39.0860  -67.1850   53.5780 C.ar  349  TYR349      0.1957
    144  OH       -39.3900  -66.3160   54.6010 O.3   349  TYR349     -0.2866
    145  N        -41.4830  -59.7930   51.6400 N.3   362  LEU362     -0.1245
    146  CA       -41.0740  -60.2500   52.9630 C.3   362  LEU362      0.1561
    147  C        -39.8850  -59.4650   53.5070 C.2   362  LEU362      0.2260
    148  O        -39.8470  -59.1540   54.7030 O.2   362  LEU362     -0.2867
    149  CB       -40.7400  -61.7430   52.9130 C.3   362  LEU362      0.0270
    150  CG       -40.7280  -62.5770   54.1980 C.3   362  LEU362      0.0019
    151  CD1      -39.3980  -62.4650   54.9340 C.3   362  LEU362      0.0001
    152  CD2      -41.8890  -62.1850   55.1010 C.3   362  LEU362      0.0001
    153  N        -40.9790  -56.0810   54.6820 N.3   365  HIS365     -0.1226
    154  CA       -41.8130  -56.2940   55.8600 C.3   365  HIS365      0.1752
    155  C        -40.9640  -56.3310   57.1240 C.2   365  HIS365      0.2596
    156  O        -41.1380  -55.5100   58.0320 O.2   365  HIS365     -0.2718
    157  CB       -42.6120  -57.5900   55.7040 C.3   365  HIS365      0.0759
    158  CG       -43.1680  -58.1180   56.9900 C.ar  365  HIS365      0.0818
    159  ND1      -42.6120  -59.1880   57.6570 N.ar  365  HIS365     -0.2268
    160  CD2      -44.2310  -57.7250   57.7310 C.ar  365  HIS365      0.1154
    161  CE1      -43.3080  -59.4320   58.7530 C.ar  365  HIS365      0.1986
    162  NE2      -44.2960  -58.5580   58.8210 N.ar  365  HIS365     -0.2212
    163  N        -40.0220  -57.2750   57.1910 N.am  366  HIS366     -0.1975
    164  CA       -39.1370  -57.3610   58.3480 C.3   366  HIS366      0.1656
    165  C        -38.2360  -56.1400   58.4640 C.2   366  HIS366      0.2291
    166  O        -37.7820  -55.8090   59.5650 O.2   366  HIS366     -0.2864
    167  CB       -38.2930  -58.6320   58.2730 C.3   366  HIS366      0.0771
    168  CG       -39.0640  -59.8850   58.5430 C.ar  366  HIS366      0.0820
    169  ND1      -39.8420  -60.5020   57.5870 N.ar  366  HIS366     -0.2267
    170  CD2      -39.1810  -60.6330   59.6650 C.ar  366  HIS366      0.1154
    171  CE1      -40.4020  -61.5790   58.1080 C.ar  366  HIS366      0.1986
    172  NE2      -40.0170  -61.6810   59.3670 N.ar  366  HIS366     -0.2212
    173  N        -40.3280  -53.4500   60.2620 N.3   369  ILE369     -0.1245
    174  CA       -40.5180  -53.8370   61.6560 C.3   369  ILE369      0.1561
    175  C        -39.2000  -53.7630   62.4160 C.2   369  ILE369      0.2260
    176  O        -39.1880  -53.5210   63.6300 O.2   369  ILE369     -0.2867
    177  CB       -41.1510  -55.2380   61.7430 C.3   369  ILE369      0.0252
    178  CG1      -42.3960  -55.3190   60.8580 C.3   369  ILE369      0.0019
    179  CG2      -41.5300  -55.5630   63.1760 C.3   369  ILE369      0.0019
    180  CD1      -43.4690  -54.3140   61.2120 C.3   369  ILE369      0.0001
    181  N        -39.0150  -50.2680   63.3840 N.3   372  LEU372     -0.1231
    182  CA       -39.9570  -50.0740   64.4820 C.3   372  LEU372      0.1693
    183  C        -39.3360  -50.4800   65.8130 C.2   372  LEU372      0.2591
    184  O        -39.2860  -49.6810   66.7560 O.2   372  LEU372     -0.2718
    185  CB       -41.2430  -50.8600   64.2220 C.3   372  LEU372      0.0284
    186  CG       -42.2030  -50.2830   63.1790 C.3   372  LEU372      0.0019
    187  CD1      -43.4820  -51.1050   63.1110 C.3   372  LEU372      0.0001
    188  CD2      -42.5140  -48.8270   63.4860 C.3   372  LEU372      0.0001
    189  N        -38.8340  -51.7170   65.9000 N.am  373  LEU373     -0.1980
    190  CA       -38.2630  -52.2030   67.1540 C.3   373  LEU373      0.1596
    191  C        -37.1180  -51.3180   67.6300 C.2   373  LEU373      0.2287
    192  O        -36.9400  -51.1170   68.8370 O.2   373  LEU373     -0.2864
    193  CB       -37.7850  -53.6460   66.9960 C.3   373  LEU373      0.0297
    194  CG       -38.8480  -54.7370   66.8650 C.3   373  LEU373      0.0022
    195  CD1      -38.2630  -56.0780   67.2770 C.3   373  LEU373      0.0001
    196  CD2      -40.0810  -54.4060   67.6920 C.3   373  LEU373      0.0001
@<TRIPOS>BOND
     1   136   135    2
     2   135   134    1
     3    60    61    1
     4    60    57    1
     5    61    63   ar
     6    61    62   ar
     7    63    65   ar
     8   137   134    1
     9   137   138    1
    10    62    64   ar
    11   134   133    1
    12    65    66   ar
    13    64    66   ar
    14   128   127    2
    15    57    56    1
    16    57    58    1
    17    66    67    1
    18    56    51   am
    19   138   140   ar
    20   138   139   ar
    21    49    50    1
    22   127   126    1
    23   145   146    1
    24   140   142   ar
    25    58    59    2
    26    51    52    2
    27    51    50    1
    28   139   141   ar
    29    50    53    1
    30   142   143   ar
    31   149   146    1
    32   149   150    1
    33   146   147    1
    34   126   129    1
    35   126   125    1
    36   141   143   ar
    37   147   148    2
    38   129   130    1
    39   143   144    1
    40    53    55    1
    41    53    54    1
    42   150   151    1
    43   150   152    1
    44   153   154    1
    45    68    69    1
    46   130   131    1
    47    85    84    2
    48   131   132    1
    49    69    70    1
    50    69    72    1
    51    71    70    2
    52    84    83    1
    53    70    82   am
    54   157   154    1
    55   157   158    1
    56   154   155    1
    57    82    83    1
    58    72    73    1
    59    83    86    1
    60    44    43    2
    61    78    80   ar
    62    78    75   ar
    63   121   120    2
    64   158   159   ar
    65   158   160   ar
    66    80    81   ar
    67   155   163   am
    68   155   156    2
    69    88    90   ar
    70    88    87   ar
    71   163   164    1
    72    90    91   ar
    73    73    75   ar
    74    73    74   ar
    75    75    77   ar
    76   169   171   ar
    77   169   168   ar
    78   159   161   ar
    79    87    86    1
    80    87    89   ar
    81   160   162   ar
    82    91    93   ar
    83    91    89   ar
    84    43    42    1
    85    81    79   ar
    86   120   119    1
    87    93    95   ar
    88    89    92   ar
    89   171   172   ar
    90   167   164    1
    91   167   168    1
    92    74    76   ar
    93   164   165    1
    94    77    79   ar
    95    77    76   ar
    96    42    45    1
    97    42    41    1
    98   165   166    2
    99   168   170   ar
   100    47    46    2
   101    95    94   ar
   102    92    94   ar
   103   161   162   ar
   104    45    46    1
   105    46    48   am
   106   119   118    1
   107   119   122    1
   108   172   170   ar
   109   123   122    1
   110   122   124    1
   111   173   174    1
   112   114   113    2
   113   178   180    1
   114   178   177    1
   115    28    26   ar
   116    28    29   ar
   117   113   112    1
   118    37    36    2
   119    31    29   ar
   120    31    33   ar
   121    26    25   ar
   122   174   177    1
   123   174   175    1
   124   177   179    1
   125    29    27   ar
   126    23    22    2
   127   117   115    1
   128   175   176    2
   129   107   106    2
   130    36    35    1
   131    33    32   ar
   132   112   115    1
   133   112   111    1
   134    25    27   ar
   135    25    24    1
   136    35    34    1
   137    35    38    1
   138    40    38    1
   139    27    30   ar
   140    22    34   am
   141    22    21    1
   142   187   186    1
   143   186   188    1
   144   186   185    1
   145   115   116    1
   146   181   182    1
   147   106   111   am
   148   106   105    1
   149    38    39    1
   150    21    24    1
   151    21    20    1
   152    32    30   ar
   153   185   182    1
   154   182   183    1
   155   105   104    1
   156   105   108    1
   157   109   108    1
   158   108   110    1
   159   183   189   am
   160   183   184    2
   161   189   190    1
   162     4     3    2
   163    99    98    2
   164    12    11    2
   165   194   193    1
   166   194   195    1
   167   194   196    1
   168   193   190    1
   169   190   191    1
   170    11    10    1
   171     3     2    1
   172     3     9   am
   173     7     5    1
   174    98    97    1
   175   191   192    2
   176     2     5    1
   177     2     1    1
   178    10     9    1
   179    10    13    1
   180     5     6    1
   181     6     8    1
   182    97   100    1
   183    97    96    1
   184    15    17   ar
   185    15    14   ar
   186    17    19   ar
   187    13    14    1
   188   100   101    1
   189    14    16   ar
   190   103   101    1
   191   101   102    1
   192    19    18   ar
   193    16    18   ar
