@<TRIPOS>MOLECULE
tmp/6fosD15.pdb
 120 111 0 0 0
SMALL
GASTEIGER

@<TRIPOS>ATOM
      1  N        -58.9970   12.0910   48.7330 N.3   182  VAL182     -0.1245
      2  CA       -59.4230   10.8960   48.0100 C.3   182  VAL182      0.1561
      3  C        -60.4300   11.2600   46.9300 C.2   182  VAL182      0.2260
      4  O        -60.4460   10.6530   45.8510 O.2   182  VAL182     -0.2867
      5  CB       -59.9900    9.8570   48.9980 C.3   182  VAL182      0.0252
      6  CG1      -60.4810    8.6240   48.2630 C.3   182  VAL182      0.0019
      7  CG2      -58.9330    9.4790   50.0210 C.3   182  VAL182      0.0019
      8  N        -58.4370   12.2960   44.3210 N.3   185  MET185     -0.1230
      9  CA       -57.5770   11.2100   43.8660 C.3   185  MET185      0.1702
     10  C        -58.2720   10.3540   42.8130 C.2   185  MET185      0.2592
     11  O        -57.6750   10.0170   41.7840 O.2   185  MET185     -0.2718
     12  CB       -57.1390   10.3540   45.0560 C.3   185  MET185      0.0401
     13  CG       -56.2300    9.1960   44.6820 C.3   185  MET185      0.0596
     14  SD       -55.6240    8.2900   46.1180 S.3   185  MET185     -0.1393
     15  CE       -54.7020    9.5730   46.9620 C.3   185  MET185      0.0692
     16  N        -59.5350    9.9880   43.0530 N.am  186  LEU186     -0.1980
     17  CA       -60.2810    9.2180   42.0640 C.3   186  LEU186      0.1596
     18  C        -60.6130   10.0360   40.8240 C.2   186  LEU186      0.2287
     19  O        -60.8620    9.4550   39.7630 O.2   186  LEU186     -0.2864
     20  CB       -61.5700    8.6580   42.6710 C.3   186  LEU186      0.0297
     21  CG       -61.4450    7.3540   43.4630 C.3   186  LEU186      0.0022
     22  CD1      -60.8800    7.6140   44.8450 C.3   186  LEU186      0.0001
     23  CD2      -62.7830    6.6320   43.5510 C.3   186  LEU186      0.0001
     24  N        -57.2330    9.3810   38.9590 N.3   189  HIS189     -0.1226
     25  CA       -56.9120    7.9970   38.6320 C.3   189  HIS189      0.1752
     26  C        -57.8570    7.4220   37.5840 C.2   189  HIS189      0.2595
     27  O        -57.4230    6.6580   36.7140 O.2   189  HIS189     -0.2718
     28  CB       -56.9470    7.1320   39.8940 C.3   189  HIS189      0.0759
     29  CG       -55.7710    7.3320   40.7960 C.ar  189  HIS189      0.0818
     30  ND1      -55.6220    6.6540   41.9870 N.ar  189  HIS189     -0.2268
     31  CD2      -54.6830    8.1310   40.6800 C.ar  189  HIS189      0.1154
     32  CE1      -54.4950    7.0270   42.5660 C.ar  189  HIS189      0.1986
     33  NE2      -53.9070    7.9230   41.7930 N.ar  189  HIS189     -0.2212
     34  N        -59.1420    7.7790   37.6500 N.am  190  LEU190     -0.1980
     35  CA       -60.1160    7.2950   36.6820 C.3   190  LEU190      0.1596
     36  C        -60.1590    8.1390   35.4160 C.2   190  LEU190      0.2287
     37  O        -60.7070    7.6880   34.4050 O.2   190  LEU190     -0.2864
     38  CB       -61.5140    7.2510   37.3080 C.3   190  LEU190      0.0297
     39  CG       -61.8820    6.0750   38.2190 C.3   190  LEU190      0.0022
     40  CD1      -61.1270    6.1190   39.5410 C.3   190  LEU190      0.0001
     41  CD2      -63.3850    6.0400   38.4590 C.3   190  LEU190      0.0001
     42  N        -66.9900   10.4700   48.3930 N.3   310  ILE310     -0.1245
     43  CA       -67.0050    9.2070   49.1230 C.3   310  ILE310      0.1561
     44  C        -67.6300    9.3750   50.5040 C.2   310  ILE310      0.2260
     45  O        -68.1350    8.4060   51.0800 O.2   310  ILE310     -0.2867
     46  CB       -65.5720    8.6320   49.2140 C.3   310  ILE310      0.0252
     47  CG1      -64.9120    8.5980   47.8330 C.3   310  ILE310      0.0019
     48  CG2      -65.5780    7.2310   49.8030 C.3   310  ILE310      0.0019
     49  CD1      -63.9550    9.7450   47.5730 C.3   310  ILE310      0.0001
     50  N        -71.4710    7.2210   51.0070 N.3   314  LEU314     -0.1245
     51  CA       -71.5830    6.1650   52.0040 C.3   314  LEU314      0.1561
     52  C        -72.4450    6.5860   53.1870 C.2   314  LEU314      0.2260
     53  O        -73.0250    5.7270   53.8600 O.2   314  LEU314     -0.2867
     54  CB       -70.1890    5.7520   52.4720 C.3   314  LEU314      0.0270
     55  CG       -69.2820    5.2540   51.3450 C.3   314  LEU314      0.0019
     56  CD1      -67.8320    5.2320   51.7860 C.3   314  LEU314      0.0001
     57  CD2      -69.7210    3.8760   50.8690 C.3   314  LEU314      0.0001
     58  N        -67.5780    4.3260   56.4010 N.3   329  LEU329     -0.1245
     59  CA       -66.6420    3.6830   55.4850 C.3   329  LEU329      0.1561
     60  C        -65.6910    4.6970   54.8630 C.2   329  LEU329      0.2260
     61  O        -64.5560    4.3530   54.5150 O.2   329  LEU329     -0.2867
     62  CB       -67.4090    2.9280   54.4000 C.3   329  LEU329      0.0270
     63  CG       -67.3550    1.3980   54.3940 C.3   329  LEU329      0.0019
     64  CD1      -66.1290    0.9160   53.6600 C.3   329  LEU329      0.0001
     65  CD2      -67.3630    0.8540   55.8060 C.3   329  LEU329      0.0001
     66  N        -61.5080    4.1550   54.8740 N.3   333  LEU333     -0.1231
     67  CA       -60.5430    4.1150   53.7810 C.3   333  LEU333      0.1693
     68  C        -59.6530    5.3480   53.7020 C.2   333  LEU333      0.2592
     69  O        -58.5570    5.2620   53.1360 O.2   333  LEU333     -0.2718
     70  CB       -61.2610    3.9340   52.4380 C.3   333  LEU333      0.0284
     71  CG       -61.7470    2.5300   52.0630 C.3   333  LEU333      0.0019
     72  CD1      -60.6810    1.4830   52.3310 C.3   333  LEU333      0.0001
     73  CD2      -63.0170    2.1780   52.7940 C.3   333  LEU333      0.0001
     74  N        -60.0840    6.4870   54.2440 N.am  334  THR334     -0.1953
     75  CA       -59.2950    7.7090   54.1600 C.3   334  THR334      0.1897
     76  C        -58.2990    7.8650   55.3020 C.2   334  THR334      0.2313
     77  O        -57.4910    8.8000   55.2710 O.2   334  THR334     -0.2863
     78  CB       -60.2080    8.9410   54.1280 C.3   334  THR334      0.1794
     79  OG1      -61.0420    8.9550   55.2930 O.3   334  THR334     -0.2208
     80  CG2      -61.0770    8.9280   52.8800 C.3   334  THR334      0.0378
     81  N        -57.1120    0.7020   52.3740 N.3   340  ASN340     -0.1240
     82  CA       -57.2230    0.7160   50.9200 C.3   340  ASN340      0.1653
     83  C        -56.5660   -0.5050   50.2900 C.2   340  ASN340      0.2266
     84  O        -56.9560   -0.9180   49.1930 O.2   340  ASN340     -0.2867
     85  CB       -56.5940    1.9880   50.3490 C.3   340  ASN340      0.1155
     86  CG       -57.4410    3.2200   50.5840 C.2   340  ASN340      0.2627
     87  OD1      -58.6650    3.1420   50.6560 O.2   340  ASN340     -0.2716
     88  ND2      -56.7890    4.3710   50.6920 N.am  340  ASN340     -0.0877
     89  N        -58.8980   -3.9400   49.8280 N.3   343  ILE343     -0.1231
     90  CA       -59.8620   -3.8320   48.7380 C.3   343  ILE343      0.1692
     91  C        -59.1380   -3.7370   47.4010 C.2   343  ILE343      0.2592
     92  O        -59.6320   -4.2360   46.3840 O.2   343  ILE343     -0.2718
     93  CB       -60.8180   -2.6420   48.9580 C.3   343  ILE343      0.0266
     94  CG1      -60.0660   -1.3120   48.9050 C.3   343  ILE343      0.0019
     95  CG2      -61.5550   -2.7880   50.2810 C.3   343  ILE343      0.0020
     96  CD1      -60.9670   -0.1030   48.9810 C.3   343  ILE343      0.0001
     97  N        -57.9540   -3.1200   47.3790 N.am  344  ASN344     -0.1974
     98  CA       -57.1500   -3.1010   46.1620 C.3   344  ASN344      0.1688
     99  C        -56.6330   -4.4940   45.8300 C.2   344  ASN344      0.2292
    100  O        -56.8200   -4.9840   44.7120 O.2   344  ASN344     -0.2864
    101  CB       -55.9900   -2.1140   46.3090 C.3   344  ASN344      0.1181
    102  CG       -56.3730   -0.7050   45.9070 C.2   344  ASN344      0.2629
    103  OD1      -56.2190    0.2410   46.6790 O.2   344  ASN344     -0.2716
    104  ND2      -56.8800   -0.5600   44.6890 N.am  344  ASN344     -0.0877
    105  N        -59.7070   -6.6980   44.6790 N.3   347  MET347     -0.1230
    106  CA       -60.2170   -6.4050   43.3440 C.3   347  MET347      0.1702
    107  C        -59.1620   -6.6730   42.2770 C.2   347  MET347      0.2592
    108  O        -59.4440   -7.3220   41.2640 O.2   347  MET347     -0.2718
    109  CB       -60.7040   -4.9580   43.2750 C.3   347  MET347      0.0401
    110  CG       -61.9130   -4.6720   44.1520 C.3   347  MET347      0.0596
    111  SD       -63.3300   -5.7090   43.7430 S.3   347  MET347     -0.1393
    112  CE       -63.6360   -5.2200   42.0480 C.3   347  MET347      0.0692
    113  N        -57.9370   -6.1850   42.4910 N.am  348  LEU348     -0.1980
    114  CA       -56.8800   -6.3890   41.5050 C.3   348  LEU348      0.1596
    115  C        -56.4520   -7.8500   41.4310 C.2   348  LEU348      0.2287
    116  O        -56.0360   -8.3180   40.3640 O.2   348  LEU348     -0.2864
    117  CB       -55.6770   -5.5010   41.8280 C.3   348  LEU348      0.0297
    118  CG       -55.9200   -3.9900   41.8980 C.3   348  LEU348      0.0022
    119  CD1      -54.7020   -3.2780   42.4670 C.3   348  LEU348      0.0001
    120  CD2      -56.2800   -3.4250   40.5350 C.3   348  LEU348      0.0001
@<TRIPOS>BOND
     1    37    36    2
     2    36    35    1
     3    35    38    1
     4    35    34    1
     5    27    26    2
     6    38    39    1
     7    26    34   am
     8    26    25    1
     9    39    41    1
    10    39    40    1
    11    25    24    1
    12    25    28    1
    13    19    18    2
    14    28    29    1
    15   116   115    2
    16   120   118    1
    17    31    29   ar
    18    31    33   ar
    19    29    30   ar
    20    18    17    1
    21   108   107    2
    22   115   114    1
    23   114   117    1
    24   114   113    1
    25    11    10    2
    26    33    32   ar
    27   117   118    1
    28   118   119    1
    29    30    32   ar
    30   112   111    1
    31    17    20    1
    32    17    16    1
    33   107   113   am
    34   107   106    1
    35    20    21    1
    36    10    16   am
    37    10     9    1
    38   109   106    1
    39   109   110    1
    40   106   105    1
    41    21    23    1
    42    21    22    1
    43   111   110    1
    44     9     8    1
    45     9    12    1
    46    13    12    1
    47    13    14    1
    48   104   102   am
    49   100    99    2
    50    99    98    1
    51     4     3    2
    52   102   101    1
    53   102   103    2
    54    14    15    1
    55    98   101    1
    56    98    97    1
    57    92    91    2
    58     3     2    1
    59    97    91   am
    60    91    90    1
    61    49    47    1
    62    47    46    1
    63     2     1    1
    64     2     5    1
    65     6     5    1
    66    42    43    1
    67    90    93    1
    68    90    89    1
    69    94    93    1
    70    94    96    1
    71    93    95    1
    72     5     7    1
    73    43    46    1
    74    43    44    1
    75    84    83    2
    76    46    48    1
    77    83    82    1
    78    85    86    1
    79    85    82    1
    80    44    45    2
    81    86    87    2
    82    86    88   am
    83    57    55    1
    84    82    81    1
    85    50    51    1
    86    55    56    1
    87    55    54    1
    88    51    54    1
    89    51    52    1
    90    71    72    1
    91    71    70    1
    92    71    73    1
    93    70    67    1
    94    80    78    1
    95    69    68    2
    96    52    53    2
    97    64    63    1
    98    68    67    1
    99    68    74   am
   100    67    66    1
   101    78    75    1
   102    78    79    1
   103    75    74    1
   104    75    76    1
   105    63    62    1
   106    63    65    1
   107    62    59    1
   108    61    60    2
   109    60    59    1
   110    77    76    2
   111    59    58    1
