@<TRIPOS>MOLECULE
tmp/6fosE22.pdb
 92 89 0 0 0
SMALL
GASTEIGER

@<TRIPOS>ATOM
      1  N        -23.5060  -32.9840   52.4290 N.3   422  PHE422     -0.1227
      2  CA       -22.9080  -32.0800   51.4500 C.3   422  PHE422      0.1736
      3  C        -22.2000  -32.8180   50.3220 C.2   422  PHE422      0.2595
      4  O        -21.9620  -32.2260   49.2640 O.2   422  PHE422     -0.2718
      5  CB       -21.9180  -31.1350   52.1320 C.3   422  PHE422      0.0547
      6  CG       -22.5670  -30.0070   52.8810 C.ar  422  PHE422     -0.0202
      7  CD1      -23.1140  -28.9310   52.2020 C.ar  422  PHE422     -0.0042
      8  CD2      -22.6140  -30.0120   54.2640 C.ar  422  PHE422     -0.0042
      9  CE1      -23.7060  -27.8890   52.8890 C.ar  422  PHE422     -0.0003
     10  CE2      -23.2060  -28.9750   54.9560 C.ar  422  PHE422     -0.0003
     11  CZ       -23.7520  -27.9110   54.2680 C.ar  422  PHE422     -0.0000
     12  N        -21.8550  -34.0870   50.5190 N.am  423  HIS423     -0.1975
     13  CA       -21.1480  -34.8630   49.5100 C.3   423  HIS423      0.1656
     14  C        -22.0290  -35.8750   48.7970 C.2   423  HIS423      0.2291
     15  O        -21.9490  -35.9910   47.5750 O.2   423  HIS423     -0.2864
     16  CB       -19.9500  -35.5750   50.1440 C.3   423  HIS423      0.0771
     17  CG       -18.9390  -34.6330   50.7180 C.ar  423  HIS423      0.0820
     18  ND1      -19.1100  -34.0070   51.9330 N.ar  423  HIS423     -0.2267
     19  CD2      -17.7580  -34.1880   50.2280 C.ar  423  HIS423      0.1154
     20  CE1      -18.0720  -33.2280   52.1750 C.ar  423  HIS423      0.1986
     21  NE2      -17.2380  -33.3190   51.1550 N.ar  423  HIS423     -0.2212
     22  N        -24.6150  -33.5830   47.1920 N.3   426  GLY426     -0.1210
     23  CA       -23.8360  -32.7470   46.2920 C.3   426  GLY426      0.1956
     24  C        -23.3660  -33.5040   45.0650 C.2   426  GLY426      0.2611
     25  O        -23.4390  -32.9950   43.9440 O.2   426  GLY426     -0.2717
     26  N        -22.8730  -34.7300   45.2630 N.am  427  LEU427     -0.1979
     27  CA       -22.5680  -35.5970   44.1300 C.3   427  LEU427      0.1596
     28  C        -23.8040  -35.8310   43.2730 C.2   427  LEU427      0.2287
     29  O        -23.7340  -35.7760   42.0410 O.2   427  LEU427     -0.2864
     30  CB       -22.0020  -36.9290   44.6230 C.3   427  LEU427      0.0297
     31  CG       -20.4840  -37.1100   44.5820 C.3   427  LEU427      0.0022
     32  CD1      -20.0220  -37.1470   43.1470 C.3   427  LEU427      0.0001
     33  CD2      -19.7650  -36.0070   45.3430 C.3   427  LEU427      0.0001
     34  N        -26.4400  -33.9250   42.8380 N.3   429  VAL429     -0.1231
     35  CA       -26.7970  -32.7450   42.0580 C.3   429  VAL429      0.1692
     36  C        -25.8390  -32.5690   40.8870 C.2   429  VAL429      0.2592
     37  O        -26.2530  -32.1960   39.7830 O.2   429  VAL429     -0.2718
     38  CB       -26.8340  -31.4930   42.9520 C.3   429  VAL429      0.0266
     39  CG1      -27.1770  -30.2650   42.1230 C.3   429  VAL429      0.0020
     40  CG2      -27.8220  -31.6660   44.0860 C.3   429  VAL429      0.0020
     41  N        -24.5470  -32.8320   41.1010 N.am  430  HIS430     -0.1976
     42  CA       -23.6050  -32.7890   39.9880 C.3   430  HIS430      0.1656
     43  C        -23.9690  -33.8160   38.9290 C.2   430  HIS430      0.2291
     44  O        -23.9500  -33.5190   37.7300 O.2   430  HIS430     -0.2864
     45  CB       -22.1770  -33.0370   40.4630 C.3   430  HIS430      0.0771
     46  CG       -21.2150  -33.2580   39.3370 C.ar  430  HIS430      0.0820
     47  ND1      -20.6270  -32.2210   38.6480 N.ar  430  HIS430     -0.2267
     48  CD2      -20.7860  -34.3940   38.7400 C.ar  430  HIS430      0.1154
     49  CE1      -19.8440  -32.7080   37.7020 C.ar  430  HIS430      0.1986
     50  NE2      -19.9220  -34.0260   37.7380 N.ar  430  HIS430     -0.2212
     51  N        -26.9810  -32.6030   36.9260 N.3   433  VAL433     -0.1231
     52  CA       -26.7540  -31.3880   36.1500 C.3   433  VAL433      0.1692
     53  C        -25.8300  -31.6600   34.9700 C.2   433  VAL433      0.2591
     54  O        -26.0350  -31.1310   33.8700 O.2   433  VAL433     -0.2718
     55  CB       -26.2140  -30.2720   37.0640 C.3   433  VAL433      0.0266
     56  CG1      -25.5380  -29.1790   36.2490 C.3   433  VAL433      0.0020
     57  CG2      -27.3500  -29.6920   37.8940 C.3   433  VAL433      0.0020
     58  N        -24.8120  -32.4970   35.1640 N.am  434  VAL434     -0.1980
     59  CA       -23.8870  -32.7660   34.0690 C.3   434  VAL434      0.1595
     60  C        -24.4740  -33.7770   33.0860 C.2   434  VAL434      0.2287
     61  O        -24.1320  -33.7600   31.8980 O.2   434  VAL434     -0.2864
     62  CB       -22.5300  -33.2300   34.6210 C.3   434  VAL434      0.0276
     63  CG1      -22.6320  -34.6410   35.1470 C.3   434  VAL434      0.0022
     64  CG2      -21.4560  -33.1230   33.5540 C.3   434  VAL434      0.0022
     65  N        -26.7410  -31.7540   30.7930 N.3   437  PHE437     -0.1241
     66  CA       -25.9960  -30.9960   29.7950 C.3   437  PHE437      0.1605
     67  C        -25.4710  -31.8630   28.6580 C.2   437  PHE437      0.2264
     68  O        -24.7510  -31.3520   27.7930 O.2   437  PHE437     -0.2867
     69  CB       -24.8300  -30.2530   30.4560 C.3   437  PHE437      0.0534
     70  CG       -25.2580  -29.1140   31.3390 C.ar  437  PHE437     -0.0203
     71  CD1      -26.5350  -28.5840   31.2440 C.ar  437  PHE437     -0.0042
     72  CD2      -24.3790  -28.5680   32.2600 C.ar  437  PHE437     -0.0042
     73  CE1      -26.9290  -27.5350   32.0540 C.ar  437  PHE437     -0.0003
     74  CE2      -24.7660  -27.5180   33.0720 C.ar  437  PHE437     -0.0003
     75  CZ       -26.0430  -27.0020   32.9700 C.ar  437  PHE437     -0.0000
     76  N        -18.3480  -36.4540   31.7140 N.3   442  LYS442     -0.1245
     77  CA       -17.8060  -35.4270   32.5930 C.3   442  LYS442      0.1561
     78  C        -18.2460  -35.6300   34.0370 C.2   442  LYS442      0.2260
     79  O        -17.6100  -35.0960   34.9520 O.2   442  LYS442     -0.2867
     80  CB       -18.2350  -34.0460   32.0890 C.3   442  LYS442      0.0271
     81  CG       -17.6870  -32.8660   32.8690 C.3   442  LYS442      0.0035
     82  CD       -18.4110  -31.5860   32.4900 C.3   442  LYS442      0.0206
     83  CE       -18.0320  -31.1160   31.0980 C.3   442  LYS442      0.1093
     84  NZ       -16.6290  -30.6190   31.0530 N.3   442  LYS442     -0.1314
     85  N        -18.5560  -36.7800   37.6730 N.3   444  ILE444     -0.1245
     86  CA       -17.5440  -37.3010   38.5840 C.3   444  ILE444      0.1561
     87  C        -18.0430  -38.6370   39.1230 C.2   444  ILE444      0.2260
     88  O        -18.7310  -38.7060   40.1480 O.2   444  ILE444     -0.2867
     89  CB       -17.1970  -36.2940   39.7040 C.3   444  ILE444      0.0252
     90  CG1      -16.2290  -36.9090   40.7180 C.3   444  ILE444      0.0019
     91  CG2      -18.4340  -35.7500   40.3920 C.3   444  ILE444      0.0019
     92  CD1      -15.7760  -35.9340   41.7840 C.3   444  ILE444      0.0001
@<TRIPOS>BOND
     1    68    67    2
     2    67    66    1
     3    66    69    1
     4    66    65    1
     5    69    70    1
     6    84    83    1
     7    83    82    1
     8    71    70   ar
     9    71    73   ar
    10    70    72   ar
    11    76    77    1
    12    61    60    2
    13    73    75   ar
    14    80    77    1
    15    80    81    1
    16    72    74   ar
    17    82    81    1
    18    77    78    1
    19    75    74   ar
    20    60    59    1
    21    64    62    1
    22    54    53    2
    23    78    79    2
    24    59    62    1
    25    59    58    1
    26    62    63    1
    27    53    58   am
    28    53    52    1
    29    52    51    1
    30    52    55    1
    31    56    55    1
    32    55    57    1
    33    85    86    1
    34    49    50   ar
    35    49    47   ar
    36    44    43    2
    37    50    48   ar
    38    86    87    1
    39    86    89    1
    40    47    46   ar
    41    48    46   ar
    42    43    42    1
    43    87    88    2
    44    46    45    1
    45    89    91    1
    46    89    90    1
    47    37    36    2
    48    42    45    1
    49    42    41    1
    50    90    92    1
    51    36    41   am
    52    36    35    1
    53    29    28    2
    54    35    34    1
    55    35    38    1
    56    39    38    1
    57    38    40    1
    58    32    31    1
    59    28    27    1
    60    25    24    2
    61    27    30    1
    62    27    26    1
    63    31    30    1
    64    31    33    1
    65    24    26   am
    66    24    23    1
    67    23    22    1
    68    15    14    2
    69    14    13    1
    70     4     3    2
    71    13    16    1
    72    13    12    1
    73    16    17    1
    74    19    17   ar
    75    19    21   ar
    76     3    12   am
    77     3     2    1
    78    17    18   ar
    79    21    20   ar
    80     2     5    1
    81     2     1    1
    82    18    20   ar
    83     5     6    1
    84     7     6   ar
    85     7     9   ar
    86     6     8   ar
    87     9    11   ar
    88     8    10   ar
    89    11    10   ar
