@<TRIPOS>MOLECULE
tmp/6fosE08.pdb
 109 109 0 0 0
SMALL
GASTEIGER

@<TRIPOS>ATOM
      1  N        -47.5150  -58.7210   82.6470 N.3    40  PHE40      -0.1241
      2  CA       -47.3920  -60.1560   82.4110 C.3    40  PHE40       0.1605
      3  C        -48.6600  -60.7140   81.7780 C.2    40  PHE40       0.2264
      4  O        -48.5960  -61.5270   80.8480 O.2    40  PHE40      -0.2867
      5  CB       -47.0870  -60.8660   83.7310 C.3    40  PHE40       0.0534
      6  CG       -46.6920  -62.3060   83.5820 C.ar   40  PHE40      -0.0203
      7  CD1      -45.4210  -62.6480   83.1510 C.ar   40  PHE40      -0.0042
      8  CD2      -47.5790  -63.3190   83.9090 C.ar   40  PHE40      -0.0042
      9  CE1      -45.0490  -63.9730   83.0270 C.ar   40  PHE40      -0.0003
     10  CE2      -47.2120  -64.6450   83.7890 C.ar   40  PHE40      -0.0003
     11  CZ       -45.9440  -64.9710   83.3500 C.ar   40  PHE40      -0.0000
     12  N        -49.3080  -62.5030   77.9750 N.3    44  PHE44      -0.1241
     13  CA       -50.0500  -63.7220   77.6800 C.3    44  PHE44       0.1605
     14  C        -51.2680  -63.4410   76.8100 C.2    44  PHE44       0.2264
     15  O        -51.7190  -64.3260   76.0740 O.2    44  PHE44      -0.2867
     16  CB       -50.4600  -64.4150   78.9800 C.3    44  PHE44       0.0534
     17  CG       -49.3410  -65.1740   79.6410 C.ar   44  PHE44      -0.0203
     18  CD1      -48.0250  -64.9880   79.2450 C.ar   44  PHE44      -0.0042
     19  CD2      -49.6070  -66.0870   80.6460 C.ar   44  PHE44      -0.0042
     20  CE1      -46.9990  -65.6910   79.8430 C.ar   44  PHE44      -0.0003
     21  CE2      -48.5840  -66.7930   81.2500 C.ar   44  PHE44      -0.0003
     22  CZ       -47.2790  -66.5970   80.8440 C.ar   44  PHE44      -0.0000
     23  N        -49.2720  -63.0930   73.0100 N.3    47  LEU47      -0.1245
     24  CA       -48.9120  -64.3420   72.3470 C.3    47  LEU47       0.1561
     25  C        -50.1480  -65.1430   71.9650 C.2    47  LEU47       0.2260
     26  O        -50.1200  -65.9020   70.9890 O.2    47  LEU47      -0.2867
     27  CB       -47.9990  -65.1750   73.2470 C.3    47  LEU47       0.0270
     28  CG       -46.6080  -64.6070   73.5300 C.3    47  LEU47       0.0019
     29  CD1      -45.8360  -65.5260   74.4640 C.3    47  LEU47       0.0001
     30  CD2      -45.8470  -64.3960   72.2320 C.3    47  LEU47       0.0001
     31  N        -53.6890  -70.7700   77.0080 N.3   140  PHE140     -0.1241
     32  CA       -52.5900  -69.8920   77.3950 C.3   140  PHE140      0.1605
     33  C        -53.1130  -68.6370   78.0860 C.2   140  PHE140      0.2264
     34  O        -52.5770  -68.2170   79.1190 O.2   140  PHE140     -0.2867
     35  CB       -51.7700  -69.5360   76.1540 C.3   140  PHE140      0.0534
     36  CG       -50.5340  -68.7330   76.4360 C.ar  140  PHE140     -0.0203
     37  CD1      -49.4930  -69.2670   77.1750 C.ar  140  PHE140     -0.0042
     38  CD2      -50.3970  -67.4550   75.9210 C.ar  140  PHE140     -0.0042
     39  CE1      -48.3490  -68.5310   77.4170 C.ar  140  PHE140     -0.0003
     40  CE2      -49.2560  -66.7180   76.1580 C.ar  140  PHE140     -0.0003
     41  CZ       -48.2310  -67.2570   76.9050 C.ar  140  PHE140     -0.0000
     42  N        -39.5940  -62.7720   91.9190 N.3   158  TRP158     -0.1227
     43  CA       -39.6300  -63.7050   90.8010 C.3   158  TRP158      0.1737
     44  C        -39.2660  -63.0650   89.4710 C.2   158  TRP158      0.2595
     45  O        -38.8240  -63.7830   88.5650 O.2   158  TRP158     -0.2718
     46  CB       -41.0180  -64.3550   90.6840 C.3   158  TRP158      0.0564
     47  CG       -41.0750  -65.4900   89.7040 C.ar  158  TRP158      0.0003
     48  CD1      -40.4120  -66.6800   89.7880 C.ar  158  TRP158      0.0946
     49  CD2      -41.8480  -65.5460   88.4990 C.ar  158  TRP158      0.0152
     50  NE1      -40.7180  -67.4700   88.7070 N.ar  158  TRP158     -0.2442
     51  CE2      -41.5990  -66.7980   87.9010 C.ar  158  TRP158      0.0810
     52  CE3      -42.7250  -64.6600   87.8670 C.ar  158  TRP158      0.0012
     53  CZ2      -42.1940  -67.1840   86.7020 C.ar  158  TRP158      0.0191
     54  CZ3      -43.3140  -65.0450   86.6760 C.ar  158  TRP158      0.0001
     55  CH2      -43.0460  -66.2950   86.1060 C.ar  158  TRP158      0.0015
     56  N        -39.4290  -61.7500   89.3220 N.am  159  PHE159     -0.1976
     57  CA       -38.9550  -61.0090   88.1600 C.3   159  PHE159      0.1639
     58  C        -37.6360  -60.2930   88.4190 C.2   159  PHE159      0.2290
     59  O        -36.7880  -60.2250   87.5250 O.2   159  PHE159     -0.2864
     60  CB       -40.0000  -59.9790   87.7180 C.3   159  PHE159      0.0560
     61  CG       -41.3270  -60.5730   87.3360 C.ar  159  PHE159     -0.0200
     62  CD1      -41.5520  -61.0310   86.0490 C.ar  159  PHE159     -0.0042
     63  CD2      -42.3550  -60.6550   88.2600 C.ar  159  PHE159     -0.0042
     64  CE1      -42.7740  -61.5710   85.6930 C.ar  159  PHE159     -0.0003
     65  CE2      -43.5800  -61.1940   87.9110 C.ar  159  PHE159     -0.0003
     66  CZ       -43.7890  -61.6500   86.6250 C.ar  159  PHE159     -0.0000
     67  N        -35.2260  -66.9750   86.4580 N.3   165  ARG165     -0.1245
     68  CA       -35.4690  -67.6650   85.1970 C.3   165  ARG165      0.1563
     69  C        -34.5750  -67.1750   84.0670 C.2   165  ARG165      0.2260
     70  O        -34.6590  -67.7250   82.9650 O.2   165  ARG165     -0.2867
     71  CB       -36.9390  -67.5240   84.7980 C.3   165  ARG165      0.0307
     72  CG       -37.3700  -66.1040   84.4810 C.3   165  ARG165      0.0489
     73  CD       -37.6550  -65.9360   82.9990 C.3   165  ARG165      0.2205
     74  NE       -38.0260  -64.5640   82.6670 N.pl3 165  ARG165     -0.0865
     75  CZ       -37.1610  -63.6300   82.2870 C.cat 165  ARG165      0.5346
     76  NH1      -35.8720  -63.9220   82.1860 N.pl3 165  ARG165      0.1354
     77  NH2      -37.5840  -62.4060   82.0050 N.pl3 165  ARG165      0.1354
     78  N        -32.9020  -70.7800   83.3970 N.3   168  HIS168     -0.1226
     79  CA       -33.6070  -71.9460   82.8770 C.3   168  HIS168      0.1752
     80  C        -34.4980  -71.6030   81.6880 C.2   168  HIS168      0.2596
     81  O        -34.7060  -72.4500   80.8120 O.2   168  HIS168     -0.2718
     82  CB       -34.4240  -72.5990   83.9920 C.3   168  HIS168      0.0759
     83  CG       -33.5940  -73.0680   85.1460 C.ar  168  HIS168      0.0818
     84  ND1      -32.6950  -74.1070   85.0410 N.ar  168  HIS168     -0.2268
     85  CD2      -33.5240  -72.6370   86.4270 C.ar  168  HIS168      0.1154
     86  CE1      -32.1070  -74.2970   86.2080 C.ar  168  HIS168      0.1986
     87  NE2      -32.5930  -73.4190   87.0670 N.ar  168  HIS168     -0.2212
     88  N        -35.0400  -70.3830   81.6360 N.am  169  HIS169     -0.1975
     89  CA       -35.8330  -69.9870   80.4750 C.3   169  HIS169      0.1656
     90  C        -34.9690  -69.9180   79.2210 C.2   169  HIS169      0.2291
     91  O        -35.4040  -70.3270   78.1370 O.2   169  HIS169     -0.2864
     92  CB       -36.5190  -68.6450   80.7360 C.3   169  HIS169      0.0771
     93  CG       -37.2590  -68.0950   79.5550 C.ar  169  HIS169      0.0820
     94  ND1      -37.4670  -66.7440   79.3740 N.ar  169  HIS169     -0.2267
     95  CD2      -37.8470  -68.7100   78.5010 C.ar  169  HIS169      0.1154
     96  CE1      -38.1450  -66.5510   78.2580 C.ar  169  HIS169      0.1986
     97  NE2      -38.3870  -67.7270   77.7080 N.ar  169  HIS169     -0.2212
     98  N        -33.4330  -73.7870   77.5680 N.3   172  GLY172     -0.1210
     99  CA       -34.6170  -74.6020   77.7530 C.3   172  GLY172      0.1956
    100  C        -35.6450  -74.4230   76.6580 C.2   172  GLY172      0.2611
    101  O        -36.4260  -75.3370   76.3770 O.2   172  GLY172     -0.2717
    102  N        -35.6570  -73.2460   76.0310 N.am  173  LEU173     -0.1979
    103  CA       -36.5960  -72.9720   74.9470 C.3   173  LEU173      0.1596
    104  C        -36.0180  -73.4240   73.6120 C.2   173  LEU173      0.2287
    105  O        -36.4120  -74.4640   73.0810 O.2   173  LEU173     -0.2864
    106  CB       -36.9510  -71.4850   74.9090 C.3   173  LEU173      0.0297
    107  CG       -37.9300  -71.0590   73.8130 C.3   173  LEU173      0.0022
    108  CD1      -39.2120  -71.8760   73.8890 C.3   173  LEU173      0.0001
    109  CD2      -38.2310  -69.5720   73.9040 C.3   173  LEU173      0.0001
@<TRIPOS>BOND
     1    26    25    2
     2    25    24    1
     3    30    28    1
     4    24    23    1
     5    24    27    1
     6   105   104    2
     7    27    28    1
     8    28    29    1
     9   104   103    1
    10   107   108    1
    11   107   109    1
    12   107   106    1
    13   106   103    1
    14   103   102    1
    15    38    40   ar
    16    38    36   ar
    17   102   100   am
    18    15    14    2
    19    35    36    1
    20    35    32    1
    21    40    41   ar
    22   101   100    2
    23    36    37   ar
    24   100    99    1
    25    14    13    1
    26    41    39   ar
    27    31    32    1
    28    37    39   ar
    29    32    33    1
    30    98    99    1
    31    13    12    1
    32    13    16    1
    33    97    96   ar
    34    97    95   ar
    35    33    34    2
    36    91    90    2
    37    96    94   ar
    38    95    93   ar
    39    16    17    1
    40    90    89    1
    41    18    17   ar
    42    18    20   ar
    43    94    93   ar
    44    93    92    1
    45    17    19   ar
    46    20    22   ar
    47    89    92    1
    48    89    88    1
    49    19    21   ar
    50    81    80    2
    51    22    21   ar
    52     4     3    2
    53    88    80   am
    54    80    79    1
    55     3     2    1
    56    77    75    1
    57    76    75    1
    58    75    74    2
    59     2     1    1
    60     2     5    1
    61    74    73    1
    62    79    78    1
    63    79    82    1
    64    70    69    2
    65    73    72    1
    66     9     7   ar
    67     9    11   ar
    68     7     6   ar
    69    11    10   ar
    70     6     5    1
    71     6     8   ar
    72    10     8   ar
    73    82    83    1
    74    69    68    1
    75    72    71    1
    76    71    68    1
    77    84    83   ar
    78    84    86   ar
    79    83    85   ar
    80    68    67    1
    81    64    62   ar
    82    64    66   ar
    83    62    61   ar
    84    55    54   ar
    85    55    53   ar
    86    86    87   ar
    87    85    87   ar
    88    66    65   ar
    89    54    52   ar
    90    53    51   ar
    91    61    60    1
    92    61    63   ar
    93    59    58    2
    94    60    57    1
    95    52    49   ar
    96    51    49   ar
    97    51    50   ar
    98    65    63   ar
    99    57    58    1
   100    57    56    1
   101    49    47   ar
   102    45    44    2
   103    50    48   ar
   104    56    44   am
   105    44    43    1
   106    47    48   ar
   107    47    46    1
   108    46    43    1
   109    43    42    1
