@<TRIPOS>MOLECULE
tmp/6fosA06.pdb
 83 79 0 0 0
SMALL
GASTEIGER

@<TRIPOS>ATOM
      1  N        -24.5900   17.9410   45.0310 N.3     8  TRP8       -0.1241
      2  CA       -24.1950   17.1460   43.8740 C.3     8  TRP8        0.1605
      3  C        -24.7940   17.6920   42.5850 C.2     8  TRP8        0.2264
      4  O        -24.2020   17.5290   41.5120 O.2     8  TRP8       -0.2867
      5  CB       -24.6010   15.6850   44.0670 C.3     8  TRP8        0.0550
      6  CG       -24.1270   14.7970   42.9590 C.ar    8  TRP8        0.0003
      7  CD1      -24.8510   14.3600   41.8890 C.ar    8  TRP8        0.0946
      8  CD2      -22.8130   14.2490   42.8050 C.ar    8  TRP8        0.0152
      9  NE1      -24.0720   13.5670   41.0810 N.ar    8  TRP8       -0.2442
     10  CE2      -22.8150   13.4840   41.6220 C.ar    8  TRP8        0.0810
     11  CE3      -21.6350   14.3280   43.5540 C.ar    8  TRP8        0.0012
     12  CZ2      -21.6860   12.8030   41.1710 C.ar    8  TRP8        0.0191
     13  CZ3      -20.5160   13.6520   43.1050 C.ar    8  TRP8        0.0001
     14  CH2      -20.5490   12.8990   41.9250 C.ar    8  TRP8        0.0015
     15  N        -22.3030   18.6070   39.7060 N.3    12  ALA12      -0.1245
     16  CA       -22.3980   17.9590   38.4020 C.3    12  ALA12       0.1562
     17  C        -22.5270   18.9830   37.2830 C.2    12  ALA12       0.2260
     18  O        -21.9840   18.7920   36.1890 O.2    12  ALA12      -0.2867
     19  CB       -23.5800   16.9890   38.3810 C.3    12  ALA12       0.0290
     20  N        -19.0210   20.1970   37.1160 N.3    15  LYS15      -0.1231
     21  CA       -18.1520   19.1050   36.6940 C.3    15  LYS15       0.1693
     22  C        -18.3510   18.7110   35.2370 C.2    15  LYS15       0.2592
     23  O        -17.5190   17.9760   34.6960 O.2    15  LYS15      -0.2718
     24  CB       -18.3680   17.8840   37.5890 C.3    15  LYS15       0.0285
     25  CG       -17.9400   18.0900   39.0310 C.3    15  LYS15       0.0035
     26  CD       -18.2420   16.8620   39.8700 C.3    15  LYS15       0.0206
     27  CE       -17.8310   17.0660   41.3180 C.3    15  LYS15       0.1093
     28  NZ       -18.1060   15.8560   42.1400 N.3    15  LYS15      -0.1314
     29  N        -19.4240   19.1710   34.5910 N.am   16  HIS16      -0.1976
     30  CA       -19.6370   18.9080   33.1770 C.3    16  HIS16       0.1656
     31  C        -19.6280   20.1560   32.3080 C.2    16  HIS16       0.2291
     32  O        -19.3990   20.0360   31.1000 O.2    16  HIS16      -0.2864
     33  CB       -20.9650   18.1650   32.9550 C.3    16  HIS16       0.0771
     34  CG       -21.1160   17.6040   31.5740 C.ar   16  HIS16       0.0820
     35  ND1      -21.6790   18.3170   30.5380 N.ar   16  HIS16      -0.2267
     36  CD2      -20.7670   16.4020   31.0580 C.ar   16  HIS16       0.1154
     37  CE1      -21.6750   17.5770   29.4440 C.ar   16  HIS16       0.1986
     38  NE2      -21.1270   16.4100   29.7320 N.ar   16  HIS16      -0.2212
     39  N        -16.4210   20.3070   30.9730 N.3    19  VAL19      -0.1245
     40  CA       -16.3260   19.2060   30.0210 C.3    19  VAL19       0.1561
     41  C        -17.1320   19.5170   28.7670 C.2    19  VAL19       0.2260
     42  O        -16.7060   19.2130   27.6460 O.2    19  VAL19      -0.2867
     43  CB       -16.7810   17.8910   30.6800 C.3    19  VAL19       0.0252
     44  CG1      -16.7090   16.7410   29.6870 C.3    19  VAL19       0.0019
     45  CG2      -15.9330   17.5930   31.9070 C.3    19  VAL19       0.0019
     46  N        -10.7070    6.1770   30.2090 N.3    65  LEU65      -0.1245
     47  CA       -11.7210    5.9630   31.2370 C.3    65  LEU65       0.1561
     48  C        -11.0950    5.5500   32.5620 C.2    65  LEU65       0.2260
     49  O        -11.6860    5.7780   33.6240 O.2    65  LEU65      -0.2867
     50  CB       -12.7290    4.9080   30.7780 C.3    65  LEU65       0.0270
     51  CG       -13.5410    5.1850   29.5090 C.3    65  LEU65       0.0019
     52  CD1      -14.4360    3.9990   29.1740 C.3    65  LEU65       0.0001
     53  CD2      -14.3570    6.4580   29.6370 C.3    65  LEU65       0.0001
     54  N         -9.3510    8.9400   33.9680 N.3    68  CYS68      -0.1221
     55  CA       -10.4240    9.8700   34.3030 C.3    68  CYS68       0.1808
     56  C        -11.1500    9.4490   35.5730 C.2    68  CYS68       0.2601
     57  O        -11.6940   10.2990   36.2870 O.2    68  CYS68      -0.2717
     58  CB       -11.4070    9.9790   33.1380 C.3    68  CYS68       0.0970
     59  SG       -12.3100   11.5390   33.0600 S.3    68  CYS68      -0.0800
     60  N        -11.1680    8.1470   35.8710 N.am   69  ALA69      -0.1979
     61  CA       -11.7860    7.6740   37.1050 C.3    69  ALA69       0.1597
     62  C        -11.1090    8.2930   38.3220 C.2    69  ALA69       0.2287
     63  O        -11.7480    8.9940   39.1140 O.2    69  ALA69      -0.2864
     64  CB       -11.7350    6.1460   37.1690 C.3    69  ALA69       0.0319
     65  N        -11.6670   11.9860   38.8610 N.3    72  PHE72      -0.1241
     66  CA       -12.8780   12.2950   39.6080 C.3    72  PHE72       0.1605
     67  C        -12.8590   11.7190   41.0190 C.2    72  PHE72       0.2264
     68  O        -13.5450   12.2520   41.8950 O.2    72  PHE72      -0.2867
     69  CB       -14.1100   11.7990   38.8470 C.3    72  PHE72       0.0534
     70  CG       -14.4350   12.6170   37.6260 C.ar   72  PHE72      -0.0203
     71  CD1      -14.9330   13.9030   37.7530 C.ar   72  PHE72      -0.0042
     72  CD2      -14.2470   12.1010   36.3550 C.ar   72  PHE72      -0.0042
     73  CE1      -15.2330   14.6610   36.6360 C.ar   72  PHE72      -0.0003
     74  CE2      -14.5480   12.8550   35.2340 C.ar   72  PHE72      -0.0003
     75  CZ       -15.0400   14.1360   35.3750 C.ar   72  PHE72      -0.0000
     76  N        -13.9310   14.0360   44.0210 N.3    76  LEU76      -0.1245
     77  CA       -14.9090   13.7030   45.0580 C.3    76  LEU76       0.1561
     78  C        -14.4480   14.1150   46.4530 C.2    76  LEU76       0.2260
     79  O        -15.2620   14.6780   47.2050 O.2    76  LEU76      -0.2867
     80  CB       -15.2430   12.2080   45.0000 C.3    76  LEU76       0.0270
     81  CG       -15.9580   11.6540   43.7670 C.3    76  LEU76       0.0019
     82  CD1      -15.9160   10.1330   43.7680 C.3    76  LEU76       0.0001
     83  CD2      -17.3890   12.1500   43.7130 C.3    76  LEU76       0.0001
@<TRIPOS>BOND
     1    42    41    2
     2    41    40    1
     3    52    51    1
     4    37    38   ar
     5    37    35   ar
     6    51    53    1
     7    51    50    1
     8    44    43    1
     9    38    36   ar
    10    40    43    1
    11    40    39    1
    12    46    47    1
    13    35    34   ar
    14    43    45    1
    15    50    47    1
    16    36    34   ar
    17    32    31    2
    18    47    48    1
    19    34    33    1
    20    31    30    1
    21    48    49    2
    22    33    30    1
    23    59    58    1
    24    58    55    1
    25    30    29    1
    26    54    55    1
    27    55    56    1
    28    29    22   am
    29    23    22    2
    30    74    75   ar
    31    74    72   ar
    32    22    21    1
    33    75    73   ar
    34    56    60   am
    35    56    57    2
    36    60    61    1
    37    18    17    2
    38    72    70   ar
    39    73    71   ar
    40    21    20    1
    41    21    24    1
    42    61    64    1
    43    61    62    1
    44    17    16    1
    45    24    25    1
    46    70    71   ar
    47    70    69    1
    48    62    63    2
    49    19    16    1
    50    16    15    1
    51    69    66    1
    52    65    66    1
    53    25    26    1
    54    66    67    1
    55    26    27    1
    56    67    68    2
    57     9    10   ar
    58     9     7   ar
    59    12    10   ar
    60    12    14   ar
    61    27    28    1
    62     4     3    2
    63    10     8   ar
    64     7     6   ar
    65    14    13   ar
    66     3     2    1
    67     8     6   ar
    68     8    11   ar
    69     6     5    1
    70    13    11   ar
    71    83    81    1
    72    81    82    1
    73    81    80    1
    74     2     5    1
    75     2     1    1
    76    76    77    1
    77    80    77    1
    78    77    78    1
    79    78    79    2
