@<TRIPOS>MOLECULE
tmp/6fosE32.pdb
 225 218 0 0 0
SMALL
GASTEIGER

@<TRIPOS>ATOM
      1  N        -23.6070  -35.9140   60.2700 N.3   417  SER417     -0.1217
      2  CA       -24.8480  -35.7310   59.5220 C.3   417  SER417      0.1889
      3  C        -24.6940  -34.6640   58.4450 C.2   417  SER417      0.2288
      4  O        -25.2790  -34.7770   57.3620 O.2   417  SER417     -0.2866
      5  CB       -25.9860  -35.3720   60.4760 C.3   417  SER417      0.2089
      6  OG       -27.2000  -35.1860   59.7710 O.3   417  SER417     -0.2183
      7  N        -24.0080  -35.3860   53.9960 N.3   421  GLY421     -0.1225
      8  CA       -25.0110  -34.7390   53.1760 C.3   421  GLY421      0.1811
      9  C        -24.4180  -33.8940   52.0690 C.2   421  GLY421      0.2280
     10  O        -24.7670  -34.0660   50.8970 O.2   421  GLY421     -0.2866
     11  N        -22.8760  -36.6060   49.5220 N.3   424  THR424     -0.1203
     12  CA       -23.7940  -37.5310   48.8640 C.3   424  THR424      0.1994
     13  C        -24.7590  -36.7820   47.9520 C.2   424  THR424      0.2617
     14  O        -24.8180  -37.0350   46.7430 O.2   424  THR424     -0.2717
     15  CB       -24.5650  -38.3450   49.9030 C.3   424  THR424      0.1784
     16  OG1      -23.6520  -39.1490   50.6600 O.3   424  THR424     -0.2211
     17  CG2      -25.5800  -39.2410   49.2210 C.3   424  THR424      0.0376
     18  N        -25.5230  -35.8460   48.5200 N.am  425  LEU425     -0.1979
     19  CA       -26.4740  -35.0910   47.7110 C.3   425  LEU425      0.1596
     20  C        -25.7660  -34.1180   46.7780 C.2   425  LEU425      0.2287
     21  O        -26.2610  -33.8490   45.6790 O.2   425  LEU425     -0.2864
     22  CB       -27.4650  -34.3510   48.6100 C.3   425  LEU425      0.0297
     23  CG       -28.7050  -33.7980   47.9030 C.3   425  LEU425      0.0022
     24  CD1      -29.9500  -34.0790   48.7190 C.3   425  LEU425      0.0001
     25  CD2      -28.5680  -32.3080   47.6440 C.3   425  LEU425      0.0001
     26  N        -24.9510  -36.0790   43.9130 N.3   428  TYR428     -0.1227
     27  CA       -26.1820  -36.3320   43.1720 C.3   428  TYR428      0.1736
     28  C        -26.5690  -35.1410   42.3050 C.2   428  TYR428      0.2595
     29  O        -26.9890  -35.3140   41.1540 O.2   428  TYR428     -0.2718
     30  CB       -27.3140  -36.6750   44.1390 C.3   428  TYR428      0.0548
     31  CG       -27.5250  -38.1570   44.3340 C.ar  428  TYR428     -0.0200
     32  CD1      -27.1750  -39.0630   43.3420 C.ar  428  TYR428     -0.0009
     33  CD2      -28.0780  -38.6510   45.5080 C.ar  428  TYR428     -0.0009
     34  CE1      -27.3680  -40.4200   43.5130 C.ar  428  TYR428      0.0417
     35  CE2      -28.2760  -40.0060   45.6880 C.ar  428  TYR428      0.0417
     36  CZ       -27.9190  -40.8860   44.6880 C.ar  428  TYR428      0.1957
     37  OH       -28.1130  -42.2370   44.8630 O.3   428  TYR428     -0.2866
     38  N        -26.4400  -33.9250   42.8380 N.am  429  VAL429     -0.1980
     39  CA       -26.7970  -32.7450   42.0580 C.3   429  VAL429      0.1595
     40  C        -25.8390  -32.5690   40.8870 C.2   429  VAL429      0.2287
     41  O        -26.2530  -32.1960   39.7830 O.2   429  VAL429     -0.2864
     42  CB       -26.8340  -31.4930   42.9520 C.3   429  VAL429      0.0276
     43  CG1      -27.1770  -30.2650   42.1230 C.3   429  VAL429      0.0022
     44  CG2      -27.8220  -31.6660   44.0860 C.3   429  VAL429      0.0022
     45  N        -26.9030  -35.1710   38.1410 N.3   432  ASP432     -0.1225
     46  CA       -28.0660  -34.7470   37.3670 C.3   432  ASP432      0.1805
     47  C        -27.7310  -33.5900   36.4340 C.2   432  ASP432      0.2597
     48  O        -28.1490  -33.5810   35.2700 O.2   432  ASP432     -0.2718
     49  CB       -29.2030  -34.3470   38.3050 C.3   432  ASP432      0.1424
     50  CG       -29.7620  -35.5170   39.0840 C.2   432  ASP432      0.3668
     51  OD1      -29.8730  -36.6190   38.5090 O.co2 432  ASP432     -0.2456
     52  OD2      -30.0980  -35.3320   40.2720 O.co2 432  ASP432     -0.2456
     53  N        -26.9810  -32.6030   36.9260 N.am  433  VAL433     -0.1980
     54  CA       -26.7540  -31.3880   36.1500 C.3   433  VAL433      0.1595
     55  C        -25.8300  -31.6600   34.9700 C.2   433  VAL433      0.2287
     56  O        -26.0350  -31.1310   33.8700 O.2   433  VAL433     -0.2864
     57  CB       -26.2140  -30.2720   37.0640 C.3   433  VAL433      0.0276
     58  CG1      -25.5380  -29.1790   36.2490 C.3   433  VAL433      0.0022
     59  CG2      -27.3500  -29.6920   37.8940 C.3   433  VAL433      0.0022
     60  N        -25.6400  -42.6300   50.8010 N.3   513  ALA513     -0.1245
     61  CA       -26.8700  -41.9860   51.2470 C.3   513  ALA513      0.1562
     62  C        -27.4880  -42.7240   52.4280 C.2   513  ALA513      0.2260
     63  O        -28.0540  -42.0970   53.3310 O.2   513  ALA513     -0.2867
     64  CB       -27.8670  -41.8980   50.0920 C.3   513  ALA513      0.0290
     65  N        -25.6550  -41.6810   55.3950 N.3   516  LEU516     -0.1245
     66  CA       -26.0950  -40.3380   55.7600 C.3   516  LEU516      0.1561
     67  C        -27.3900  -40.3830   56.5630 C.2   516  LEU516      0.2260
     68  O        -27.4670  -39.8490   57.6750 O.2   516  LEU516     -0.2867
     69  CB       -26.2700  -39.4900   54.4980 C.3   516  LEU516      0.0270
     70  CG       -27.0820  -38.2000   54.6340 C.3   516  LEU516      0.0019
     71  CD1      -26.4140  -37.2280   55.5940 C.3   516  LEU516      0.0001
     72  CD2      -27.2930  -37.5570   53.2730 C.3   516  LEU516      0.0001
     73  N        -27.7790  -39.7070   60.7050 N.3   520  THR520     -0.1218
     74  CA       -28.6750  -38.6370   61.1320 C.3   520  THR520      0.1862
     75  C        -29.7720  -39.1820   62.0350 C.2   520  THR520      0.2287
     76  O        -30.0790  -38.6030   63.0830 O.2   520  THR520     -0.2866
     77  CB       -29.2830  -37.9410   59.9130 C.3   520  THR520      0.1770
     78  OG1      -28.2360  -37.4780   59.0510 O.3   520  THR520     -0.2211
     79  CG2      -30.1390  -36.7590   60.3440 C.3   520  THR520      0.0375
     80  N        -40.4450  -39.8950   61.4250 N.3   572  PHE572     -0.1227
     81  CA       -40.3700  -39.3690   60.0650 C.3   572  PHE572      0.1736
     82  C        -39.1020  -39.8420   59.3660 C.2   572  PHE572      0.2595
     83  O        -39.1430  -40.2960   58.2170 O.2   572  PHE572     -0.2718
     84  CB       -40.4310  -37.8420   60.0890 C.3   572  PHE572      0.0547
     85  CG       -41.7230  -37.2910   60.6170 C.ar  572  PHE572     -0.0202
     86  CD1      -42.8760  -38.0600   60.6170 C.ar  572  PHE572     -0.0042
     87  CD2      -41.7860  -35.9990   61.1100 C.ar  572  PHE572     -0.0042
     88  CE1      -44.0640  -37.5510   61.1020 C.ar  572  PHE572     -0.0003
     89  CE2      -42.9710  -35.4860   61.5950 C.ar  572  PHE572     -0.0003
     90  CZ       -44.1110  -36.2630   61.5910 C.ar  572  PHE572     -0.0000
     91  N        -37.9600  -39.7370   60.0490 N.am  573  TRP573     -0.1976
     92  CA       -36.7080  -40.2190   59.4760 C.3   573  TRP573      0.1640
     93  C        -36.7190  -41.7250   59.2830 C.2   573  TRP573      0.2290
     94  O        -36.1090  -42.2310   58.3340 O.2   573  TRP573     -0.2864
     95  CB       -35.5350  -39.8180   60.3640 C.3   573  TRP573      0.0576
     96  CG       -35.1680  -38.3950   60.2170 C.ar  573  TRP573      0.0006
     97  CD1      -35.6380  -37.3520   60.9510 C.ar  573  TRP573      0.0946
     98  CD2      -34.2590  -37.8430   59.2620 C.ar  573  TRP573      0.0152
     99  NE1      -35.0700  -36.1820   60.5190 N.ar  573  TRP573     -0.2442
    100  CE2      -34.2200  -36.4540   59.4810 C.ar  573  TRP573      0.0810
    101  CE3      -33.4710  -38.3880   58.2440 C.ar  573  TRP573      0.0012
    102  CZ2      -33.4250  -35.6000   58.7210 C.ar  573  TRP573      0.0191
    103  CZ3      -32.6830  -37.5410   57.4910 C.ar  573  TRP573      0.0001
    104  CH2      -32.6650  -36.1620   57.7330 C.ar  573  TRP573      0.0015
    105  N        -39.2540  -43.7490   58.4010 N.3   575  LEU575     -0.1231
    106  CA       -39.9560  -44.1340   57.1810 C.3   575  LEU575      0.1693
    107  C        -39.1270  -43.8350   55.9380 C.2   575  LEU575      0.2592
    108  O        -39.0520  -44.6610   55.0210 O.2   575  LEU575     -0.2718
    109  CB       -41.3080  -43.4230   57.1060 C.3   575  LEU575      0.0284
    110  CG       -42.5170  -44.1380   57.7180 C.3   575  LEU575      0.0019
    111  CD1      -42.3590  -44.3290   59.2190 C.3   575  LEU575      0.0001
    112  CD2      -43.7980  -43.3820   57.4080 C.3   575  LEU575      0.0001
    113  N        -38.4840  -42.6660   55.8910 N.am  576  ASN576     -0.1974
    114  CA       -37.7790  -42.2760   54.6740 C.3   576  ASN576      0.1688
    115  C        -36.4510  -43.0090   54.5230 C.2   576  ASN576      0.2292
    116  O        -36.0940  -43.4180   53.4120 O.2   576  ASN576     -0.2864
    117  CB       -37.5520  -40.7650   54.6490 C.3   576  ASN576      0.1181
    118  CG       -37.4110  -40.2240   53.2390 C.2   576  ASN576      0.2629
    119  OD1      -37.5360  -39.0240   53.0090 O.2   576  ASN576     -0.2716
    120  ND2      -37.1680  -41.1130   52.2830 N.am  576  ASN576     -0.0877
    121  N        -35.4330  -45.5000   51.6590 N.3   580  TRP580     -0.1241
    122  CA       -34.2560  -45.4020   50.7990 C.3   580  TRP580      0.1605
    123  C        -33.6270  -46.7710   50.5840 C.2   580  TRP580      0.2264
    124  O        -33.2830  -47.1410   49.4550 O.2   580  TRP580     -0.2867
    125  CB       -33.2320  -44.4480   51.4110 C.3   580  TRP580      0.0550
    126  CG       -33.5900  -43.0030   51.3310 C.ar  580  TRP580      0.0003
    127  CD1      -34.5970  -42.4420   50.6020 C.ar  580  TRP580      0.0946
    128  CD2      -32.9350  -41.9280   52.0080 C.ar  580  TRP580      0.0152
    129  NE1      -34.6070  -41.0790   50.7850 N.ar  580  TRP580     -0.2442
    130  CE2      -33.5970  -40.7400   51.6450 C.ar  580  TRP580      0.0810
    131  CE3      -31.8510  -41.8550   52.8890 C.ar  580  TRP580      0.0012
    132  CZ2      -33.2110  -39.4940   52.1320 C.ar  580  TRP580      0.0191
    133  CZ3      -31.4700  -40.6200   53.3700 C.ar  580  TRP580      0.0001
    134  CH2      -32.1470  -39.4570   52.9910 C.ar  580  TRP580      0.0015
    135  N        -35.9800  -48.6170   48.2030 N.3   583  PHE583     -0.1241
    136  CA       -35.8880  -48.0990   46.8410 C.3   583  PHE583      0.1605
    137  C        -34.6150  -48.5830   46.1600 C.2   583  PHE583      0.2264
    138  O        -34.6080  -48.8540   44.9530 O.2   583  PHE583     -0.2867
    139  CB       -35.9350  -46.5700   46.8480 C.3   583  PHE583      0.0534
    140  CG       -37.2710  -45.9990   47.2290 C.ar  583  PHE583     -0.0203
    141  CD1      -38.4170  -46.7770   47.1830 C.ar  583  PHE583     -0.0042
    142  CD2      -37.3810  -44.6770   47.6290 C.ar  583  PHE583     -0.0042
    143  CE1      -39.6450  -46.2460   47.5330 C.ar  583  PHE583     -0.0003
    144  CE2      -38.6060  -44.1420   47.9800 C.ar  583  PHE583     -0.0003
    145  CZ       -39.7390  -44.9280   47.9310 C.ar  583  PHE583     -0.0000
    146  N        -29.9380  -38.8670   39.9140 N.3   607  LEU607     -0.1231
    147  CA       -31.2790  -39.0400   40.4630 C.3   607  LEU607      0.1693
    148  C        -32.3410  -39.1210   39.3750 C.2   607  LEU607      0.2591
    149  O        -33.3860  -39.7480   39.5830 O.2   607  LEU607     -0.2718
    150  CB       -31.6010  -37.8980   41.4260 C.3   607  LEU607      0.0284
    151  CG       -30.7460  -37.8170   42.6890 C.3   607  LEU607      0.0019
    152  CD1      -30.9170  -36.4640   43.3510 C.3   607  LEU607      0.0001
    153  CD2      -31.1190  -38.9340   43.6490 C.3   607  LEU607      0.0001
    154  N        -32.1050  -38.4920   38.2210 N.am  608  MET608     -0.1979
    155  CA       -33.0950  -38.5400   37.1500 C.3   608  MET608      0.1605
    156  C        -33.3020  -39.9630   36.6490 C.2   608  MET608      0.2287
    157  O        -34.4050  -40.3140   36.2140 O.2   608  MET608     -0.2864
    158  CB       -32.6780  -37.6180   36.0030 C.3   608  MET608      0.0413
    159  CG       -33.7470  -37.4370   34.9390 C.3   608  MET608      0.0598
    160  SD       -35.3250  -36.8960   35.6260 S.3   608  MET608     -0.1393
    161  CE       -34.9110  -35.2550   36.2100 C.3   608  MET608      0.0692
    162  N        -35.7850  -41.3390   38.7820 N.3   611  LEU611     -0.1245
    163  CA       -37.1090  -40.7650   38.5790 C.3   611  LEU611      0.1561
    164  C        -37.8280  -41.3620   37.3750 C.2   611  LEU611      0.2260
    165  O        -39.0220  -41.6660   37.4610 O.2   611  LEU611     -0.2867
    166  CB       -37.0120  -39.2450   38.4160 C.3   611  LEU611      0.0270
    167  CG       -38.3620  -38.5300   38.2990 C.3   611  LEU611      0.0019
    168  CD1      -39.1280  -38.6170   39.6080 C.3   611  LEU611      0.0001
    169  CD2      -38.1990  -37.0810   37.8680 C.3   611  LEU611      0.0001
    170  N        -40.0050  -44.6260   39.3010 N.3   615  LEU615     -0.1245
    171  CA       -41.2630  -43.9930   39.6740 C.3   615  LEU615      0.1561
    172  C        -42.1960  -43.7730   38.4890 C.2   615  LEU615      0.2260
    173  O        -43.3310  -43.3300   38.6970 O.2   615  LEU615     -0.2867
    174  CB       -40.9860  -42.6570   40.3670 C.3   615  LEU615      0.0270
    175  CG       -40.0450  -42.6430   41.5750 C.3   615  LEU615      0.0019
    176  CD1      -39.8300  -41.2210   42.0650 C.3   615  LEU615      0.0001
    177  CD2      -40.5780  -43.5110   42.6990 C.3   615  LEU615      0.0001
    178  N        -52.1750  -40.7500   53.4250 N.3   648  TRP648     -0.1241
    179  CA       -50.9240  -40.0320   53.6450 C.3   648  TRP648      0.1605
    180  C        -51.1580  -38.5270   53.6850 C.2   648  TRP648      0.2264
    181  O        -50.7780  -37.8520   54.6490 O.2   648  TRP648     -0.2867
    182  CB       -49.9140  -40.3890   52.5570 C.3   648  TRP648      0.0550
    183  CG       -48.6830  -39.5400   52.5950 C.ar  648  TRP648      0.0003
    184  CD1      -47.6500  -39.6380   53.4790 C.ar  648  TRP648      0.0946
    185  CD2      -48.3530  -38.4630   51.7090 C.ar  648  TRP648      0.0152
    186  NE1      -46.6960  -38.6890   53.1990 N.ar  648  TRP648     -0.2442
    187  CE2      -47.1050  -37.9540   52.1180 C.ar  648  TRP648      0.0810
    188  CE3      -48.9910  -37.8820   50.6080 C.ar  648  TRP648      0.0012
    189  CZ2      -46.4800  -36.8940   51.4640 C.ar  648  TRP648      0.0191
    190  CZ3      -48.3700  -36.8260   49.9620 C.ar  648  TRP648      0.0001
    191  CH2      -47.1280  -36.3440   50.3920 C.ar  648  TRP648      0.0015
    192  N        -51.3460  -34.8340   56.5360 N.3   652  PHE652     -0.1241
    193  CA       -50.8920  -33.4570   56.3730 C.3   652  PHE652      0.1605
    194  C        -51.8740  -32.4470   56.9550 C.2   652  PHE652      0.2264
    195  O        -51.4900  -31.2970   57.1970 O.2   652  PHE652     -0.2867
    196  CB       -50.6430  -33.1570   54.8940 C.3   652  PHE652      0.0534
    197  CG       -49.2690  -33.5350   54.4210 C.ar  652  PHE652     -0.0203
    198  CD1      -48.3190  -34.0010   55.3140 C.ar  652  PHE652     -0.0042
    199  CD2      -48.9230  -33.4110   53.0870 C.ar  652  PHE652     -0.0042
    200  CE1      -47.0540  -34.3460   54.8840 C.ar  652  PHE652     -0.0003
    201  CE2      -47.6580  -33.7530   52.6520 C.ar  652  PHE652     -0.0003
    202  CZ       -46.7230  -34.2200   53.5520 C.ar  652  PHE652     -0.0000
    203  N        -49.6210  -40.4750   58.7390 N.3   704  PHE704     -0.1241
    204  CA       -48.4010  -40.3760   57.9460 C.3   704  PHE704      0.1605
    205  C        -47.6760  -41.7100   57.8430 C.2   704  PHE704      0.2264
    206  O        -46.9210  -41.9200   56.8870 O.2   704  PHE704     -0.2867
    207  CB       -47.4730  -39.3130   58.5410 C.3   704  PHE704      0.0534
    208  CG       -46.2020  -39.1100   57.7620 C.ar  704  PHE704     -0.0203
    209  CD1      -46.1970  -38.3510   56.6040 C.ar  704  PHE704     -0.0042
    210  CD2      -45.0110  -39.6720   58.1940 C.ar  704  PHE704     -0.0042
    211  CE1      -45.0290  -38.1600   55.8870 C.ar  704  PHE704     -0.0003
    212  CE2      -43.8400  -39.4850   57.4820 C.ar  704  PHE704     -0.0003
    213  CZ       -43.8490  -38.7290   56.3270 C.ar  704  PHE704     -0.0000
    214  N        -48.2560  -43.9100   54.1670 N.3   708  TYR708     -0.1241
    215  CA       -46.9880  -44.1990   53.5070 C.3   708  TYR708      0.1605
    216  C        -46.7840  -45.7010   53.3410 C.2   708  TYR708      0.2264
    217  O        -46.2650  -46.1530   52.3140 O.2   708  TYR708     -0.2867
    218  CB       -45.8460  -43.5810   54.3130 C.3   708  TYR708      0.0534
    219  CG       -44.4980  -43.5600   53.6310 C.ar  708  TYR708     -0.0201
    220  CD1      -44.1730  -42.5600   52.7240 C.ar  708  TYR708     -0.0009
    221  CD2      -43.5360  -44.5200   53.9190 C.ar  708  TYR708     -0.0009
    222  CE1      -42.9370  -42.5280   52.1090 C.ar  708  TYR708      0.0417
    223  CE2      -42.2960  -44.4960   53.3090 C.ar  708  TYR708      0.0417
    224  CZ       -42.0020  -43.4960   52.4070 C.ar  708  TYR708      0.1957
    225  OH       -40.7700  -43.4690   51.7950 O.3   708  TYR708     -0.2866
@<TRIPOS>BOND
     1    56    55    2
     2   159   160    1
     3   159   158    1
     4    55    54    1
     5    48    47    2
     6   160   161    1
     7   158   155    1
     8    54    53    1
     9    54    57    1
    10   157   156    2
    11    58    57    1
    12    47    53   am
    13    47    46    1
    14   156   155    1
    15    57    59    1
    16   155   154    1
    17    46    45    1
    18    46    49    1
    19   164   165    2
    20   164   163    1
    21   169   167    1
    22   154   148   am
    23   167   166    1
    24   167   168    1
    25    49    50    1
    26   166   163    1
    27   172   173    2
    28   172   171    1
    29    51    50   ar
    30   163   162    1
    31    50    52   ar
    32   170   171    1
    33   148   149    2
    34   148   147    1
    35   171   174    1
    36    41    40    2
    37   146   147    1
    38   174   175    1
    39   147   150    1
    40    40    39    1
    41    29    28    2
    42   150   151    1
    43   175   176    1
    44   175   177    1
    45    39    38    1
    46    39    42    1
    47    43    42    1
    48    28    38   am
    49    28    27    1
    50   151   152    1
    51   151   153    1
    52    42    44    1
    53    27    26    1
    54    27    30    1
    55    32    34   ar
    56    32    31   ar
    57    34    36   ar
    58    30    31    1
    59    31    33   ar
    60    36    37    1
    61    36    35   ar
    62   138   137    2
    63    33    35   ar
    64    21    20    2
    65   137   136    1
    66    14    13    2
    67    20    19    1
    68   136   139    1
    69   136   135    1
    70   139   140    1
    71   141   140   ar
    72   141   143   ar
    73   140   142   ar
    74   143   145   ar
    75   142   144   ar
    76    25    23    1
    77    19    18    1
    78    19    22    1
    79    23    22    1
    80    23    24    1
    81   145   144   ar
    82    13    18   am
    83    13    12    1
    84    12    11    1
    85    12    15    1
    86    17    15    1
    87   124   123    2
    88    15    16    1
    89   190   191   ar
    90   190   188   ar
    91    64    61    1
    92   191   189   ar
    93   123   122    1
    94   127   129   ar
    95   127   126   ar
    96   188   185   ar
    97   129   130   ar
    98   122   125    1
    99   122   121    1
   100    60    61    1
   101    10     9    2
   102    61    62    1
   103   126   125    1
   104   126   128   ar
   105   189   187   ar
   106   130   128   ar
   107   130   132   ar
   108   185   187   ar
   109   185   183   ar
   110   225   224    1
   111   128   131   ar
   112     9     8    1
   113   222   224   ar
   114   222   220   ar
   115   187   186   ar
   116   132   134   ar
   117   120   118   am
   118   217   216    2
   119   224   223   ar
   120    62    63    2
   121   182   183    1
   122   182   179    1
   123   183   184   ar
   124   201   199   ar
   125   201   202   ar
   126   220   219   ar
   127   131   133   ar
   128   134   133   ar
   129   119   118    2
   130   199   197   ar
   131     8     7    1
   132   186   184   ar
   133   118   117    1
   134    72    70    1
   135   223   221   ar
   136   216   215    1
   137   116   115    2
   138   178   179    1
   139   215   214    1
   140   215   218    1
   141   202   200   ar
   142   219   221   ar
   143   219   218    1
   144   179   180    1
   145   180   181    2
   146   197   196    1
   147   197   198   ar
   148    69    70    1
   149    69    66    1
   150   115   114    1
   151    70    71    1
   152   117   114    1
   153   114   113    1
   154   200   198   ar
   155   196   193    1
   156   108   107    2
   157    65    66    1
   158    66    67    1
   159   211   213   ar
   160   211   209   ar
   161   113   107   am
   162   107   106    1
   163   213   212   ar
   164   193   192    1
   165   193   194    1
   166    67    68    2
   167   209   208   ar
   168   206   205    2
   169   194   195    2
   170   109   106    1
   171   109   110    1
   172   106   105    1
   173     4     3    2
   174   112   110    1
   175   212   210   ar
   176   103   104   ar
   177   103   101   ar
   178   110   111    1
   179   104   102   ar
   180   208   210   ar
   181   208   207    1
   182   205   204    1
   183   204   207    1
   184   204   203    1
   185    83    82    2
   186   101    98   ar
   187    94    93    2
   188     3     2    1
   189   102   100   ar
   190    78    77    1
   191    98   100   ar
   192    98    96   ar
   193    93    92    1
   194    82    91   am
   195    82    81    1
   196    92    91    1
   197    92    95    1
   198   100    99   ar
   199     2     1    1
   200     2     5    1
   201     6     5    1
   202    77    79    1
   203    77    74    1
   204    81    84    1
   205    81    80    1
   206    84    85    1
   207    96    95    1
   208    96    97   ar
   209    99    97   ar
   210    85    86   ar
   211    85    87   ar
   212    86    88   ar
   213    73    74    1
   214    88    90   ar
   215    87    89   ar
   216    74    75    1
   217    90    89   ar
   218    75    76    2
