@<TRIPOS>MOLECULE
tmp/6fosE39.pdb
 80 76 0 0 0
SMALL
GASTEIGER

@<TRIPOS>ATOM
      1  N        -57.8620  -42.3330   77.1560 N.3    17  GLY17      -0.1210
      2  CA       -58.4700  -43.5520   77.6600 C.3    17  GLY17       0.1956
      3  C        -58.1560  -44.7680   76.8130 C.2    17  GLY17       0.2611
      4  O        -58.2250  -45.8980   77.3100 O.2    17  GLY17      -0.2717
      5  N        -57.8040  -44.5580   75.5450 N.am   18  ILE18      -0.1979
      6  CA       -57.2910  -45.6170   74.6860 C.3    18  ILE18       0.1595
      7  C        -55.7870  -45.4530   74.4900 C.2    18  ILE18       0.2287
      8  O        -55.0560  -46.4450   74.3780 O.2    18  ILE18      -0.2864
      9  CB       -58.0300  -45.6330   73.3310 C.3    18  ILE18       0.0276
     10  CG1      -59.5380  -45.7620   73.5590 C.3    18  ILE18       0.0022
     11  CG2      -57.5210  -46.7660   72.4570 C.3    18  ILE18       0.0022
     12  CD1      -60.3370  -45.7970   72.2810 C.3    18  ILE18       0.0001
     13  N        -54.3340  -46.4070   77.6970 N.3    21  ALA21      -0.1231
     14  CA       -54.9000  -47.6720   78.1530 C.3    21  ALA21       0.1694
     15  C        -53.8080  -48.7040   78.4000 C.2    21  ALA21       0.2592
     16  O        -53.8960  -49.4970   79.3450 O.2    21  ALA21      -0.2718
     17  CB       -55.9140  -48.1940   77.1350 C.3    21  ALA21       0.0304
     18  N        -52.7760  -48.7120   77.5600 N.am   22  HIS22      -0.1976
     19  CA       -51.6170  -49.5710   77.7560 C.3    22  HIS22       0.1656
     20  C        -50.5150  -48.8920   78.5590 C.2    22  HIS22       0.2291
     21  O        -49.5050  -49.5340   78.8640 O.2    22  HIS22      -0.2864
     22  CB       -51.0570  -50.0260   76.4040 C.3    22  HIS22       0.0771
     23  CG       -52.0630  -50.7040   75.5270 C.ar   22  HIS22       0.0820
     24  ND1      -53.0010  -50.0080   74.7950 N.ar   22  HIS22      -0.2267
     25  CD2      -52.2750  -52.0140   75.2620 C.ar   22  HIS22       0.1154
     26  CE1      -53.7480  -50.8610   74.1170 C.ar   22  HIS22       0.1986
     27  NE2      -53.3280  -52.0850   74.3830 N.ar   22  HIS22      -0.2212
     28  N        -49.5250  -48.3690   81.5930 N.3    24  PHE24      -0.1241
     29  CA       -49.9070  -48.8820   82.9040 C.3    24  PHE24       0.1605
     30  C        -49.2070  -48.1460   84.0390 C.2    24  PHE24       0.2264
     31  O        -49.7560  -48.0550   85.1410 O.2    24  PHE24      -0.2867
     32  CB       -49.6210  -50.3820   82.9820 C.3    24  PHE24       0.0534
     33  CG       -50.3560  -51.1910   81.9510 C.ar   24  PHE24      -0.0203
     34  CD1      -51.7340  -51.3260   82.0120 C.ar   24  PHE24      -0.0042
     35  CD2      -49.6720  -51.8200   80.9250 C.ar   24  PHE24      -0.0042
     36  CE1      -52.4150  -52.0680   81.0650 C.ar   24  PHE24      -0.0003
     37  CE2      -50.3470  -52.5640   79.9750 C.ar   24  PHE24      -0.0003
     38  CZ       -51.7210  -52.6880   80.0460 C.ar   24  PHE24      -0.0000
     39  N        -50.0370  -57.0000   85.5990 N.3    38  LYS38      -0.1245
     40  CA       -50.9040  -56.7370   84.4540 C.3    38  LYS38       0.1561
     41  C        -50.1230  -56.7470   83.1450 C.2    38  LYS38       0.2260
     42  O        -50.6740  -57.1070   82.0980 O.2    38  LYS38      -0.2867
     43  CB       -51.6320  -55.4040   84.6350 C.3    38  LYS38       0.0271
     44  CG       -52.7000  -55.1360   83.5850 C.3    38  LYS38       0.0035
     45  CD       -53.4900  -53.8720   83.8860 C.3    38  LYS38       0.0206
     46  CE       -54.3830  -54.0420   85.1040 C.3    38  LYS38       0.1093
     47  NZ       -55.2450  -52.8470   85.3230 N.3    38  LYS38      -0.1314
     48  N        -49.8260  -60.2810   82.2670 N.3    41  ALA41      -0.1231
     49  CA       -51.0870  -60.7130   81.6770 C.3    41  ALA41       0.1694
     50  C        -51.2280  -60.2290   80.2410 C.2    41  ALA41       0.2592
     51  O        -51.8310  -60.9190   79.4100 O.2    41  ALA41      -0.2718
     52  CB       -52.2610  -60.2170   82.5220 C.3    41  ALA41       0.0304
     53  N        -50.6830  -59.0510   79.9290 N.am   42  SER42      -0.1952
     54  CA       -50.7410  -58.5600   78.5570 C.3    42  SER42       0.1924
     55  C        -49.7800  -59.3210   77.6530 C.2    42  SER42       0.2314
     56  O        -50.0680  -59.5060   76.4650 O.2    42  SER42      -0.2863
     57  CB       -50.4450  -57.0610   78.5200 C.3    42  SER42       0.2116
     58  OG       -50.8430  -56.4960   77.2830 O.3    42  SER42      -0.2180
     59  N        -51.8110  -62.2260   76.8800 N.3    45  GLY45      -0.1210
     60  CA       -52.8570  -61.8220   75.9620 C.3    45  GLY45       0.1956
     61  C        -52.3670  -61.3990   74.5980 C.2    45  GLY45       0.2611
     62  O        -53.1850  -61.1510   73.7070 O.2    45  GLY45      -0.2717
     63  N        -51.0500  -61.3100   74.4190 N.am   46  HIS46      -0.1975
     64  CA       -50.4330  -60.9440   73.1510 C.3    46  HIS46       0.1656
     65  C        -49.9740  -62.1610   72.3580 C.2    46  HIS46       0.2291
     66  O        -50.2480  -62.2590   71.1590 O.2    46  HIS46      -0.2864
     67  CB       -49.2500  -60.0030   73.4040 C.3    46  HIS46       0.0771
     68  CG       -48.4650  -59.6730   72.1750 C.ar   46  HIS46       0.0820
     69  ND1      -47.4020  -60.4360   71.7440 N.ar   46  HIS46      -0.2267
     70  CD2      -48.5850  -58.6580   71.2880 C.ar   46  HIS46       0.1154
     71  CE1      -46.9010  -59.9060   70.6430 C.ar   46  HIS46       0.1986
     72  NE2      -47.6000  -58.8270   70.3450 N.ar   46  HIS46      -0.2212
     73  N        -52.9330  -63.7750   70.8450 N.3    49  ILE49      -0.1245
     74  CA       -53.3580  -63.1760   69.5820 C.3    49  ILE49       0.1561
     75  C        -52.4800  -63.6690   68.4390 C.2    49  ILE49       0.2260
     76  O        -52.9660  -63.9300   67.3310 O.2    49  ILE49      -0.2867
     77  CB       -53.3420  -61.6390   69.6870 C.3    49  ILE49       0.0252
     78  CG1      -54.3060  -61.1660   70.7760 C.3    49  ILE49       0.0019
     79  CG2      -53.6950  -61.0040   68.3510 C.3    49  ILE49       0.0019
     80  CD1      -55.7380  -61.5920   70.5550 C.3    49  ILE49       0.0001
@<TRIPOS>BOND
     1    76    75    2
     2    79    77    1
     3    75    74    1
     4    74    77    1
     5    74    73    1
     6    77    78    1
     7    72    71   ar
     8    72    70   ar
     9    80    78    1
    10    71    69   ar
    11    66    65    2
    12    70    68   ar
    13    69    68   ar
    14    68    67    1
    15    12    10    1
    16    65    64    1
    17    11     9    1
    18    64    67    1
    19    64    63    1
    20     9    10    1
    21     9     6    1
    22    62    61    2
    23    26    27   ar
    24    26    24   ar
    25     8     7    2
    26    27    25   ar
    27    63    61   am
    28     7     6    1
    29    61    60    1
    30     6     5    1
    31    24    23   ar
    32    25    23   ar
    33    23    22    1
    34     5     3   am
    35    60    59    1
    36    22    19    1
    37    56    55    2
    38     3     4    2
    39     3     2    1
    40    17    14    1
    41     1     2    1
    42    58    57    1
    43    18    19    1
    44    18    15   am
    45    55    54    1
    46    13    14    1
    47    19    20    1
    48    14    15    1
    49    15    16    2
    50    57    54    1
    51    54    53    1
    52    20    21    2
    53    51    50    2
    54    53    50   am
    55    37    38   ar
    56    37    35   ar
    57    38    36   ar
    58    50    49    1
    59    35    33   ar
    60    36    34   ar
    61    28    29    1
    62    49    48    1
    63    49    52    1
    64    33    34   ar
    65    33    32    1
    66    42    41    2
    67    29    32    1
    68    29    30    1
    69    41    40    1
    70    44    45    1
    71    44    43    1
    72    45    46    1
    73    30    31    2
    74    40    43    1
    75    40    39    1
    76    46    47    1
