@<TRIPOS>MOLECULE
tmp/6fosE14.pdb
 89 84 0 0 0
SMALL
GASTEIGER

@<TRIPOS>ATOM
      1  N        -35.2260  -66.9750   86.4580 N.3   165  ARG165     -0.1231
      2  CA       -35.4690  -67.6650   85.1970 C.3   165  ARG165      0.1694
      3  C        -34.5750  -67.1750   84.0670 C.2   165  ARG165      0.2591
      4  O        -34.6590  -67.7250   82.9650 O.2   165  ARG165     -0.2718
      5  CB       -36.9390  -67.5240   84.7980 C.3   165  ARG165      0.0321
      6  CG       -37.3700  -66.1040   84.4810 C.3   165  ARG165      0.0489
      7  CD       -37.6550  -65.9360   82.9990 C.3   165  ARG165      0.2205
      8  NE       -38.0260  -64.5640   82.6670 N.pl3 165  ARG165     -0.0865
      9  CZ       -37.1610  -63.6300   82.2870 C.cat 165  ARG165      0.5346
     10  NH1      -35.8720  -63.9220   82.1860 N.pl3 165  ARG165      0.1354
     11  NH2      -37.5840  -62.4060   82.0050 N.pl3 165  ARG165      0.1354
     12  N        -33.7210  -66.1740   84.3010 N.am  166  LEU166     -0.1980
     13  CA       -32.7330  -65.7920   83.2970 C.3   166  LEU166      0.1596
     14  C        -31.8280  -66.9580   82.9200 C.2   166  LEU166      0.2287
     15  O        -31.1530  -66.8990   81.8860 O.2   166  LEU166     -0.2864
     16  CB       -31.8860  -64.6190   83.7990 C.3   166  LEU166      0.0297
     17  CG       -32.4150  -63.1890   83.6410 C.3   166  LEU166      0.0022
     18  CD1      -32.7120  -62.8780   82.1800 C.3   166  LEU166      0.0001
     19  CD2      -33.6390  -62.9340   84.5130 C.3   166  LEU166      0.0001
     20  N        -33.7420  -69.4140   79.3490 N.3   170  LEU170     -0.1245
     21  CA       -32.8200  -69.3650   78.2220 C.3   170  LEU170      0.1561
     22  C        -32.5110  -70.7810   77.7540 C.2   170  LEU170      0.2260
     23  O        -33.0780  -71.2460   76.7620 O.2   170  LEU170     -0.2867
     24  CB       -31.5390  -68.6180   78.6060 C.3   170  LEU170      0.0270
     25  CG       -30.7550  -67.9200   77.4890 C.3   170  LEU170      0.0019
     26  CD1      -29.8450  -68.8840   76.7490 C.3   170  LEU170      0.0001
     27  CD2      -31.7050  -67.2330   76.5190 C.3   170  LEU170      0.0001
     28  N        -31.4290  -51.0870   86.6270 N.3   317  LEU317     -0.1231
     29  CA       -31.5970  -51.7290   85.3300 C.3   317  LEU317      0.1693
     30  C        -32.6180  -52.8570   85.3610 C.2   317  LEU317      0.2592
     31  O        -33.3210  -53.0730   84.3660 O.2   317  LEU317     -0.2718
     32  CB       -30.2540  -52.2740   84.8280 C.3   317  LEU317      0.0284
     33  CG       -29.2000  -51.3000   84.2850 C.3   317  LEU317      0.0019
     34  CD1      -28.5940  -50.4320   85.3800 C.3   317  LEU317      0.0001
     35  CD2      -28.1080  -52.0620   83.5500 C.3   317  LEU317      0.0001
     36  N        -32.7180  -53.5800   86.4770 N.am  318  THR318     -0.1953
     37  CA       -33.6620  -54.6840   86.6010 C.3   318  THR318      0.1897
     38  C        -35.0380  -54.2210   87.0670 C.2   318  THR318      0.2313
     39  O        -36.0540  -54.7800   86.6420 O.2   318  THR318     -0.2863
     40  CB       -33.1160  -55.7390   87.5690 C.3   318  THR318      0.1794
     41  OG1      -32.9810  -55.1660   88.8760 O.3   318  THR318     -0.2208
     42  CG2      -31.7580  -56.2400   87.1000 C.3   318  THR318      0.0378
     43  N        -36.0350  -49.8900   80.4390 N.3   323  PHE323     -0.1227
     44  CA       -34.6790  -50.2630   80.0510 C.3   323  PHE323      0.1736
     45  C        -34.6390  -51.6760   79.4840 C.2   323  PHE323      0.2595
     46  O        -33.9790  -51.9240   78.4670 O.2   323  PHE323     -0.2718
     47  CB       -33.7350  -50.1370   81.2480 C.3   323  PHE323      0.0547
     48  CG       -32.3190  -50.5480   80.9540 C.ar  323  PHE323     -0.0202
     49  CD1      -31.4290  -49.6540   80.3840 C.ar  323  PHE323     -0.0042
     50  CD2      -31.8760  -51.8260   81.2570 C.ar  323  PHE323     -0.0042
     51  CE1      -30.1260  -50.0280   80.1150 C.ar  323  PHE323     -0.0003
     52  CE2      -30.5760  -52.2050   80.9900 C.ar  323  PHE323     -0.0003
     53  CZ       -29.6990  -51.3050   80.4180 C.ar  323  PHE323     -0.0000
     54  N        -35.3340  -52.6170   80.1300 N.am  324  GLN324     -0.1979
     55  CA       -35.3850  -53.9830   79.6190 C.3   324  GLN324      0.1601
     56  C        -36.0650  -54.0350   78.2580 C.2   324  GLN324      0.2287
     57  O        -35.6730  -54.8210   77.3870 O.2   324  GLN324     -0.2864
     58  CB       -36.1070  -54.8910   80.6150 C.3   324  GLN324      0.0394
     59  CG       -35.4020  -55.0310   81.9520 C.3   324  GLN324      0.0908
     60  CD       -36.1370  -55.9550   82.9020 C.2   324  GLN324      0.2608
     61  OE1      -37.2340  -56.4270   82.6030 O.2   324  GLN324     -0.2717
     62  NE2      -35.5340  -56.2200   84.0550 N.am  324  GLN324     -0.0878
     63  N        -33.6560  -52.8140   75.5920 N.3   327  LEU327     -0.1231
     64  CA       -32.6590  -53.7900   75.1750 C.3   327  LEU327      0.1693
     65  C        -33.2640  -54.9920   74.4680 C.2   327  LEU327      0.2591
     66  O        -32.6220  -55.5600   73.5780 O.2   327  LEU327     -0.2718
     67  CB       -31.8460  -54.2760   76.3800 C.3   327  LEU327      0.0284
     68  CG       -30.8140  -53.2990   76.9450 C.3   327  LEU327      0.0019
     69  CD1      -29.9510  -53.9850   77.9910 C.3   327  LEU327      0.0001
     70  CD2      -29.9560  -52.7230   75.8290 C.3   327  LEU327      0.0001
     71  N        -34.4830  -55.3890   74.8400 N.am  328  ALA328     -0.1980
     72  CA       -35.1330  -56.5080   74.1660 C.3   328  ALA328      0.1597
     73  C        -35.5210  -56.1420   72.7400 C.2   328  ALA328      0.2287
     74  O        -35.4200  -56.9730   71.8310 O.2   328  ALA328     -0.2864
     75  CB       -36.3560  -56.9620   74.9610 C.3   328  ALA328      0.0319
     76  N        -31.4850  -55.7750   70.7890 N.3   331  SER331     -0.1202
     77  CA       -30.7740  -56.9600   70.3200 C.3   331  SER331      0.2020
     78  C        -31.6010  -57.7220   69.2940 C.2   331  SER331      0.2618
     79  O        -31.0640  -58.2130   68.2940 O.2   331  SER331     -0.2717
     80  CB       -30.4170  -57.8610   71.5000 C.3   331  SER331      0.2103
     81  OG       -29.7090  -59.0100   71.0670 O.3   331  SER331     -0.2182
     82  N        -32.9130  -57.8300   69.5230 N.am  332  LEU332     -0.1979
     83  CA       -33.7850  -58.4310   68.5200 C.3   332  LEU332      0.1596
     84  C        -33.7880  -57.6220   67.2310 C.2   332  LEU332      0.2287
     85  O        -33.9660  -58.1860   66.1470 O.2   332  LEU332     -0.2864
     86  CB       -35.2090  -58.5660   69.0610 C.3   332  LEU332      0.0297
     87  CG       -35.4700  -59.6880   70.0670 C.3   332  LEU332      0.0022
     88  CD1      -36.9370  -59.7140   70.4700 C.3   332  LEU332      0.0001
     89  CD2      -35.0460  -61.0310   69.4930 C.3   332  LEU332      0.0001
@<TRIPOS>BOND
     1    85    84    2
     2    84    83    1
     3    79    78    2
     4    83    86    1
     5    83    82    1
     6    86    87    1
     7    78    82   am
     8    78    77    1
     9    89    87    1
    10    87    88    1
    11    77    76    1
    12    77    80    1
    13    81    80    1
    14    74    73    2
    15    73    72    1
    16    66    65    2
    17    72    71    1
    18    72    75    1
    19    65    71   am
    20    65    64    1
    21    64    63    1
    22    64    67    1
    23    70    68    1
    24    67    68    1
    25    27    25    1
    26    26    25    1
    27    23    22    2
    28    68    69    1
    29    57    56    2
    30    25    24    1
    31    22    21    1
    32    21    24    1
    33    21    20    1
    34    56    55    1
    35    46    45    2
    36    45    44    1
    37    45    54   am
    38    55    54    1
    39    55    58    1
    40    44    43    1
    41    44    47    1
    42    51    49   ar
    43    51    53   ar
    44    49    48   ar
    45    53    52   ar
    46    58    59    1
    47    48    47    1
    48    48    50   ar
    49    52    50   ar
    50    15    14    2
    51    59    60    1
    52    11     9    1
    53    18    17    1
    54    10     9    1
    55     9     8    2
    56    61    60    2
    57     8     7    1
    58    60    62   am
    59    14    13    1
    60     4     3    2
    61     7     6    1
    62    13    16    1
    63    13    12    1
    64    35    33    1
    65    17    16    1
    66    17    19    1
    67     3    12   am
    68     3     2    1
    69    33    32    1
    70    33    34    1
    71    31    30    2
    72     6     5    1
    73     5     2    1
    74    32    29    1
    75     2     1    1
    76    29    30    1
    77    29    28    1
    78    30    36   am
    79    36    37    1
    80    37    38    1
    81    37    40    1
    82    39    38    2
    83    42    40    1
    84    40    41    1
