@<TRIPOS>MOLECULE
tmp/6fosE11.pdb
 124 123 0 0 0
SMALL
GASTEIGER

@<TRIPOS>ATOM
      1  N        -43.0010  -70.1930   54.7240 N.3   114  TRP114     -0.1241
      2  CA       -41.7050  -70.4750   55.3310 C.3   114  TRP114      0.1605
      3  C        -41.5870  -71.9500   55.6870 C.2   114  TRP114      0.2264
      4  O        -40.5660  -72.5880   55.4080 O.2   114  TRP114     -0.2867
      5  CB       -41.5180  -69.6080   56.5800 C.3   114  TRP114      0.0550
      6  CG       -40.3110  -69.9300   57.4160 C.ar  114  TRP114      0.0003
      7  CD1      -40.1890  -70.9350   58.3330 C.ar  114  TRP114      0.0946
      8  CD2      -39.0700  -69.2170   57.4380 C.ar  114  TRP114      0.0152
      9  NE1      -38.9430  -70.9010   58.9080 N.ar  114  TRP114     -0.2442
     10  CE2      -38.2380  -69.8540   58.3760 C.ar  114  TRP114      0.0810
     11  CE3      -38.5790  -68.1080   56.7490 C.ar  114  TRP114      0.0012
     12  CZ2      -36.9460  -69.4130   58.6430 C.ar  114  TRP114      0.0191
     13  CZ3      -37.2960  -67.6750   57.0120 C.ar  114  TRP114      0.0001
     14  CH2      -36.4930  -68.3270   57.9500 C.ar  114  TRP114      0.0015
     15  N        -35.0620  -72.6640   73.0750 N.3   174  PHE174     -0.1241
     16  CA       -34.4240  -73.0100   71.8090 C.3   174  PHE174      0.1605
     17  C        -33.4260  -74.1540   71.9700 C.2   174  PHE174      0.2264
     18  O        -32.4950  -74.2810   71.1660 O.2   174  PHE174     -0.2867
     19  CB       -33.7020  -71.7980   71.2180 C.3   174  PHE174      0.0534
     20  CG       -34.5700  -70.5840   71.0490 C.ar  174  PHE174     -0.0203
     21  CD1      -35.9250  -70.7070   70.7900 C.ar  174  PHE174     -0.0042
     22  CD2      -34.0250  -69.3130   71.1450 C.ar  174  PHE174     -0.0042
     23  CE1      -36.7200  -69.5850   70.6340 C.ar  174  PHE174     -0.0003
     24  CE2      -34.8130  -68.1900   70.9900 C.ar  174  PHE174     -0.0003
     25  CZ       -36.1620  -68.3250   70.7340 C.ar  174  PHE174     -0.0000
     26  N        -36.9910  -79.7370   67.3030 N.3   181  TRP181     -0.1241
     27  CA       -37.1440  -79.1440   65.9780 C.3   181  TRP181      0.1605
     28  C        -36.3320  -79.9050   64.9380 C.2   181  TRP181      0.2264
     29  O        -36.8370  -80.2320   63.8580 O.2   181  TRP181     -0.2867
     30  CB       -36.7290  -77.6740   66.0160 C.3   181  TRP181      0.0550
     31  CG       -36.9550  -76.9260   64.7380 C.ar  181  TRP181      0.0003
     32  CD1      -38.0260  -76.1410   64.4270 C.ar  181  TRP181      0.0946
     33  CD2      -36.0800  -76.8770   63.6050 C.ar  181  TRP181      0.0152
     34  NE1      -37.8760  -75.6110   63.1690 N.ar  181  TRP181     -0.2442
     35  CE2      -36.6890  -76.0480   62.6430 C.ar  181  TRP181      0.0810
     36  CE3      -34.8440  -77.4600   63.3080 C.ar  181  TRP181      0.0012
     37  CZ2      -36.1020  -75.7850   61.4070 C.ar  181  TRP181      0.0191
     38  CZ3      -34.2640  -77.1960   62.0830 C.ar  181  TRP181      0.0001
     39  CH2      -34.8920  -76.3650   61.1480 C.ar  181  TRP181      0.0015
     40  N        -38.0330  -82.0620   61.8150 N.3   185  LEU185     -0.1245
     41  CA       -38.0160  -81.3330   60.5530 C.3   185  LEU185      0.1561
     42  C        -37.2210  -82.1030   59.5090 C.2   185  LEU185      0.2260
     43  O        -37.6920  -82.3030   58.3860 O.2   185  LEU185     -0.2867
     44  CB       -37.4350  -79.9290   60.7270 C.3   185  LEU185      0.0270
     45  CG       -37.3910  -79.1330   59.4190 C.3   185  LEU185      0.0019
     46  CD1      -38.1860  -77.8400   59.5320 C.3   185  LEU185      0.0001
     47  CD2      -35.9560  -78.8590   58.9900 C.3   185  LEU185      0.0001
     48  N        -28.2770  -76.3310   56.1690 N.3   263  ASP263     -0.1225
     49  CA       -28.4250  -75.1390   56.9940 C.3   263  ASP263      0.1805
     50  C        -29.4870  -75.3280   58.0710 C.2   263  ASP263      0.2597
     51  O        -29.2620  -75.0170   59.2450 O.2   263  ASP263     -0.2718
     52  CB       -28.7670  -73.9620   56.0740 C.3   263  ASP263      0.1424
     53  CG       -28.7050  -72.6260   56.7720 C.2   263  ASP263      0.3668
     54  OD1      -27.6400  -72.2840   57.3250 O.co2 263  ASP263     -0.2456
     55  OD2      -29.7250  -71.9050   56.7520 O.co2 263  ASP263     -0.2456
     56  N        -30.6390  -75.8810   57.6840 N.am  264  MET264     -0.1979
     57  CA       -31.7370  -76.1030   58.6210 C.3   264  MET264      0.1605
     58  C        -31.3020  -76.9810   59.7900 C.2   264  MET264      0.2287
     59  O        -31.4390  -76.5990   60.9580 O.2   264  MET264     -0.2864
     60  CB       -32.9200  -76.7330   57.8840 C.3   264  MET264      0.0413
     61  CG       -33.2890  -76.0330   56.5850 C.3   264  MET264      0.0598
     62  SD       -34.0510  -74.4210   56.8460 S.3   264  MET264     -0.1393
     63  CE       -35.5500  -74.8980   57.7020 C.3   264  MET264      0.0692
     64  N        -28.6590  -75.4810   62.2900 N.3   267  HIS267     -0.1226
     65  CA       -29.1050  -74.4260   63.1920 C.3   267  HIS267      0.1752
     66  C        -29.2410  -74.9310   64.6190 C.2   267  HIS267      0.2596
     67  O        -28.4440  -74.5770   65.4920 O.2   267  HIS267     -0.2718
     68  CB       -30.4450  -73.8530   62.7310 C.3   267  HIS267      0.0759
     69  CG       -30.3940  -73.2330   61.3750 C.ar  267  HIS267      0.0818
     70  ND1      -29.2990  -72.5300   60.9250 N.ar  267  HIS267     -0.2268
     71  CD2      -31.2940  -73.2200   60.3640 C.ar  267  HIS267      0.1154
     72  CE1      -29.5290  -72.1020   59.6980 C.ar  267  HIS267      0.1986
     73  NE2      -30.7270  -72.5180   59.3290 N.ar  267  HIS267     -0.2212
     74  N        -30.2430  -75.7760   64.8520 N.am  268  HIS268     -0.1975
     75  CA       -30.5800  -76.1780   66.2090 C.3   268  HIS268      0.1656
     76  C        -29.5390  -77.1020   66.8240 C.2   268  HIS268      0.2291
     77  O        -29.4930  -77.2230   68.0530 O.2   268  HIS268     -0.2864
     78  CB       -31.9600  -76.8240   66.2160 C.3   268  HIS268      0.0771
     79  CG       -33.0610  -75.8670   65.8840 C.ar  268  HIS268      0.0820
     80  ND1      -34.0900  -75.5820   66.7550 N.ar  268  HIS268     -0.2267
     81  CD2      -33.2750  -75.1030   64.7880 C.ar  268  HIS268      0.1154
     82  CE1      -34.9010  -74.7000   66.2020 C.ar  268  HIS268      0.1986
     83  NE2      -34.4300  -74.3940   65.0070 N.ar  268  HIS268     -0.2212
     84  N        -27.5900  -74.3080   68.0580 N.3   271  ILE271     -0.1245
     85  CA       -28.3270  -73.5900   69.0930 C.3   271  ILE271      0.1561
     86  C        -28.3880  -74.4110   70.3760 C.2   271  ILE271      0.2260
     87  O        -28.2760  -73.8680   71.4810 O.2   271  ILE271     -0.2867
     88  CB       -29.7340  -73.2120   68.5950 C.3   271  ILE271      0.0252
     89  CG1      -29.6490  -72.3800   67.3140 C.3   271  ILE271      0.0019
     90  CG2      -30.4710  -72.4190   69.6560 C.3   271  ILE271      0.0019
     91  CD1      -29.1480  -70.9690   67.5280 C.3   271  ILE271      0.0001
     92  N        -30.2740  -61.7190   55.5510 N.3   342  HIS342     -0.1226
     93  CA       -30.0090  -63.1330   55.3250 C.3   342  HIS342      0.1752
     94  C        -31.1580  -63.8350   54.6080 C.2   342  HIS342      0.2595
     95  O        -31.2890  -65.0590   54.7130 O.2   342  HIS342     -0.2718
     96  CB       -29.7060  -63.8330   56.6510 C.3   342  HIS342      0.0759
     97  CG       -28.4040  -63.4240   57.2670 C.ar  342  HIS342      0.0818
     98  ND1      -27.9440  -63.9520   58.4540 N.ar  342  HIS342     -0.2268
     99  CD2      -27.4630  -62.5400   56.8590 C.ar  342  HIS342      0.1154
    100  CE1      -26.7760  -63.4110   58.7510 C.ar  342  HIS342      0.1986
    101  NE2      -26.4620  -62.5500   57.8000 N.ar  342  HIS342     -0.2212
    102  N        -31.9920  -63.0880   53.8820 N.am  343  MET343     -0.1979
    103  CA       -33.0890  -63.6700   53.1230 C.3   343  MET343      0.1605
    104  C        -32.9460  -63.5040   51.6180 C.2   343  MET343      0.2287
    105  O        -33.7520  -64.0730   50.8720 O.2   343  MET343     -0.2864
    106  CB       -34.4310  -63.0710   53.5710 C.3   343  MET343      0.0413
    107  CG       -34.8160  -63.4320   54.9940 C.3   343  MET343      0.0598
    108  SD       -34.7440  -65.2080   55.2950 S.3   343  MET343     -0.1393
    109  CE       -34.7750  -65.2480   57.0840 C.3   343  MET343      0.0692
    110  N        -28.9320  -65.8520   51.2880 N.3   346  MET346     -0.1245
    111  CA       -29.0620  -67.2360   51.7440 C.3   346  MET346      0.1570
    112  C        -30.5450  -67.5520   51.8820 C.2   346  MET346      0.2261
    113  O        -31.0780  -67.6130   52.9980 O.2   346  MET346     -0.2867
    114  CB       -28.3240  -67.4570   53.0660 C.3   346  MET346      0.0387
    115  CG       -26.8310  -67.1800   53.0060 C.3   346  MET346      0.0595
    116  SD       -25.9440  -68.3600   51.9710 S.3   346  MET346     -0.1393
    117  CE       -26.2470  -69.8830   52.8620 C.3   346  MET346      0.0692
    118  N        -33.7640  -69.4130   52.4960 N.3   348  PRO348     -0.2116
    119  CA       -34.2130  -70.7020   53.0320 C.3   348  PRO348      0.1372
    120  C        -35.4890  -71.2380   52.4020 C.2   348  PRO348      0.2244
    121  O        -36.0080  -72.2540   52.8740 O.2   348  PRO348     -0.2868
    122  CB       -34.4380  -70.3790   54.5160 C.3   348  PRO348      0.0268
    123  CG       -34.8900  -68.9610   54.5040 C.3   348  PRO348      0.0207
    124  CD       -34.1590  -68.2880   53.3620 C.3   348  PRO348      0.0892
@<TRIPOS>BOND
     1   105   104    2
     2   110   111    1
     3   104   103    1
     4   111   112    1
     5   111   114    1
     6   112   113    2
     7   116   117    1
     8   116   115    1
     9   120   121    2
    10   120   119    1
    11   118   119    1
    12   118   124    1
    13   115   114    1
    14   119   122    1
    15   103   106    1
    16   103   102    1
    17   124   123    1
    18   106   107    1
    19   102    94   am
    20   123   122    1
    21    94    95    2
    22    94    93    1
    23     1     2    1
    24   107   108    1
    25   108   109    1
    26    93    92    1
    27    93    96    1
    28     2     3    1
    29     2     5    1
    30     4     3    2
    31    52    53    1
    32    52    49    1
    33    48    49    1
    34     5     6    1
    35    61    62    1
    36    61    60    1
    37    96    97    1
    38    11    13   ar
    39    11     8   ar
    40    55    53   ar
    41    53    54   ar
    42    62    63    1
    43    99    97   ar
    44    99   101   ar
    45    49    50    1
    46    13    14   ar
    47    97    98   ar
    48     6     8   ar
    49     6     7   ar
    50     8    10   ar
    51    56    50   am
    52    56    57    1
    53   101   100   ar
    54    60    57    1
    55    14    12   ar
    56    50    51    2
    57     7     9   ar
    58    10    12   ar
    59    10     9   ar
    60    43    42    2
    61    98   100   ar
    62    57    58    1
    63    47    45    1
    64    73    72   ar
    65    73    71   ar
    66    45    46    1
    67    45    44    1
    68    42    41    1
    69    72    70   ar
    70    58    59    2
    71    71    69   ar
    72    41    44    1
    73    41    40    1
    74    70    69   ar
    75    39    37   ar
    76    39    38   ar
    77    69    68    1
    78    37    35   ar
    79    38    36   ar
    80    64    65    1
    81    35    34   ar
    82    35    33   ar
    83    68    65    1
    84    34    32   ar
    85    65    66    1
    86    36    33   ar
    87    33    31   ar
    88    29    28    2
    89    32    31   ar
    90    66    74   am
    91    66    67    2
    92    31    30    1
    93    81    83   ar
    94    81    79   ar
    95    74    75    1
    96    28    27    1
    97    83    82   ar
    98    79    78    1
    99    79    80   ar
   100    27    30    1
   101    27    26    1
   102    82    80   ar
   103    75    78    1
   104    75    76    1
   105    76    77    2
   106    89    91    1
   107    89    88    1
   108    84    85    1
   109    88    85    1
   110    88    90    1
   111    85    86    1
   112    86    87    2
   113    23    25   ar
   114    23    21   ar
   115    25    24   ar
   116    21    20   ar
   117    24    22   ar
   118    20    22   ar
   119    20    19    1
   120    18    17    2
   121    19    16    1
   122    16    17    1
   123    16    15    1
