@<TRIPOS>MOLECULE
tmp/6fosD09.pdb
 184 176 0 0 0
SMALL
GASTEIGER

@<TRIPOS>ATOM
      1  N        -46.8200   -9.0430   21.6810 N.3   135  LEU135     -0.1245
      2  CA       -47.0440   -7.6480   22.0450 C.3   135  LEU135      0.1561
      3  C        -46.2790   -6.7090   21.1190 C.2   135  LEU135      0.2260
      4  O        -46.8030   -5.6670   20.7080 O.2   135  LEU135     -0.2867
      5  CB       -46.6440   -7.4240   23.5060 C.3   135  LEU135      0.0270
      6  CG       -46.9170   -6.0810   24.1980 C.3   135  LEU135      0.0019
      7  CD1      -45.7750   -5.0900   23.9940 C.3   135  LEU135      0.0001
      8  CD2      -48.2380   -5.4830   23.7350 C.3   135  LEU135      0.0001
      9  N        -48.0010   -6.6280   17.7630 N.3   138  ALA138     -0.1245
     10  CA       -49.2160   -5.8340   17.8860 C.3   138  ALA138      0.1562
     11  C        -48.9300   -4.3550   18.1010 C.2   138  ALA138      0.2260
     12  O        -49.8560   -3.5430   18.0030 O.2   138  ALA138     -0.2867
     13  CB       -50.0770   -6.3660   19.0330 C.3   138  ALA138      0.0290
     14  N        -55.2540    8.6880   34.6920 N.3   193  LEU193     -0.1231
     15  CA       -54.5610    7.4250   34.4580 C.3   193  LEU193      0.1693
     16  C        -55.3970    6.4850   33.5940 C.2   193  LEU193      0.2591
     17  O        -54.9750    6.0940   32.5020 O.2   193  LEU193     -0.2718
     18  CB       -54.2110    6.7580   35.7930 C.3   193  LEU193      0.0284
     19  CG       -53.5160    5.3990   35.6840 C.3   193  LEU193      0.0019
     20  CD1      -52.1770    5.5410   34.9770 C.3   193  LEU193      0.0001
     21  CD2      -53.3390    4.7710   37.0560 C.3   193  LEU193      0.0001
     22  N        -56.5870    6.1170   34.0730 N.am  194  LEU194     -0.1980
     23  CA       -57.4420    5.2190   33.3050 C.3   194  LEU194      0.1596
     24  C        -57.9830    5.9030   32.0560 C.2   194  LEU194      0.2287
     25  O        -57.9790    5.3140   30.9680 O.2   194  LEU194     -0.2864
     26  CB       -58.5870    4.7100   34.1800 C.3   194  LEU194      0.0297
     27  CG       -58.2120    3.8210   35.3680 C.3   194  LEU194      0.0022
     28  CD1      -59.4540    3.4380   36.1590 C.3   194  LEU194      0.0001
     29  CD2      -57.4650    2.5820   34.9020 C.3   194  LEU194      0.0001
     30  N        -55.0460    7.1660   29.7950 N.3   197  GLY197     -0.1210
     31  CA       -54.3240    5.9670   29.4050 C.3   197  GLY197      0.1956
     32  C        -55.0690    5.1580   28.3620 C.2   197  GLY197      0.2612
     33  O        -54.4750    4.6880   27.3880 O.2   197  GLY197     -0.2717
     34  N        -56.3790    4.9820   28.5500 N.am  198  SER198     -0.1952
     35  CA       -57.1830    4.2780   27.5590 C.3   198  SER198      0.1924
     36  C        -57.3760    5.0980   26.2900 C.2   198  SER198      0.2314
     37  O        -57.7710    4.5380   25.2620 O.2   198  SER198     -0.2863
     38  CB       -58.5420    3.9020   28.1510 C.3   198  SER198      0.2116
     39  OG       -59.3210    3.1730   27.2190 O.3   198  SER198     -0.2180
     40  N        -53.3290    5.1040   24.3190 N.3   201  TRP201     -0.1241
     41  CA       -53.0710    3.8710   23.5850 C.3   201  TRP201      0.1605
     42  C        -54.0990    3.6550   22.4810 C.2   201  TRP201      0.2264
     43  O        -53.8020    2.9890   21.4820 O.2   201  TRP201     -0.2867
     44  CB       -53.0500    2.6790   24.5420 C.3   201  TRP201      0.0550
     45  CG       -52.7090    1.3820   23.8690 C.ar  201  TRP201      0.0003
     46  CD1      -53.5750    0.3900   23.5180 C.ar  201  TRP201      0.0946
     47  CD2      -51.4090    0.9440   23.4550 C.ar  201  TRP201      0.0152
     48  NE1      -52.8970   -0.6420   22.9160 N.ar  201  TRP201     -0.2442
     49  CE2      -51.5650   -0.3260   22.8650 C.ar  201  TRP201      0.0810
     50  CE3      -50.1280    1.5010   23.5290 C.ar  201  TRP201      0.0012
     51  CZ2      -50.4890   -1.0480   22.3520 C.ar  201  TRP201      0.0191
     52  CZ3      -49.0610    0.7830   23.0180 C.ar  201  TRP201      0.0001
     53  CH2      -49.2480   -0.4780   22.4370 C.ar  201  TRP201      0.0015
     54  N        -52.8940    2.6580   18.3210 N.3   205  GLN205     -0.1245
     55  CA       -53.2680    1.5320   17.4660 C.3   205  GLN205      0.1566
     56  C        -54.2460    1.9130   16.3580 C.2   205  GLN205      0.2260
     57  O        -54.7710    1.0120   15.6950 O.2   205  GLN205     -0.2867
     58  CB       -53.8470    0.3990   18.3150 C.3   205  GLN205      0.0367
     59  CG       -55.0030    0.8070   19.2060 C.3   205  GLN205      0.0905
     60  CD       -55.4630   -0.3260   20.1000 C.2   205  GLN205      0.2608
     61  OE1      -54.9170   -1.4290   20.0560 O.2   205  GLN205     -0.2717
     62  NE2      -56.4710   -0.0600   20.9210 N.am  205  GLN205     -0.0878
     63  N        -57.6720  -11.5740   18.1630 N.3   277  LEU277     -0.1245
     64  CA       -58.7790  -10.6510   17.9710 C.3   277  LEU277      0.1561
     65  C        -58.4770   -9.6830   16.8270 C.2   277  LEU277      0.2260
     66  O        -57.3380   -9.5490   16.3680 O.2   277  LEU277     -0.2867
     67  CB       -59.0710   -9.8730   19.2570 C.3   277  LEU277      0.0270
     68  CG       -59.5760  -10.6730   20.4580 C.3   277  LEU277      0.0019
     69  CD1      -59.7470   -9.7650   21.6620 C.3   277  LEU277      0.0001
     70  CD2      -60.8780  -11.3840   20.1310 C.3   277  LEU277      0.0001
     71  N        -57.6340   -6.4000   14.8680 N.3   279  LEU279     -0.1245
     72  CA       -56.8200   -5.2320   15.1780 C.3   279  LEU279      0.1561
     73  C        -57.6180   -3.9380   15.1070 C.2   279  LEU279      0.2260
     74  O        -57.1680   -2.9170   15.6380 O.2   279  LEU279     -0.2867
     75  CB       -55.6210   -5.1600   14.2310 C.3   279  LEU279      0.0270
     76  CG       -54.5970   -6.2880   14.3670 C.3   279  LEU279      0.0019
     77  CD1      -53.4980   -6.1480   13.3260 C.3   279  LEU279      0.0001
     78  CD2      -54.0110   -6.3100   15.7710 C.3   279  LEU279      0.0001
     79  N        -60.0720   -3.6220   18.7020 N.3   282  VAL282     -0.1245
     80  CA       -59.4350   -3.1950   19.9430 C.3   282  VAL282      0.1561
     81  C        -59.2430   -1.6830   19.9610 C.2   282  VAL282      0.2260
     82  O        -59.3380   -1.0510   21.0210 O.2   282  VAL282     -0.2867
     83  CB       -58.1040   -3.9450   20.1430 C.3   282  VAL282      0.0252
     84  CG1      -57.4130   -3.4940   21.4210 C.3   282  VAL282      0.0019
     85  CG2      -58.3460   -5.4460   20.1760 C.3   282  VAL282      0.0019
     86  N        -62.4530   -0.4010   20.7980 N.3   285  HIS285     -0.1226
     87  CA       -62.6720   -0.7920   22.1860 C.3   285  HIS285      0.1752
     88  C        -62.0470    0.2110   23.1480 C.2   285  HIS285      0.2596
     89  O        -62.7130    0.7130   24.0600 O.2   285  HIS285     -0.2718
     90  CB       -62.1030   -2.1910   22.4180 C.3   285  HIS285      0.0759
     91  CG       -61.9320   -2.5450   23.8600 C.ar  285  HIS285      0.0818
     92  ND1      -62.9690   -2.5020   24.7660 N.ar  285  HIS285     -0.2268
     93  CD2      -60.8430   -2.9520   24.5530 C.ar  285  HIS285      0.1154
     94  CE1      -62.5270   -2.8690   25.9550 C.ar  285  HIS285      0.1986
     95  NE2      -61.2390   -3.1440   25.8540 N.ar  285  HIS285     -0.2212
     96  N        -60.7630    0.5220   22.9520 N.am  286  HIS286     -0.1975
     97  CA       -60.0830    1.4480   23.8510 C.3   286  HIS286      0.1656
     98  C        -60.6250    2.8650   23.7210 C.2   286  HIS286      0.2291
     99  O        -60.6070    3.6230   24.6960 O.2   286  HIS286     -0.2864
    100  CB       -58.5790    1.4180   23.5910 C.3   286  HIS286      0.0771
    101  CG       -57.9110    0.1750   24.0890 C.ar  286  HIS286      0.0820
    102  ND1      -56.5860   -0.1100   23.8440 N.ar  286  HIS286     -0.2267
    103  CD2      -58.3890   -0.8570   24.8240 C.ar  286  HIS286      0.1154
    104  CE1      -56.2760   -1.2660   24.4040 C.ar  286  HIS286      0.1986
    105  NE2      -57.3530   -1.7400   25.0040 N.ar  286  HIS286     -0.2212
    106  N        -63.6600    2.7020   25.9050 N.3   289  ILE289     -0.1245
    107  CA       -63.2880    2.7080   27.3160 C.3   289  ILE289      0.1561
    108  C        -62.7690    4.0780   27.7270 C.2   289  ILE289      0.2260
    109  O        -62.9900    4.5210   28.8610 O.2   289  ILE289     -0.2867
    110  CB       -62.2500    1.6060   27.5980 C.3   289  ILE289      0.0252
    111  CG1      -62.7770    0.2450   27.1450 C.3   289  ILE289      0.0019
    112  CG2      -61.9000    1.5590   29.0730 C.3   289  ILE289      0.0019
    113  CD1      -64.1240   -0.1130   27.7210 C.3   289  ILE289      0.0001
    114  N        -64.2500    6.4340   30.7240 N.3   293  PHE293     -0.1241
    115  CA       -63.4320    6.8390   31.8610 C.3   293  PHE293      0.1605
    116  C        -63.2900    8.3530   31.9560 C.2   293  PHE293      0.2264
    117  O        -63.1060    8.8830   33.0580 O.2   293  PHE293     -0.2867
    118  CB       -62.0550    6.1800   31.7810 C.3   293  PHE293      0.0534
    119  CG       -62.0490    4.7440   32.2140 C.ar  293  PHE293     -0.0203
    120  CD1      -63.0800    4.2380   32.9900 C.ar  293  PHE293     -0.0042
    121  CD2      -61.0160    3.8990   31.8510 C.ar  293  PHE293     -0.0042
    122  CE1      -63.0790    2.9160   33.3940 C.ar  293  PHE293     -0.0003
    123  CE2      -61.0090    2.5770   32.2550 C.ar  293  PHE293     -0.0003
    124  CZ       -62.0430    2.0850   33.0260 C.ar  293  PHE293     -0.0000
    125  N        -58.9260   -9.4670   39.5570 N.3   351  LEU351     -0.1245
    126  CA       -58.7840   -8.8930   38.2230 C.3   351  LEU351      0.1561
    127  C        -57.7390   -9.6420   37.4050 C.2   351  LEU351      0.2260
    128  O        -57.9470   -9.8980   36.2130 O.2   351  LEU351     -0.2867
    129  CB       -58.4280   -7.4080   38.3300 C.3   351  LEU351      0.0270
    130  CG       -58.4540   -6.5210   37.0810 C.3   351  LEU351      0.0019
    131  CD1      -57.1220   -6.5440   36.3390 C.3   351  LEU351      0.0001
    132  CD2      -59.5960   -6.9170   36.1530 C.3   351  LEU351      0.0001
    133  N        -59.3680  -12.8030   36.3130 N.3   354  ILE354     -0.1231
    134  CA       -60.3910  -12.5760   35.2960 C.3   354  ILE354      0.1692
    135  C        -59.7510  -12.2230   33.9590 C.2   354  ILE354      0.2591
    136  O        -60.1940  -12.6880   32.9020 O.2   354  ILE354     -0.2718
    137  CB       -61.3760  -11.4890   35.7640 C.3   354  ILE354      0.0266
    138  CG1      -62.1940  -11.9910   36.9560 C.3   354  ILE354      0.0019
    139  CG2      -62.3080  -11.0840   34.6390 C.3   354  ILE354      0.0020
    140  CD1      -63.0550  -10.9240   37.5960 C.3   354  ILE354      0.0001
    141  N        -58.6920  -11.4090   33.9810 N.am  355  VAL355     -0.1980
    142  CA       -58.0080  -11.0880   32.7320 C.3   355  VAL355      0.1595
    143  C        -57.2630  -12.3050   32.2030 C.2   355  VAL355      0.2287
    144  O        -57.1210  -12.4700   30.9870 O.2   355  VAL355     -0.2864
    145  CB       -57.0670   -9.8790   32.9040 C.3   355  VAL355      0.0276
    146  CG1      -55.8800  -10.2220   33.7820 C.3   355  VAL355      0.0022
    147  CG2      -56.5880   -9.4040   31.5500 C.3   355  VAL355      0.0022
    148  N        -59.8120  -14.0810   30.3110 N.3   358  HIS358     -0.1226
    149  CA       -60.0510  -13.3720   29.0600 C.3   358  HIS358      0.1752
    150  C        -58.9120  -13.5540   28.0660 C.2   358  HIS358      0.2595
    151  O        -59.1130  -13.3330   26.8660 O.2   358  HIS358     -0.2718
    152  CB       -60.2730  -11.8850   29.3370 C.3   358  HIS358      0.0759
    153  CG       -61.4530  -11.6040   30.2150 C.ar  358  HIS358      0.0818
    154  ND1      -61.7920  -10.3310   30.6180 N.ar  358  HIS358     -0.2268
    155  CD2      -62.3750  -12.4310   30.7630 C.ar  358  HIS358      0.1154
    156  CE1      -62.8720  -10.3850   31.3770 C.ar  358  HIS358      0.1986
    157  NE2      -63.2440  -11.6480   31.4820 N.ar  358  HIS358     -0.2212
    158  N        -57.7250  -13.9470   28.5330 N.am  359  MET359     -0.1979
    159  CA       -56.6140  -14.2020   27.6210 C.3   359  MET359      0.1605
    160  C        -56.9180  -15.3860   26.7100 C.2   359  MET359      0.2287
    161  O        -56.9820  -15.2450   25.4830 O.2   359  MET359     -0.2864
    162  CB       -55.3240  -14.4500   28.4080 C.3   359  MET359      0.0413
    163  CG       -54.7870  -13.2440   29.1580 C.3   359  MET359      0.0598
    164  SD       -54.6040  -11.7800   28.1270 S.3   359  MET359     -0.1393
    165  CE       -53.9250  -10.6240   29.3130 C.3   359  MET359      0.0692
    166  N        -56.2560  -11.7200   22.4630 N.3   364  PRO364     -0.2102
    167  CA       -56.2190  -10.3530   21.9260 C.3   364  PRO364      0.1504
    168  C        -54.9990  -10.0510   21.0750 C.2   364  PRO364      0.2575
    169  O        -55.0220   -9.0650   20.3260 O.2   364  PRO364     -0.2718
    170  CB       -56.2320   -9.4870   23.1910 C.3   364  PRO364      0.0282
    171  CG       -55.5110  -10.3310   24.2000 C.3   364  PRO364      0.0208
    172  CD       -55.8240  -11.7740   23.8720 C.3   364  PRO364      0.0893
    173  N        -53.9420  -10.8570   21.1600 N.am  365  TYR365     -0.1977
    174  CA       -52.7480  -10.5330   20.3990 C.3   365  TYR365      0.1639
    175  C        -52.6360  -11.4140   19.1610 C.2   365  TYR365      0.2290
    176  O        -53.0400  -12.5800   19.1810 O.2   365  TYR365     -0.2864
    177  CB       -51.4940  -10.7070   21.2610 C.3   365  TYR365      0.0560
    178  CG       -51.4720   -9.8230   22.4870 C.ar  365  TYR365     -0.0198
    179  CD1      -50.9760   -8.5280   22.4220 C.ar  365  TYR365     -0.0009
    180  CD2      -51.9480  -10.2820   23.7080 C.ar  365  TYR365     -0.0009
    181  CE1      -50.9550   -7.7150   23.5400 C.ar  365  TYR365      0.0417
    182  CE2      -51.9310   -9.4760   24.8310 C.ar  365  TYR365      0.0417
    183  CZ       -51.4330   -8.1940   24.7410 C.ar  365  TYR365      0.1957
    184  OH       -51.4140   -7.3880   25.8570 O.3   365  TYR365     -0.2866
@<TRIPOS>BOND
     1    77    76    1
     2    75    76    1
     3    75    72    1
     4    76    78    1
     5    71    72    1
     6    73    72    1
     7    73    74    2
     8    57    56    2
     9    56    55    1
    10    66    65    2
    11    65    64    1
    12    55    58    1
    13    55    54    1
    14     9    10    1
    15    10    11    1
    16    10    13    1
    17    64    63    1
    18    64    67    1
    19    12    11    2
    20    58    59    1
    21    79    80    1
    22   175   176    2
    23   175   174    1
    24    59    60    1
    25    67    68    1
    26    80    81    1
    27    80    83    1
    28    81    82    2
    29    61    60    2
    30    60    62   am
    31    70    68    1
    32    83    85    1
    33    83    84    1
    34   169   168    2
    35   174   173    1
    36   174   177    1
    37    68    69    1
    38     4     3    2
    39    86    87    1
    40   168   173   am
    41   168   167    1
    42     3     2    1
    43   177   178    1
    44    43    42    2
    45     1     2    1
    46   167   166    1
    47   167   170    1
    48     2     5    1
    49    87    90    1
    50    87    88    1
    51    51    53   ar
    52    51    49   ar
    53    90    91    1
    54   179   178   ar
    55   179   181   ar
    56    53    52   ar
    57   166   172    1
    58    42    41    1
    59   178   180   ar
    60    49    48   ar
    61    49    47   ar
    62    48    46   ar
    63    96    88   am
    64    96    97    1
    65    52    50   ar
    66    88    89    2
    67   170   171    1
    68    47    50   ar
    69    47    45   ar
    70     5     6    1
    71    46    45   ar
    72   181   183   ar
    73    41    40    1
    74    41    44    1
    75   100    97    1
    76   100   101    1
    77   180   182   ar
    78    98    97    1
    79    98    99    2
    80     8     6    1
    81   102   101   ar
    82   102   104   ar
    83    91    93   ar
    84    91    92   ar
    85    45    44    1
    86   172   171    1
    87     7     6    1
    88   101   103   ar
    89   104   105   ar
    90    93    95   ar
    91   183   182   ar
    92   183   184    1
    93    92    94   ar
    94   103   105   ar
    95    37    36    2
    96   161   160    2
    97    95    94   ar
    98   106   107    1
    99    36    35    1
   100   160   159    1
   101   151   150    2
   102   111   110    1
   103   111   113    1
   104    39    38    1
   105   107   110    1
   106   107   108    1
   107    33    32    2
   108    35    38    1
   109    35    34    1
   110   110   112    1
   111   159   162    1
   112   159   158    1
   113   108   109    2
   114   150   158   am
   115   150   149    1
   116   164   163    1
   117   164   165    1
   118    32    34   am
   119    32    31    1
   120   162   163    1
   121   149   152    1
   122   149   148    1
   123   152   153    1
   124    31    30    1
   125   153   154   ar
   126   153   155   ar
   127   154   156   ar
   128   114   115    1
   129   155   157   ar
   130    25    24    2
   131   144   143    2
   132   156   157   ar
   133   147   145    1
   134   118   115    1
   135   118   119    1
   136   121   119   ar
   137   121   123   ar
   138   115   116    1
   139   116   117    2
   140    24    23    1
   141   143   142    1
   142   119   120   ar
   143   123   124   ar
   144    17    16    2
   145   142   145    1
   146   142   141    1
   147   136   135    2
   148   145   146    1
   149   120   122   ar
   150   124   122   ar
   151    23    22    1
   152    23    26    1
   153    16    22   am
   154    16    15    1
   155   135   141   am
   156   135   134    1
   157    26    27    1
   158    15    14    1
   159    15    18    1
   160   139   137    1
   161    29    27    1
   162    20    19    1
   163   134   137    1
   164   134   133    1
   165    27    28    1
   166    19    18    1
   167    19    21    1
   168   137   138    1
   169   132   130    1
   170   128   127    2
   171   131   130    1
   172   138   140    1
   173   130   129    1
   174   127   126    1
   175   126   129    1
   176   126   125    1
