@<TRIPOS>MOLECULE
tmp/6fosD28.pdb
 91 89 0 0 0
SMALL
GASTEIGER

@<TRIPOS>ATOM
      1  N        -71.2800  -24.7200   53.8560 N.3   432  VAL432     -0.1245
      2  CA       -71.1630  -24.6890   52.4010 C.3   432  VAL432      0.1561
      3  C        -69.9030  -25.4170   51.9520 C.2   432  VAL432      0.2260
      4  O        -69.9280  -26.1930   50.9890 O.2   432  VAL432     -0.2867
      5  CB       -71.1920  -23.2350   51.8930 C.3   432  VAL432      0.0252
      6  CG1      -70.8280  -23.1780   50.4180 C.3   432  VAL432      0.0019
      7  CG2      -72.5620  -22.6200   52.1240 C.3   432  VAL432      0.0019
      8  N        -70.4670  -29.2350   52.3750 N.3   435  PHE435     -0.1227
      9  CA       -71.3650  -29.7790   51.3620 C.3   435  PHE435      0.1736
     10  C        -70.6770  -29.8630   50.0050 C.2   435  PHE435      0.2595
     11  O        -70.8610  -30.8380   49.2670 O.2   435  PHE435     -0.2718
     12  CB       -72.6340  -28.9340   51.2650 C.3   435  PHE435      0.0547
     13  CG       -73.5200  -29.3140   50.1160 C.ar  435  PHE435     -0.0202
     14  CD1      -74.2650  -30.4810   50.1570 C.ar  435  PHE435     -0.0042
     15  CD2      -73.6010  -28.5120   48.9900 C.ar  435  PHE435     -0.0042
     16  CE1      -75.0780  -30.8400   49.0990 C.ar  435  PHE435     -0.0003
     17  CE2      -74.4140  -28.8650   47.9280 C.ar  435  PHE435     -0.0003
     18  CZ       -75.1530  -30.0310   47.9840 C.ar  435  PHE435     -0.0000
     19  N        -69.8810  -28.8520   49.6580 N.am  436  LEU436     -0.1980
     20  CA       -69.1440  -28.8530   48.4020 C.3   436  LEU436      0.1596
     21  C        -67.8920  -29.7180   48.4480 C.2   436  LEU436      0.2287
     22  O        -67.2280  -29.8720   47.4180 O.2   436  LEU436     -0.2864
     23  CB       -68.7640  -27.4220   48.0110 C.3   436  LEU436      0.0297
     24  CG       -69.9320  -26.4810   47.7120 C.3   436  LEU436      0.0022
     25  CD1      -69.4250  -25.0860   47.3860 C.3   436  LEU436      0.0001
     26  CD2      -70.7800  -27.0270   46.5750 C.3   436  LEU436      0.0001
     27  N        -75.7060  -33.7720   34.9070 N.3   467  LEU467     -0.1245
     28  CA       -74.8830  -32.6370   35.3170 C.3   467  LEU467      0.1561
     29  C        -74.1540  -32.0310   34.1220 C.2   467  LEU467      0.2260
     30  O        -74.4370  -30.8980   33.7210 O.2   467  LEU467     -0.2867
     31  CB       -73.8830  -33.0480   36.4030 C.3   467  LEU467      0.0270
     32  CG       -74.4230  -33.2980   37.8170 C.3   467  LEU467      0.0019
     33  CD1      -75.3750  -32.1850   38.2350 C.3   467  LEU467      0.0001
     34  CD2      -75.0890  -34.6630   37.9420 C.3   467  LEU467      0.0001
     35  N        -76.3430  -28.1710   32.5070 N.3   471  PHE471     -0.1241
     36  CA       -76.2120  -26.7610   32.8360 C.3   471  PHE471      0.1605
     37  C        -75.1270  -26.1280   31.9730 C.2   471  PHE471      0.2264
     38  O        -74.2410  -26.8120   31.4510 O.2   471  PHE471     -0.2867
     39  CB       -75.8840  -26.5770   34.3240 C.3   471  PHE471      0.0534
     40  CG       -75.8330  -25.1400   34.7650 C.ar  471  PHE471     -0.0203
     41  CD1      -76.9970  -24.4540   35.0720 C.ar  471  PHE471     -0.0042
     42  CD2      -74.6210  -24.4770   34.8790 C.ar  471  PHE471     -0.0042
     43  CE1      -76.9540  -23.1340   35.4790 C.ar  471  PHE471     -0.0003
     44  CE2      -74.5710  -23.1560   35.2850 C.ar  471  PHE471     -0.0003
     45  CZ       -75.7390  -22.4840   35.5860 C.ar  471  PHE471     -0.0000
     46  N        -68.2480  -30.4230   35.4120 N.3   521  PHE521     -0.1241
     47  CA       -68.9930  -30.2000   36.6450 C.3   521  PHE521      0.1605
     48  C        -68.2130  -30.6950   37.8550 C.2   521  PHE521      0.2264
     49  O        -68.3850  -30.1750   38.9630 O.2   521  PHE521     -0.2867
     50  CB       -70.3530  -30.8960   36.5540 C.3   521  PHE521      0.0534
     51  CG       -71.2100  -30.7350   37.7780 C.ar  521  PHE521     -0.0203
     52  CD1      -72.0640  -29.6520   37.9040 C.ar  521  PHE521     -0.0042
     53  CD2      -71.1790  -31.6790   38.7930 C.ar  521  PHE521     -0.0042
     54  CE1      -72.8610  -29.5060   39.0230 C.ar  521  PHE521     -0.0003
     55  CE2      -71.9700  -31.5370   39.9160 C.ar  521  PHE521     -0.0003
     56  CZ       -72.8120  -30.4480   40.0310 C.ar  521  PHE521     -0.0000
     57  N        -65.0320  -28.0260   38.2690 N.3   524  HIS524     -0.1226
     58  CA       -65.5360  -26.7090   38.6490 C.3   524  HIS524      0.1752
     59  C        -65.9980  -26.6850   40.0990 C.2   524  HIS524      0.2596
     60  O        -65.9180  -25.6420   40.7580 O.2   524  HIS524     -0.2718
     61  CB       -66.6780  -26.2860   37.7240 C.3   524  HIS524      0.0759
     62  CG       -66.2230  -25.7720   36.3940 C.ar  524  HIS524      0.0818
     63  ND1      -65.9230  -26.6040   35.3370 N.ar  524  HIS524     -0.2268
     64  CD2      -66.0170  -24.5100   35.9500 C.ar  524  HIS524      0.1154
     65  CE1      -65.5530  -25.8760   34.2980 C.ar  524  HIS524      0.1986
     66  NE2      -65.6010  -24.6020   34.6440 N.ar  524  HIS524     -0.2212
     67  N        -66.4820  -27.8190   40.6130 N.am  525  HIS525     -0.1975
     68  CA       -66.8860  -27.8860   42.0110 C.3   525  HIS525      0.1656
     69  C        -65.7140  -28.1910   42.9330 C.2   525  HIS525      0.2291
     70  O        -65.7470  -27.8140   44.1100 O.2   525  HIS525     -0.2864
     71  CB       -67.9940  -28.9210   42.1870 C.3   525  HIS525      0.0771
     72  CG       -69.3570  -28.3850   41.8970 C.ar  525  HIS525      0.0820
     73  ND1      -70.1100  -27.7260   42.8440 N.ar  525  HIS525     -0.2267
     74  CD2      -70.0970  -28.3890   40.7630 C.ar  525  HIS525      0.1154
     75  CE1      -71.2600  -27.3570   42.3100 C.ar  525  HIS525      0.1986
     76  NE2      -71.2770  -27.7460   41.0470 N.ar  525  HIS525     -0.2212
     77  N        -64.8000  -24.6340   43.2630 N.3   528  ALA528     -0.1245
     78  CA       -65.6750  -23.9520   44.2140 C.3   528  ALA528      0.1562
     79  C        -65.4210  -24.4080   45.6440 C.2   528  ALA528      0.2260
     80  O        -65.5340  -23.6070   46.5790 O.2   528  ALA528     -0.2867
     81  CB       -67.1390  -24.1780   43.8370 C.3   528  ALA528      0.0290
     82  N        -64.3550  -21.6590   48.3230 N.3   532  HIS532     -0.1241
     83  CA       -65.1060  -21.3560   49.5380 C.3   532  HIS532      0.1621
     84  C        -64.2610  -21.5830   50.7860 C.2   532  HIS532      0.2264
     85  O        -64.3870  -20.8420   51.7670 O.2   532  HIS532     -0.2867
     86  CB       -66.3860  -22.1890   49.5950 C.3   532  HIS532      0.0745
     87  CG       -67.5120  -21.6170   48.7930 C.ar  532  HIS532      0.0817
     88  ND1      -67.6950  -21.9010   47.4570 N.ar  532  HIS532     -0.2268
     89  CD2      -68.5100  -20.7680   49.1370 C.ar  532  HIS532      0.1154
     90  CE1      -68.7590  -21.2560   47.0130 C.ar  532  HIS532      0.1986
     91  NE2      -69.2720  -20.5610   48.0130 N.ar  532  HIS532     -0.2212
@<TRIPOS>BOND
     1    38    37    2
     2    37    36    1
     3    35    36    1
     4    36    39    1
     5    30    29    2
     6    29    28    1
     7    65    66   ar
     8    65    63   ar
     9    39    40    1
    10    66    64   ar
    11    40    42   ar
    12    40    41   ar
    13    42    44   ar
    14    27    28    1
    15    41    43   ar
    16    44    45   ar
    17    28    31    1
    18    63    62   ar
    19    46    47    1
    20    43    45   ar
    21    64    62   ar
    22    62    61    1
    23    31    32    1
    24    50    47    1
    25    50    51    1
    26    47    48    1
    27    61    58    1
    28    51    52   ar
    29    51    53   ar
    30    32    34    1
    31    32    33    1
    32    48    49    2
    33    52    54   ar
    34    57    58    1
    35    58    59    1
    36    53    55   ar
    37    54    56   ar
    38    55    56   ar
    39    59    67   am
    40    59    60    2
    41    67    68    1
    42    74    76   ar
    43    74    72   ar
    44    76    75   ar
    45    72    71    1
    46    72    73   ar
    47    68    71    1
    48    68    69    1
    49    75    73   ar
    50    69    70    2
    51    77    78    1
    52    81    78    1
    53    78    79    1
    54    79    80    2
    55    26    24    1
    56    90    88   ar
    57    90    91   ar
    58    25    24    1
    59    22    21    2
    60    88    87   ar
    61    24    23    1
    62    17    18   ar
    63    17    15   ar
    64    18    16   ar
    65    23    20    1
    66    91    89   ar
    67    82    83    1
    68    20    21    1
    69    20    19    1
    70    87    89   ar
    71    87    86    1
    72    15    13   ar
    73    16    14   ar
    74    11    10    2
    75    83    86    1
    76    83    84    1
    77    19    10   am
    78    10     9    1
    79    13    14   ar
    80    13    12    1
    81     6     5    1
    82    84    85    2
    83     4     3    2
    84    12     9    1
    85     9     8    1
    86     5     7    1
    87     5     2    1
    88     3     2    1
    89     2     1    1
