@<TRIPOS>MOLECULE
tmp/6fosE38.pdb
 87 85 0 0 0
SMALL
GASTEIGER

@<TRIPOS>ATOM
      1  N        -54.3600  -40.7130   49.6570 N.3   646  LEU646     -0.1245
      2  CA       -55.3790  -40.0510   50.4610 C.3   646  LEU646      0.1561
      3  C        -54.9850  -40.0450   51.9340 C.2   646  LEU646      0.2260
      4  O        -54.8340  -38.9800   52.5450 O.2   646  LEU646     -0.2867
      5  CB       -56.7280  -40.7460   50.2620 C.3   646  LEU646      0.0270
      6  CG       -57.9410  -40.1490   50.9750 C.3   646  LEU646      0.0019
      7  CD1      -58.2090  -38.7380   50.4790 C.3   646  LEU646      0.0001
      8  CD2      -59.1610  -41.0340   50.7740 C.3   646  LEU646      0.0001
      9  N        -51.7920  -37.9840   52.6440 N.3   649  ALA649     -0.1231
     10  CA       -52.1030  -36.5620   52.6260 C.3   649  ALA649      0.1694
     11  C        -53.1250  -36.1830   53.6900 C.2   649  ALA649      0.2592
     12  O        -53.1640  -35.0190   54.1030 O.2   649  ALA649     -0.2718
     13  CB       -52.6040  -36.1510   51.2420 C.3   649  ALA649      0.0304
     14  N        -53.9480  -37.1350   54.1420 N.am  650  THR650     -0.1953
     15  CA       -54.8340  -36.8670   55.2710 C.3   650  THR650      0.1897
     16  C        -54.0340  -36.4860   56.5100 C.2   650  THR650      0.2313
     17  O        -54.4370  -35.5980   57.2710 O.2   650  THR650     -0.2863
     18  CB       -55.7120  -38.0870   55.5600 C.3   650  THR650      0.1794
     19  OG1      -56.4300  -38.4560   54.3760 O.3   650  THR650     -0.2208
     20  CG2      -56.7040  -37.7850   56.6770 C.3   650  THR650      0.0378
     21  N        -51.3460  -34.8340   56.5360 N.3   652  PHE652     -0.1227
     22  CA       -50.8920  -33.4570   56.3730 C.3   652  PHE652      0.1736
     23  C        -51.8740  -32.4470   56.9550 C.2   652  PHE652      0.2595
     24  O        -51.4900  -31.2970   57.1970 O.2   652  PHE652     -0.2718
     25  CB       -50.6430  -33.1570   54.8940 C.3   652  PHE652      0.0547
     26  CG       -49.2690  -33.5350   54.4210 C.ar  652  PHE652     -0.0202
     27  CD1      -48.3190  -34.0010   55.3140 C.ar  652  PHE652     -0.0042
     28  CD2      -48.9230  -33.4110   53.0870 C.ar  652  PHE652     -0.0042
     29  CE1      -47.0540  -34.3460   54.8840 C.ar  652  PHE652     -0.0003
     30  CE2      -47.6580  -33.7530   52.6520 C.ar  652  PHE652     -0.0003
     31  CZ       -46.7230  -34.2200   53.5520 C.ar  652  PHE652     -0.0000
     32  N        -53.1280  -32.8430   57.1860 N.am  653  MET653     -0.1979
     33  CA       -54.0580  -31.9610   57.8840 C.3   653  MET653      0.1605
     34  C        -53.6930  -31.8340   59.3580 C.2   653  MET653      0.2287
     35  O        -53.7500  -30.7370   59.9260 O.2   653  MET653     -0.2864
     36  CB       -55.4910  -32.4730   57.7360 C.3   653  MET653      0.0413
     37  CG       -56.5120  -31.6600   58.5220 C.3   653  MET653      0.0598
     38  SD       -58.0490  -32.5400   58.8590 S.3   653  MET653     -0.1393
     39  CE       -58.7390  -32.6670   57.2150 C.3   653  MET653      0.0692
     40  N        -49.5470  -30.0420   59.5200 N.3   656  ILE656     -0.1231
     41  CA       -49.1750  -28.7040   59.0720 C.3   656  ILE656      0.1692
     42  C        -49.8520  -27.6370   59.9240 C.2   656  ILE656      0.2592
     43  O        -49.2160  -26.6660   60.3490 O.2   656  ILE656     -0.2718
     44  CB       -49.5030  -28.5330   57.5770 C.3   656  ILE656      0.0266
     45  CG1      -48.7070  -29.5410   56.7440 C.3   656  ILE656      0.0019
     46  CG2      -49.2070  -27.1130   57.1210 C.3   656  ILE656      0.0020
     47  CD1      -48.8950  -29.3890   55.2530 C.3   656  ILE656      0.0001
     48  N        -51.1450  -27.7990   60.1910 N.am  657  SER657     -0.1952
     49  CA       -51.8990  -26.8620   61.0120 C.3   657  SER657      0.1924
     50  C        -52.0740  -27.4250   62.4160 C.2   657  SER657      0.2314
     51  O        -52.3150  -28.6230   62.5900 O.2   657  SER657     -0.2863
     52  CB       -53.2660  -26.5660   60.3910 C.3   657  SER657      0.2116
     53  OG       -54.0410  -27.7460   60.2740 O.3   657  SER657     -0.2180
     54  N        -56.8360  -23.2340   65.8860 N.3   661  TYR661     -0.1227
     55  CA       -57.7800  -22.9200   64.8180 C.3   661  TYR661      0.1736
     56  C        -59.0030  -23.8250   64.8840 C.2   661  TYR661      0.2595
     57  O        -60.1340  -23.3760   64.6620 O.2   661  TYR661     -0.2718
     58  CB       -57.0860  -23.0470   63.4620 C.3   661  TYR661      0.0548
     59  CG       -57.9210  -22.6280   62.2700 C.ar  661  TYR661     -0.0200
     60  CD1      -57.9840  -21.2990   61.8750 C.ar  661  TYR661     -0.0009
     61  CD2      -58.6270  -23.5660   61.5260 C.ar  661  TYR661     -0.0009
     62  CE1      -58.7350  -20.9110   60.7810 C.ar  661  TYR661      0.0417
     63  CE2      -59.3840  -23.1860   60.4290 C.ar  661  TYR661      0.0417
     64  CZ       -59.4340  -21.8580   60.0620 C.ar  661  TYR661      0.1957
     65  OH       -60.1840  -21.4740   58.9730 O.3   661  TYR661     -0.2866
     66  N        -58.7960  -25.1050   65.2020 N.am  662  TRP662     -0.1976
     67  CA       -59.9160  -26.0290   65.3220 C.3   662  TRP662      0.1640
     68  C        -60.7610  -25.7310   66.5530 C.2   662  TRP662      0.2290
     69  O        -61.9750  -25.9580   66.5360 O.2   662  TRP662     -0.2864
     70  CB       -59.4020  -27.4680   65.3470 C.3   662  TRP662      0.0576
     71  CG       -58.6300  -27.8130   64.1130 C.ar  662  TRP662      0.0006
     72  CD1      -57.2770  -27.9170   63.9930 C.ar  662  TRP662      0.0946
     73  CD2      -59.1700  -28.0720   62.8130 C.ar  662  TRP662      0.0152
     74  NE1      -56.9390  -28.2360   62.7000 N.ar  662  TRP662     -0.2442
     75  CE2      -58.0840  -28.3370   61.9550 C.ar  662  TRP662      0.0810
     76  CE3      -60.4650  -28.1120   62.2920 C.ar  662  TRP662      0.0012
     77  CZ2      -58.2560  -28.6370   60.6060 C.ar  662  TRP662      0.0191
     78  CZ3      -60.6320  -28.4100   60.9550 C.ar  662  TRP662      0.0001
     79  CH2      -59.5350  -28.6690   60.1270 C.ar  662  TRP662      0.0015
     80  N        -63.0540  -22.9910   65.5560 N.3   665  LEU665     -0.1245
     81  CA       -64.0510  -23.4510   64.5980 C.3   665  LEU665      0.1561
     82  C        -65.0830  -24.3670   65.2440 C.2   665  LEU665      0.2260
     83  O        -66.2770  -24.2610   64.9430 O.2   665  LEU665     -0.2867
     84  CB       -63.3680  -24.1700   63.4300 C.3   665  LEU665      0.0270
     85  CG       -64.2460  -24.4630   62.2130 C.3   665  LEU665      0.0019
     86  CD1      -64.7930  -23.1680   61.6350 C.3   665  LEU665      0.0001
     87  CD2      -63.4700  -25.2400   61.1590 C.3   665  LEU665      0.0001
@<TRIPOS>BOND
     1     1     2    1
     2     5     2    1
     3     5     6    1
     4     2     3    1
     5     7     6    1
     6     8     6    1
     7    13    10    1
     8     3     4    2
     9    10     9    1
    10    10    11    1
    11    30    28   ar
    12    30    31   ar
    13    28    26   ar
    14    31    29   ar
    15    11    12    2
    16    11    14   am
    17    14    15    1
    18    19    18    1
    19    26    25    1
    20    26    27   ar
    21    29    27   ar
    22    25    22    1
    23    47    45    1
    24    15    18    1
    25    15    16    1
    26    18    20    1
    27    22    21    1
    28    22    23    1
    29    16    17    2
    30    45    44    1
    31    23    32   am
    32    23    24    2
    33    46    44    1
    34    32    33    1
    35    39    38    1
    36    44    41    1
    37    36    33    1
    38    36    37    1
    39    33    34    1
    40    37    38    1
    41    65    64    1
    42    41    40    1
    43    41    42    1
    44    34    35    2
    45    42    48   am
    46    42    43    2
    47    64    63   ar
    48    64    62   ar
    49    79    77   ar
    50    79    78   ar
    51    48    49    1
    52    53    52    1
    53    52    49    1
    54    63    61   ar
    55    77    75   ar
    56    62    60   ar
    57    78    76   ar
    58    49    50    1
    59    87    85    1
    60    61    59   ar
    61    86    85    1
    62    60    59   ar
    63    75    74   ar
    64    75    73   ar
    65    85    84    1
    66    59    58    1
    67    76    73   ar
    68    50    51    2
    69    74    72   ar
    70    73    71   ar
    71    84    81    1
    72    58    55    1
    73    72    71   ar
    74    71    70    1
    75    81    82    1
    76    81    80    1
    77    57    56    2
    78    55    56    1
    79    55    54    1
    80    56    66   am
    81    83    82    2
    82    66    67    1
    83    67    70    1
    84    67    68    1
    85    69    68    2
