@<TRIPOS>MOLECULE
tmp/6fosD47.pdb
 98 103 0 0 0
SMALL
GASTEIGER

@<TRIPOS>ATOM
      1  N        -27.7290    4.7430   56.7200 N.3    17  TRP17      -0.1241
      2  CA       -27.2220    3.5140   56.1160 C.3    17  TRP17       0.1605
      3  C        -26.0560    2.9400   56.9090 C.2    17  TRP17       0.2264
      4  O        -25.8040    1.7310   56.8490 O.2    17  TRP17      -0.2867
      5  CB       -26.8030    3.7680   54.6690 C.3    17  TRP17       0.0550
      6  CG       -27.9550    3.9740   53.7360 C.ar   17  TRP17       0.0003
      7  CD1      -29.2820    3.8930   54.0410 C.ar   17  TRP17       0.0946
      8  CD2      -27.8830    4.2930   52.3420 C.ar   17  TRP17       0.0152
      9  NE1      -30.0410    4.1440   52.9240 N.ar   17  TRP17      -0.2442
     10  CE2      -29.2060    4.3920   51.8670 C.ar   17  TRP17       0.0810
     11  CE3      -26.8280    4.5050   51.4490 C.ar   17  TRP17       0.0012
     12  CZ2      -29.5010    4.6940   50.5390 C.ar   17  TRP17       0.0191
     13  CZ3      -27.1230    4.8060   50.1320 C.ar   17  TRP17       0.0001
     14  CH2      -28.4490    4.8970   49.6890 C.ar   17  TRP17       0.0015
     15  N        -25.9760    2.7560   60.1190 N.3    19  LYS19      -0.1231
     16  CA       -26.5500    2.0420   61.2490 C.3    19  LYS19       0.1678
     17  C        -27.5130    0.9810   60.7420 C.2    19  LYS19       0.2434
     18  O        -28.5560    1.3300   60.1670 O.2    19  LYS19      -0.2733
     19  CB       -27.2670    3.0080   62.1910 C.3    19  LYS19       0.0284
     20  CG       -26.3380    3.9650   62.9250 C.3    19  LYS19       0.0035
     21  CD       -27.0920    4.8500   63.9100 C.3    19  LYS19       0.0206
     22  CE       -27.5570    6.1530   63.2690 C.3    19  LYS19       0.1093
     23  NZ       -28.5930    5.9540   62.2180 N.3    19  LYS19      -0.1314
     24  N        -27.2220   -0.3100   60.9230 N.am   20  PRO20      -0.2718
     25  CA       -28.1440   -1.3510   60.4490 C.3    20  PRO20       0.1535
     26  C        -29.3750   -1.4740   61.3330 C.2    20  PRO20       0.2599
     27  O        -29.3530   -2.1650   62.3560 O.2    20  PRO20      -0.2715
     28  CB       -27.2870   -2.6210   60.4910 C.3    20  PRO20       0.0310
     29  CG       -26.2970   -2.3590   61.5770 C.3    20  PRO20       0.0237
     30  CD       -26.0160   -0.8780   61.5520 C.3    20  PRO20       0.0939
     31  N        -30.4580   -0.8090   60.9420 N.am   21  GLY21      -0.1941
     32  CA       -31.6700   -0.8140   61.7350 C.3    21  GLY21       0.2014
     33  C        -32.0160    0.5580   62.2710 C.2    21  GLY21       0.2638
     34  O        -32.5250    0.6910   63.3870 O.2    21  GLY21      -0.2714
     35  N        -31.7350    1.5940   61.4770 N.am   22  HIS22      -0.1973
     36  CA       -32.0490    2.9580   61.8810 C.3    22  HIS22       0.1656
     37  C        -33.5470    3.2140   61.9380 C.2    22  HIS22       0.2291
     38  O        -33.9810    4.1330   62.6410 O.2    22  HIS22      -0.2864
     39  CB       -31.3970    3.9510   60.9190 C.3    22  HIS22       0.0771
     40  CG       -31.9490    3.8900   59.5290 C.ar   22  HIS22       0.0820
     41  ND1      -33.0400    4.6310   59.1280 N.ar   22  HIS22      -0.2267
     42  CD2      -31.5630    3.1740   58.4470 C.ar   22  HIS22       0.1154
     43  CE1      -33.3010    4.3760   57.8580 C.ar   22  HIS22       0.1986
     44  NE2      -32.4190    3.4950   57.4210 N.ar   22  HIS22      -0.2212
     45  N        -32.4380  -11.1270   65.9800 N.3    36  TRP36      -0.1227
     46  CA       -32.4500   -9.7340   65.5410 C.3    36  TRP36       0.1737
     47  C        -32.1190   -9.6080   64.0600 C.2    36  TRP36       0.2595
     48  O        -32.6230   -8.7020   63.3870 O.2    36  TRP36      -0.2718
     49  CB       -31.4620   -8.9210   66.3790 C.3    36  TRP36       0.0564
     50  CG       -31.2410   -7.5230   65.8880 C.ar   36  TRP36       0.0003
     51  CD1      -31.9580   -6.4140   66.2250 C.ar   36  TRP36       0.0946
     52  CD2      -30.2240   -7.0810   64.9780 C.ar   36  TRP36       0.0152
     53  NE1      -31.4560   -5.3100   65.5800 N.ar   36  TRP36      -0.2442
     54  CE2      -30.3910   -5.6930   64.8080 C.ar   36  TRP36       0.0810
     55  CE3      -29.1910   -7.7260   64.2890 C.ar   36  TRP36       0.0012
     56  CZ2      -29.5640   -4.9370   63.9790 C.ar   36  TRP36       0.0191
     57  CZ3      -28.3710   -6.9730   63.4670 C.ar   36  TRP36       0.0001
     58  CH2      -28.5630   -5.5940   63.3180 C.ar   36  TRP36       0.0015
     59  N        -31.2780  -10.5040   63.5390 N.am   37  ILE37      -0.1966
     60  CA       -30.9180  -10.4640   62.1240 C.3    37  ILE37       0.1727
     61  C        -32.1440  -10.7080   61.2530 C.2    37  ILE37       0.2616
     62  O        -32.3040  -10.0940   60.1910 O.2    37  ILE37      -0.2715
     63  CB       -29.7990  -11.4830   61.8390 C.3    37  ILE37       0.0290
     64  CG1      -28.5170  -11.0780   62.5710 C.3    37  ILE37       0.0022
     65  CG2      -29.5610  -11.6240   60.3460 C.3    37  ILE37       0.0023
     66  CD1      -27.3820  -12.0630   62.4090 C.3    37  ILE37       0.0001
     67  N        -33.0350  -11.6000   61.6910 N.am   38  TRP38      -0.1974
     68  CA       -34.2540  -11.8680   60.9370 C.3    38  TRP38       0.1640
     69  C        -35.3460  -10.8470   61.2320 C.2    38  TRP38       0.2290
     70  O        -36.1700  -10.5600   60.3560 O.2    38  TRP38      -0.2864
     71  CB       -34.7560  -13.2820   61.2360 C.3    38  TRP38       0.0576
     72  CG       -33.7830  -14.3430   60.8290 C.ar   38  TRP38       0.0006
     73  CD1      -32.8150  -14.9110   61.6060 C.ar   38  TRP38       0.0946
     74  CD2      -33.6720  -14.9570   59.5380 C.ar   38  TRP38       0.0152
     75  NE1      -32.1130  -15.8430   60.8810 N.ar   38  TRP38      -0.2442
     76  CE2      -32.6190  -15.8900   59.6080 C.ar   38  TRP38       0.0810
     77  CE3      -34.3630  -14.8100   58.3310 C.ar   38  TRP38       0.0012
     78  CZ2      -32.2410  -16.6740   58.5190 C.ar   38  TRP38       0.0191
     79  CZ3      -33.9860  -15.5880   57.2500 C.ar   38  TRP38       0.0001
     80  CH2      -32.9350  -16.5080   57.3520 C.ar   38  TRP38       0.0015
     81  N        -34.8060   -7.7200   61.6200 N.3    40  LEU40      -0.1231
     82  CA       -34.4750   -6.5200   60.8590 C.3    40  LEU40       0.1693
     83  C        -35.1250   -6.5340   59.4810 C.2    40  LEU40       0.2592
     84  O        -35.4680   -5.4740   58.9460 O.2    40  LEU40      -0.2718
     85  CB       -32.9550   -6.3820   60.7360 C.3    40  LEU40       0.0284
     86  CG       -32.3880   -5.0990   60.1180 C.3    40  LEU40       0.0019
     87  CD1      -31.0850   -4.7250   60.7990 C.3    40  LEU40       0.0001
     88  CD2      -32.1670   -5.2500   58.6190 C.3    40  LEU40       0.0001
     89  N        -35.3070   -7.7170   58.8950 N.am   41  HIS41      -0.1976
     90  CA       -35.9190   -7.8410   57.5780 C.3    41  HIS41       0.1656
     91  C        -37.4060   -8.1540   57.6320 C.2    41  HIS41       0.2291
     92  O        -38.1330   -7.8040   56.6970 O.2    41  HIS41      -0.2864
     93  CB       -35.2070   -8.9260   56.7630 C.3    41  HIS41       0.0771
     94  CG       -33.7480   -8.6640   56.5580 C.ar   41  HIS41       0.0820
     95  ND1      -32.7980   -8.9580   57.5120 N.ar   41  HIS41      -0.2267
     96  CD2      -33.0780   -8.1260   55.5120 C.ar   41  HIS41       0.1154
     97  CE1      -31.6050   -8.6170   57.0610 C.ar   41  HIS41       0.1986
     98  NE2      -31.7460   -8.1090   55.8500 N.ar   41  HIS41      -0.2212
@<TRIPOS>BOND
     1    14    13   ar
     2    14    12   ar
     3    13    11   ar
     4    12    10   ar
     5    11     8   ar
     6    10     8   ar
     7    10     9   ar
     8     8     6   ar
     9     9     7   ar
    10     6     7   ar
    11     6     5    1
    12     5     2    1
    13    96    98   ar
    14    96    94   ar
    15    98    97   ar
    16     2     1    1
    17     2     3    1
    18    94    93    1
    19    94    95   ar
    20    92    91    2
    21    93    90    1
    22     4     3    2
    23    97    95   ar
    24    79    80   ar
    25    79    77   ar
    26    80    78   ar
    27    44    43   ar
    28    44    42   ar
    29    90    91    1
    30    90    89    1
    31    43    41   ar
    32    77    74   ar
    33    42    40   ar
    34    78    76   ar
    35    88    86    1
    36    89    83   am
    37    84    83    2
    38    41    40   ar
    39    83    82    1
    40    40    39    1
    41    74    76   ar
    42    74    72   ar
    43    76    75   ar
    44    86    85    1
    45    86    87    1
    46    15    16    1
    47    18    17    2
    48    62    61    2
    49    65    63    1
    50    70    69    2
    51    25    28    1
    52    25    24    1
    53    25    26    1
    54    28    29    1
    55    85    82    1
    56    17    24   am
    57    17    16    1
    58    72    71    1
    59    72    73   ar
    60    82    81    1
    61    75    73   ar
    62    39    36    1
    63    24    30    1
    64    68    69    1
    65    68    71    1
    66    68    67    1
    67    31    26   am
    68    31    32    1
    69    16    19    1
    70    61    67   am
    71    61    60    1
    72    26    27    2
    73    35    36    1
    74    35    33   am
    75    30    29    1
    76    32    33    1
    77    63    60    1
    78    63    64    1
    79    36    37    1
    80    37    38    2
    81    60    59    1
    82    19    20    1
    83    23    22    1
    84    33    34    2
    85    66    64    1
    86    20    21    1
    87    22    21    1
    88    58    57   ar
    89    58    56   ar
    90    48    47    2
    91    57    55   ar
    92    59    47   am
    93    56    54   ar
    94    47    46    1
    95    55    52   ar
    96    54    52   ar
    97    54    53   ar
    98    52    50   ar
    99    46    45    1
   100    46    49    1
   101    53    51   ar
   102    50    51   ar
   103    50    49    1
