@<TRIPOS>MOLECULE
tmp/6fosD21.pdb
 90 85 0 0 0
SMALL
GASTEIGER

@<TRIPOS>ATOM
      1  N        -81.2840   -4.7290   56.9010 N.3   321  LEU321     -0.1231
      2  CA       -80.3640   -5.6320   57.5790 C.3   321  LEU321      0.1693
      3  C        -79.0380   -4.9730   57.9310 C.2   321  LEU321      0.2592
      4  O        -78.2460   -5.5720   58.6640 O.2   321  LEU321     -0.2718
      5  CB       -80.1090   -6.8680   56.7130 C.3   321  LEU321      0.0284
      6  CG       -81.3180   -7.7640   56.4400 C.3   321  LEU321      0.0019
      7  CD1      -80.9340   -8.9150   55.5230 C.3   321  LEU321      0.0001
      8  CD2      -81.9010   -8.2850   57.7440 C.3   321  LEU321      0.0001
      9  N        -78.7780   -3.7640   57.4370 N.am  322  THR322     -0.1953
     10  CA       -77.5150   -3.0820   57.6850 C.3   322  THR322      0.1897
     11  C        -77.5680   -2.1200   58.8630 C.2   322  THR322      0.2313
     12  O        -76.5370   -1.8910   59.5040 O.2   322  THR322     -0.2863
     13  CB       -77.0740   -2.3140   56.4350 C.3   322  THR322      0.1794
     14  OG1      -78.0190   -1.2770   56.1470 O.3   322  THR322     -0.2208
     15  CG2      -76.9810   -3.2520   55.2370 C.3   322  THR322      0.0378
     16  N        -72.4850   -1.8400   59.4010 N.3   414  VAL414     -0.1245
     17  CA       -72.3470   -3.0130   58.5440 C.3   414  VAL414      0.1561
     18  C        -71.1420   -3.8380   58.9720 C.2   414  VAL414      0.2260
     19  O        -71.2480   -5.0470   59.2100 O.2   414  VAL414     -0.2867
     20  CB       -72.2380   -2.5940   57.0680 C.3   414  VAL414      0.0252
     21  CG1      -71.9130   -3.7980   56.2150 C.3   414  VAL414      0.0019
     22  CG2      -73.5250   -1.9600   56.6050 C.3   414  VAL414      0.0019
     23  N        -71.8690   -5.3140   62.2610 N.3   417  ARG417     -0.1231
     24  CA       -72.6510   -6.5440   62.1770 C.3   417  ARG417      0.1694
     25  C        -71.8000   -7.7120   61.6940 C.2   417  ARG417      0.2591
     26  O        -71.9440   -8.8360   62.1900 O.2   417  ARG417     -0.2718
     27  CB       -73.8580   -6.3380   61.2640 C.3   417  ARG417      0.0321
     28  CG       -74.9380   -5.4760   61.8840 C.3   417  ARG417      0.0489
     29  CD       -76.0150   -5.1100   60.8840 C.3   417  ARG417      0.2205
     30  NE       -76.8210   -3.9880   61.3530 N.pl3 417  ARG417     -0.0865
     31  CZ       -77.8410   -4.1010   62.1980 C.cat 417  ARG417      0.5346
     32  NH1      -78.1840   -5.2900   62.6720 N.pl3 417  ARG417      0.1354
     33  NH2      -78.5170   -3.0230   62.5700 N.pl3 417  ARG417      0.1354
     34  N        -70.9050   -7.4680   60.7320 N.am  418  MET418     -0.1979
     35  CA       -69.9640   -8.5020   60.3150 C.3   418  MET418      0.1605
     36  C        -69.1250   -9.0140   61.4780 C.2   418  MET418      0.2287
     37  O        -68.6100  -10.1350   61.4130 O.2   418  MET418     -0.2864
     38  CB       -69.0520   -7.9710   59.2080 C.3   418  MET418      0.0413
     39  CG       -69.7390   -7.7910   57.8650 C.3   418  MET418      0.0598
     40  SD       -70.1280   -9.3630   57.0730 S.3   418  MET418     -0.1393
     41  CE       -68.4870  -10.0300   56.8100 C.3   418  MET418      0.0692
     42  N        -72.6390  -10.5040   64.4690 N.3   421  HIS421     -0.1241
     43  CA       -73.0290  -11.8730   64.1250 C.3   421  HIS421      0.1621
     44  C        -71.9130  -12.5970   63.3860 C.2   421  HIS421      0.2264
     45  O        -72.1540  -13.3660   62.4500 O.2   421  HIS421     -0.2867
     46  CB       -74.3260  -11.8770   63.3180 C.3   421  HIS421      0.0745
     47  CG       -74.2150  -11.2460   61.9640 C.ar  421  HIS421      0.0817
     48  ND1      -74.3770   -9.8940   61.7560 N.ar  421  HIS421     -0.2268
     49  CD2      -73.9860  -11.7890   60.7450 C.ar  421  HIS421      0.1154
     50  CE1      -74.2400   -9.6290   60.4680 C.ar  421  HIS421      0.1986
     51  NE2      -73.9990  -10.7620   59.8330 N.ar  421  HIS421     -0.2212
     52  N        -71.9460  -16.3190   62.7050 N.3   424  ALA424     -0.1231
     53  CA       -72.8910  -16.8260   61.7200 C.3   424  ALA424      0.1694
     54  C        -72.2940  -16.8730   60.3190 C.2   424  ALA424      0.2591
     55  O        -72.5570  -17.8200   59.5700 O.2   424  ALA424     -0.2718
     56  CB       -74.1590  -15.9710   61.7180 C.3   424  ALA424      0.0304
     57  N        -71.4920  -15.8680   59.9560 N.am  425  ILE425     -0.1980
     58  CA       -70.8870  -15.8280   58.6260 C.3   425  ILE425      0.1595
     59  C        -70.0800  -17.0940   58.3710 C.2   425  ILE425      0.2287
     60  O        -70.2840  -17.7960   57.3740 O.2   425  ILE425     -0.2864
     61  CB       -70.0100  -14.5730   58.4710 C.3   425  ILE425      0.0276
     62  CG1      -70.7330  -13.3350   59.0030 C.3   425  ILE425      0.0022
     63  CG2      -69.6160  -14.3790   57.0150 C.3   425  ILE425      0.0022
     64  CD1      -71.9120  -12.9110   58.1670 C.3   425  ILE425      0.0001
     65  N        -72.1210  -20.3770   58.1450 N.3   428  HIS428     -0.1226
     66  CA       -72.6790  -20.5790   56.8110 C.3   428  HIS428      0.1752
     67  C        -71.6140  -21.0820   55.8480 C.2   428  HIS428      0.2595
     68  O        -71.7970  -22.1050   55.1770 O.2   428  HIS428     -0.2718
     69  CB       -73.2880  -19.2780   56.2880 C.3   428  HIS428      0.0759
     70  CG       -74.3940  -18.7420   57.1380 C.ar  428  HIS428      0.0818
     71  ND1      -74.2230  -17.6820   58.0010 N.ar  428  HIS428     -0.2268
     72  CD2      -75.6880  -19.1200   57.2580 C.ar  428  HIS428      0.1154
     73  CE1      -75.3630  -17.4290   58.6160 C.ar  428  HIS428      0.1986
     74  NE2      -76.2670  -18.2890   58.1850 N.ar  428  HIS428     -0.2212
     75  N        -70.4870  -20.3700   55.7680 N.am  429  LEU429     -0.1980
     76  CA       -69.4120  -20.7780   54.8720 C.3   429  LEU429      0.1596
     77  C        -68.8740  -22.1560   55.2300 C.2   429  LEU429      0.2287
     78  O        -68.4680  -22.9100   54.3390 O.2   429  LEU429     -0.2864
     79  CB       -68.2830  -19.7440   54.8930 C.3   429  LEU429      0.0297
     80  CG       -68.3880  -18.5660   53.9200 C.3   429  LEU429      0.0022
     81  CD1      -68.5720  -19.0660   52.4940 C.3   429  LEU429      0.0001
     82  CD2      -69.5100  -17.6160   54.3080 C.3   429  LEU429      0.0001
     83  N        -61.6260  -14.7730   55.3610 N.3   539  LEU539     -0.1245
     84  CA       -62.6560  -13.9670   56.0120 C.3   539  LEU539      0.1561
     85  C        -62.7130  -14.2430   57.5080 C.2   539  LEU539      0.2260
     86  O        -63.0100  -13.3380   58.2960 O.2   539  LEU539     -0.2867
     87  CB       -64.0200  -14.2270   55.3670 C.3   539  LEU539      0.0270
     88  CG       -65.2520  -13.5060   55.9190 C.3   539  LEU539      0.0019
     89  CD1      -65.0900  -11.9970   55.8370 C.3   539  LEU539      0.0001
     90  CD2      -66.4910  -13.9530   55.1640 C.3   539  LEU539      0.0001
@<TRIPOS>BOND
     1    81    80    1
     2    80    82    1
     3    80    79    1
     4    78    77    2
     5    76    79    1
     6    76    77    1
     7    76    75    1
     8    90    88    1
     9    68    67    2
    10    15    13    1
    11    83    84    1
    12    87    88    1
    13    87    84    1
    14     7     6    1
    15    75    67   am
    16    89    88    1
    17    67    66    1
    18    84    85    1
    19    14    13    1
    20    21    20    1
    21    69    66    1
    22    69    70    1
    23    13    10    1
    24     6     5    1
    25     6     8    1
    26    22    20    1
    27     5     2    1
    28    41    40    1
    29    66    65    1
    30     1     2    1
    31    63    61    1
    32    20    17    1
    33    40    39    1
    34    70    72   ar
    35    70    71   ar
    36    72    74   ar
    37    60    59    2
    38     9    10    1
    39     9     3   am
    40    85    86    2
    41     2     3    1
    42    10    11    1
    43    39    38    1
    44     3     4    2
    45    71    73   ar
    46    64    62    1
    47    74    73   ar
    48    59    58    1
    49    61    58    1
    50    61    62    1
    51    17    18    1
    52    17    16    1
    53    58    57    1
    54    11    12    2
    55    18    19    2
    56    38    35    1
    57    55    54    2
    58    51    50   ar
    59    51    49   ar
    60    57    54   am
    61    35    34    1
    62    35    36    1
    63    54    53    1
    64    50    48   ar
    65    34    25   am
    66    49    47   ar
    67    29    30    1
    68    29    28    1
    69    27    28    1
    70    27    24    1
    71    30    31    2
    72    37    36    2
    73    25    24    1
    74    25    26    2
    75    56    53    1
    76    53    52    1
    77    48    47   ar
    78    47    46    1
    79    24    23    1
    80    31    33    1
    81    31    32    1
    82    45    44    2
    83    46    43    1
    84    44    43    1
    85    43    42    1
