@<TRIPOS>MOLECULE
tmp/6fosE12.pdb
 82 79 0 0 0
SMALL
GASTEIGER

@<TRIPOS>ATOM
      1  N        -31.8030  -68.0110   83.7360 N.3   167  ASN167     -0.1225
      2  CA       -31.0250  -69.2150   83.4670 C.3   167  ASN167      0.1785
      3  C        -31.8530  -70.2740   82.7420 C.2   167  ASN167      0.2597
      4  O        -31.5540  -70.6290   81.5970 O.2   167  ASN167     -0.2718
      5  CB       -30.4720  -69.7710   84.7850 C.3   167  ASN167      0.1169
      6  CG       -29.9900  -71.2040   84.6660 C.2   167  ASN167      0.2627
      7  OD1      -29.4010  -71.6000   83.6620 O.2   167  ASN167     -0.2716
      8  ND2      -30.2430  -71.9920   85.7000 N.am  167  ASN167     -0.0877
      9  N        -32.9020  -70.7800   83.3970 N.am  168  HIS168     -0.1975
     10  CA       -33.6070  -71.9460   82.8770 C.3   168  HIS168      0.1656
     11  C        -34.4980  -71.6030   81.6880 C.2   168  HIS168      0.2291
     12  O        -34.7060  -72.4500   80.8120 O.2   168  HIS168     -0.2864
     13  CB       -34.4240  -72.5990   83.9920 C.3   168  HIS168      0.0771
     14  CG       -33.5940  -73.0680   85.1460 C.ar  168  HIS168      0.0820
     15  ND1      -32.6950  -74.1070   85.0410 N.ar  168  HIS168     -0.2267
     16  CD2      -33.5240  -72.6370   86.4270 C.ar  168  HIS168      0.1154
     17  CE1      -32.1070  -74.2970   86.2080 C.ar  168  HIS168      0.1986
     18  NE2      -32.5930  -73.4190   87.0670 N.ar  168  HIS168     -0.2212
     19  N        -31.6330  -71.4820   78.4730 N.3   171  ALA171     -0.1231
     20  CA       -31.2750  -72.8600   78.1370 C.3   171  ALA171      0.1694
     21  C        -32.4520  -73.7730   78.4680 C.2   171  ALA171      0.2592
     22  O        -32.4910  -74.4550   79.4950 O.2   171  ALA171     -0.2718
     23  CB       -30.0140  -73.2850   78.8780 C.3   171  ALA171      0.0304
     24  N        -33.4330  -73.7870   77.5680 N.am  172  GLY172     -0.1957
     25  CA       -34.6170  -74.6020   77.7530 C.3   172  GLY172      0.1869
     26  C        -35.6450  -74.4230   76.6580 C.2   172  GLY172      0.2309
     27  O        -36.4260  -75.3370   76.3770 O.2   172  GLY172     -0.2863
     28  N        -33.5830  -74.9730   73.0080 N.3   175  GLY175     -0.1210
     29  CA       -32.7030  -76.1060   73.2340 C.3   175  GLY175      0.1956
     30  C        -33.4720  -77.4080   73.2530 C.2   175  GLY175      0.2611
     31  O        -33.1220  -78.3590   72.5470 O.2   175  GLY175     -0.2717
     32  N        -34.5240  -77.4630   74.0730 N.am  176  VAL176     -0.1979
     33  CA       -35.4690  -78.5730   73.9900 C.3   176  VAL176      0.1595
     34  C        -36.1870  -78.5420   72.6490 C.2   176  VAL176      0.2287
     35  O        -36.2920  -79.5590   71.9540 O.2   176  VAL176     -0.2864
     36  CB       -36.4650  -78.5250   75.1630 C.3   176  VAL176      0.0276
     37  CG1      -37.4700  -79.6620   75.0470 C.3   176  VAL176      0.0022
     38  CG2      -35.7270  -78.5890   76.4900 C.3   176  VAL176      0.0022
     39  N        -26.7970  -73.3960   73.9730 N.3   275  PHE275     -0.1227
     40  CA       -27.3290  -73.5170   75.3250 C.3   275  PHE275      0.1736
     41  C        -26.4620  -74.4060   76.2050 C.2   275  PHE275      0.2595
     42  O        -26.3700  -74.1690   77.4140 O.2   275  PHE275     -0.2718
     43  CB       -28.7600  -74.0530   75.2890 C.3   275  PHE275      0.0547
     44  CG       -29.7650  -73.0550   74.7970 C.ar  275  PHE275     -0.0202
     45  CD1      -29.3740  -71.7780   74.4290 C.ar  275  PHE275     -0.0042
     46  CD2      -31.1020  -73.3880   74.7160 C.ar  275  PHE275     -0.0042
     47  CE1      -30.2960  -70.8600   73.9760 C.ar  275  PHE275     -0.0003
     48  CE2      -32.0260  -72.4710   74.2730 C.ar  275  PHE275     -0.0003
     49  CZ       -31.6240  -71.2060   73.9020 C.ar  275  PHE275     -0.0000
     50  N        -25.8280  -75.4290   75.6280 N.am  276  ILE276     -0.1980
     51  CA       -24.9110  -76.2590   76.4040 C.3   276  ILE276      0.1595
     52  C        -23.7210  -75.4360   76.8790 C.2   276  ILE276      0.2287
     53  O        -23.2010  -75.6580   77.9800 O.2   276  ILE276     -0.2864
     54  CB       -24.4740  -77.4870   75.5780 C.3   276  ILE276      0.0276
     55  CG1      -25.6620  -78.4250   75.3560 C.3   276  ILE276      0.0022
     56  CG2      -23.3430  -78.2360   76.2670 C.3   276  ILE276      0.0022
     57  CD1      -25.3690  -79.5760   74.4210 C.3   276  ILE276      0.0001
     58  N        -26.0170  -72.3550   79.0810 N.3   279  GLY279     -0.1210
     59  CA       -26.7130  -72.8590   80.2540 C.3   279  GLY279      0.1956
     60  C        -25.7960  -73.2770   81.3830 C.2   279  GLY279      0.2611
     61  O        -26.2480  -73.3960   82.5260 O.2   279  GLY279     -0.2717
     62  N        -24.5160  -73.5070   81.0890 N.am  280  HIS280     -0.1975
     63  CA       -23.5280  -73.7800   82.1220 C.3   280  HIS280      0.1656
     64  C        -22.7710  -72.5350   82.5630 C.2   280  HIS280      0.2291
     65  O        -22.1590  -72.5490   83.6370 O.2   280  HIS280     -0.2864
     66  CB       -22.5270  -74.8330   81.6350 C.3   280  HIS280      0.0771
     67  CG       -23.1200  -76.1960   81.4540 C.ar  280  HIS280      0.0820
     68  ND1      -23.8690  -76.5430   80.3500 N.ar  280  HIS280     -0.2267
     69  CD2      -23.0730  -77.2990   82.2380 C.ar  280  HIS280      0.1154
     70  CE1      -24.2580  -77.8000   80.4610 C.ar  280  HIS280      0.1986
     71  NE2      -23.7880  -78.2820   81.5980 N.ar  280  HIS280     -0.2212
     72  N        -25.3940  -70.2380   84.9180 N.3   283  ARG283     -0.1245
     73  CA       -25.9980  -71.0410   85.9780 C.3   283  ARG283      0.1563
     74  C        -25.2960  -70.8170   87.3100 C.2   283  ARG283      0.2260
     75  O        -25.9420  -70.5810   88.3370 O.2   283  ARG283     -0.2867
     76  CB       -25.9640  -72.5230   85.5980 C.3   283  ARG283      0.0307
     77  CG       -26.2020  -73.4870   86.7590 C.3   283  ARG283      0.0489
     78  CD       -27.6820  -73.6490   87.0830 C.3   283  ARG283      0.2205
     79  NE       -28.2470  -72.4690   87.7300 N.pl3 283  ARG283     -0.0865
     80  CZ       -28.5160  -72.3800   89.0280 C.cat 283  ARG283      0.5346
     81  NH1      -28.2790  -73.4090   89.8310 N.pl3 283  ARG283      0.1354
     82  NH2      -29.0280  -71.2620   89.5210 N.pl3 283  ARG283      0.1354
@<TRIPOS>BOND
     1    35    34    2
     2    31    30    2
     3    34    33    1
     4    28    29    1
     5    29    30    1
     6    30    32   am
     7    49    47   ar
     8    49    48   ar
     9    39    40    1
    10    47    45   ar
    11    33    32    1
    12    33    36    1
    13    48    46   ar
    14    57    55    1
    15    45    44   ar
    16    46    44   ar
    17    44    43    1
    18    37    36    1
    19    36    38    1
    20    43    40    1
    21    40    41    1
    22    55    54    1
    23    54    56    1
    24    54    51    1
    25    50    41   am
    26    50    51    1
    27    41    42    2
    28    27    26    2
    29    51    52    1
    30    26    25    1
    31    52    53    2
    32    24    25    1
    33    24    21   am
    34    20    21    1
    35    20    19    1
    36    20    23    1
    37    21    22    2
    38    58    59    1
    39    59    60    1
    40    68    70   ar
    41    68    67   ar
    42    70    71   ar
    43    12    11    2
    44    62    60   am
    45    62    63    1
    46    60    61    2
    47    67    66    1
    48    67    69   ar
    49     4     3    2
    50    71    69   ar
    51    66    63    1
    52    11    10    1
    53    63    64    1
    54    64    65    2
    55     3     9   am
    56     3     2    1
    57    10     9    1
    58    10    13    1
    59     2     1    1
    60     2     5    1
    61     7     6    2
    62    13    14    1
    63     6     5    1
    64     6     8   am
    65    72    73    1
    66    15    14   ar
    67    15    17   ar
    68    14    16   ar
    69    76    73    1
    70    76    77    1
    71    73    74    1
    72    17    18   ar
    73    16    18   ar
    74    77    78    1
    75    78    79    1
    76    74    75    2
    77    79    80    2
    78    80    82    1
    79    80    81    1
