@<TRIPOS>MOLECULE
tmp/6fosE03.pdb
 104 103 0 0 0
SMALL
GASTEIGER

@<TRIPOS>ATOM
      1  N        -53.9860  -65.7590   65.2890 N.3    53  TRP53      -0.1241
      2  CA       -53.8090  -65.2630   63.9300 C.3    53  TRP53       0.1605
      3  C        -52.9980  -66.2330   63.0790 C.2    53  TRP53       0.2264
      4  O        -53.2090  -66.3120   61.8630 O.2    53  TRP53      -0.2867
      5  CB       -53.1700  -63.8730   63.9920 C.3    53  TRP53       0.0550
      6  CG       -52.2030  -63.5330   62.9060 C.ar   53  TRP53       0.0003
      7  CD1      -52.4780  -63.3700   61.5820 C.ar   53  TRP53       0.0946
      8  CD2      -50.8060  -63.2600   63.0640 C.ar   53  TRP53       0.0152
      9  NE1      -51.3330  -63.0360   60.9010 N.ar   53  TRP53      -0.2442
     10  CE2      -50.2920  -62.9610   61.7890 C.ar   53  TRP53       0.0810
     11  CE3      -49.9370  -63.2510   64.1600 C.ar   53  TRP53       0.0012
     12  CZ2      -48.9490  -62.6560   61.5780 C.ar   53  TRP53       0.0191
     13  CZ3      -48.6050  -62.9480   63.9490 C.ar   53  TRP53       0.0001
     14  CH2      -48.1240  -62.6550   62.6680 C.ar   53  TRP53       0.0015
     15  N        -54.2070  -68.0960   59.6220 N.3    57  ASN57      -0.1240
     16  CA       -53.3570  -68.1890   58.4390 C.3    57  ASN57       0.1653
     17  C        -53.3520  -69.6040   57.8750 C.2    57  ASN57       0.2266
     18  O        -53.4190  -69.7950   56.6560 O.2    57  ASN57      -0.2867
     19  CB       -51.9330  -67.7470   58.7760 C.3    57  ASN57       0.1155
     20  CG       -51.8450  -66.2760   59.1320 C.2    57  ASN57       0.2627
     21  OD1      -52.5440  -65.4430   58.5550 O.2    57  ASN57      -0.2716
     22  ND2      -50.9830  -65.9490   60.0870 N.am   57  ASN57      -0.0877
     23  N        -56.8660  -67.3170   49.9490 N.3    82  HIS82      -0.1241
     24  CA       -58.2070  -67.3960   50.5060 C.3    82  HIS82       0.1621
     25  C        -59.2230  -66.8890   49.4930 C.2    82  HIS82       0.2264
     26  O        -58.9030  -66.1050   48.5970 O.2    82  HIS82      -0.2867
     27  CB       -58.3290  -66.5810   51.7980 C.3    82  HIS82       0.0745
     28  CG       -58.6180  -65.1320   51.5650 C.ar   82  HIS82       0.0817
     29  ND1      -59.7650  -64.5190   52.0210 N.ar   82  HIS82      -0.2268
     30  CD2      -57.9190  -64.1790   50.9060 C.ar   82  HIS82       0.1154
     31  CE1      -59.7540  -63.2470   51.6620 C.ar   82  HIS82       0.1986
     32  NE2      -58.6450  -63.0150   50.9840 N.ar   82  HIS82      -0.2212
     33  N        -57.7750  -64.2860   46.0350 N.3   107  SER107     -0.1202
     34  CA       -56.6910  -63.3270   45.9030 C.3   107  SER107      0.2020
     35  C        -55.3470  -64.0400   45.7690 C.2   107  SER107      0.2619
     36  O        -55.2300  -65.2540   45.9530 O.2   107  SER107     -0.2717
     37  CB       -56.6710  -62.3820   47.1000 C.3   107  SER107      0.2103
     38  OG       -56.7410  -63.1100   48.3130 O.3   107  SER107     -0.2182
     39  N        -54.3180  -63.2580   45.4530 N.am  108  TYR108     -0.1961
     40  CA       -52.9770  -63.7830   45.2360 C.3   108  TYR108      0.1771
     41  C        -52.1920  -63.7660   46.5410 C.2   108  TYR108      0.2620
     42  O        -52.1050  -62.7300   47.2080 O.2   108  TYR108     -0.2715
     43  CB       -52.2510  -62.9690   44.1660 C.3   108  TYR108      0.0574
     44  CG       -53.0010  -62.8960   42.8580 C.ar  108  TYR108     -0.0198
     45  CD1      -52.8830  -63.9060   41.9120 C.ar  108  TYR108     -0.0009
     46  CD2      -53.8330  -61.8220   42.5710 C.ar  108  TYR108     -0.0009
     47  CE1      -53.5700  -63.8460   40.7150 C.ar  108  TYR108      0.0417
     48  CE2      -54.5240  -61.7540   41.3760 C.ar  108  TYR108      0.0417
     49  CZ       -54.3890  -62.7680   40.4520 C.ar  108  TYR108      0.1957
     50  OH       -55.0750  -62.7030   39.2620 O.3   108  TYR108     -0.2866
     51  N        -51.6150  -64.9130   46.8930 N.am  109  SER109     -0.1936
     52  CA       -50.9130  -65.0460   48.1620 C.3   109  SER109      0.2055
     53  C        -49.6080  -64.2600   48.1440 C.2   109  SER109      0.2644
     54  O        -48.8020  -64.3890   47.2180 O.2   109  SER109     -0.2714
     55  CB       -50.6390  -66.5190   48.4600 C.3   109  SER109      0.2130
     56  OG       -49.8390  -67.1030   47.4470 O.3   109  SER109     -0.2179
     57  N        -49.4030  -63.4430   49.1750 N.am  110  GLY110     -0.1939
     58  CA       -48.1680  -62.7000   49.3270 C.3   110  GLY110      0.2014
     59  C        -47.2770  -63.2930   50.3970 C.2   110  GLY110      0.2638
     60  O        -46.0640  -63.4150   50.2070 O.2   110  GLY110     -0.2714
     61  N        -47.8690  -63.6620   51.5340 N.am  111  VAL111     -0.1977
     62  CA       -47.1370  -64.3680   52.5800 C.3   111  VAL111      0.1596
     63  C        -46.7990  -65.7570   52.0620 C.2   111  VAL111      0.2287
     64  O        -47.5750  -66.7050   52.2320 O.2   111  VAL111     -0.2864
     65  CB       -47.9390  -64.4460   53.8920 C.3   111  VAL111      0.0276
     66  CG1      -47.1560  -65.2100   54.9530 C.3   111  VAL111      0.0022
     67  CG2      -48.2630  -63.0600   54.3860 C.3   111  VAL111      0.0022
     68  N        -57.6550  -53.7660   42.4260 N.3   636  VAL636     -0.1231
     69  CA       -57.6710  -53.5380   43.8700 C.3   636  VAL636      0.1692
     70  C        -56.3810  -52.8780   44.3370 C.2   636  VAL636      0.2592
     71  O        -56.3880  -52.0720   45.2760 O.2   636  VAL636     -0.2718
     72  CB       -57.9290  -54.8710   44.6040 C.3   636  VAL636      0.0266
     73  CG1      -56.9610  -55.9430   44.1220 C.3   636  VAL636      0.0020
     74  CG2      -57.8230  -54.6910   46.1110 C.3   636  VAL636      0.0020
     75  N        -55.2610  -53.1880   43.6840 N.am  637  TRP637     -0.1976
     76  CA       -53.9880  -52.5830   44.0590 C.3   637  TRP637      0.1640
     77  C        -53.8800  -51.1520   43.5490 C.2   637  TRP637      0.2290
     78  O        -53.4650  -50.2530   44.2890 O.2   637  TRP637     -0.2864
     79  CB       -52.8370  -53.4390   43.5350 C.3   637  TRP637      0.0576
     80  CG       -52.7690  -54.7500   44.2260 C.ar  637  TRP637      0.0006
     81  CD1      -53.1110  -55.9690   43.7180 C.ar  637  TRP637      0.0946
     82  CD2      -52.3620  -54.9760   45.5760 C.ar  637  TRP637      0.0152
     83  NE1      -52.9250  -56.9440   44.6680 N.ar  637  TRP637     -0.2442
     84  CE2      -52.4670  -56.3580   45.8190 C.ar  637  TRP637      0.0810
     85  CE3      -51.9100  -54.1420   46.6030 C.ar  637  TRP637      0.0012
     86  CZ2      -52.1360  -56.9250   47.0450 C.ar  637  TRP637      0.0191
     87  CZ3      -51.5840  -54.7060   47.8170 C.ar  637  TRP637      0.0001
     88  CH2      -51.6970  -56.0820   48.0290 C.ar  637  TRP637      0.0015
     89  N        -55.7380  -49.1260   45.9620 N.3   640  MET640     -0.1245
     90  CA       -55.0350  -48.9070   47.2220 C.3   640  MET640      0.1570
     91  C        -53.9790  -47.8190   47.0820 C.2   640  MET640      0.2261
     92  O        -53.8220  -46.9770   47.9740 O.2   640  MET640     -0.2867
     93  CB       -54.3980  -50.2120   47.7020 C.3   640  MET640      0.0387
     94  CG       -53.5960  -50.0730   48.9890 C.3   640  MET640      0.0595
     95  SD       -52.6360  -51.5450   49.3960 S.3   640  MET640     -0.1393
     96  CE       -53.9360  -52.7500   49.6390 C.3   640  MET640      0.0692
     97  N        -46.8540  -54.9150   44.7390 N.3   717  ILE717     -0.1245
     98  CA       -47.5970  -56.0650   44.2270 C.3   717  ILE717      0.1561
     99  C        -47.9370  -55.8720   42.7540 C.2   717  ILE717      0.2260
    100  O        -47.6320  -56.7240   41.9110 O.2   717  ILE717     -0.2867
    101  CB       -48.8640  -56.3040   45.0670 C.3   717  ILE717      0.0252
    102  CG1      -48.5320  -56.2550   46.5590 C.3   717  ILE717      0.0019
    103  CG2      -49.4940  -57.6390   44.7020 C.3   717  ILE717      0.0019
    104  CD1      -47.5870  -57.3430   47.0150 C.3   717  ILE717      0.0001
@<TRIPOS>BOND
     1    50    49    1
     2    49    47   ar
     3    49    48   ar
     4    47    45   ar
     5    48    46   ar
     6   100    99    2
     7    45    44   ar
     8    68    69    1
     9    46    44   ar
    10    99    98    1
    11    44    43    1
    12    79    76    1
    13    79    80    1
    14    77    76    1
    15    77    78    2
    16    75    76    1
    17    75    70   am
    18    81    80   ar
    19    81    83   ar
    20    69    70    1
    21    69    72    1
    22    73    72    1
    23    43    40    1
    24    80    82   ar
    25    98    97    1
    26    98   101    1
    27    70    71    2
    28    72    74    1
    29    83    84   ar
    30   103   101    1
    31   101   102    1
    32    40    39    1
    33    40    41    1
    34    39    35   am
    35    82    84   ar
    36    82    85   ar
    37    35    34    1
    38    35    36    2
    39    84    86   ar
    40    34    33    1
    41    34    37    1
    42    89    90    1
    43    41    51   am
    44    41    42    2
    45   102   104    1
    46    85    87   ar
    47    51    52    1
    48    86    88   ar
    49    91    90    1
    50    91    92    2
    51    37    38    1
    52    54    53    2
    53    90    93    1
    54    56    55    1
    55    93    94    1
    56    87    88   ar
    57    53    52    1
    58    53    57   am
    59    52    55    1
    60    26    25    2
    61    94    95    1
    62    57    58    1
    63    58    59    1
    64    95    96    1
    65    25    24    1
    66    23    24    1
    67    60    59    2
    68    59    61   am
    69    24    27    1
    70    30    32   ar
    71    30    28   ar
    72    32    31   ar
    73    61    62    1
    74    28    27    1
    75    28    29   ar
    76    31    29   ar
    77    63    64    2
    78    63    62    1
    79    62    65    1
    80    65    67    1
    81    65    66    1
    82    18    17    2
    83    17    16    1
    84    16    19    1
    85    16    15    1
    86    21    20    2
    87    19    20    1
    88    20    22   am
    89     9     7   ar
    90     9    10   ar
    91    12    10   ar
    92    12    14   ar
    93     7     6   ar
    94    10     8   ar
    95     4     3    2
    96    14    13   ar
    97     6     8   ar
    98     6     5    1
    99     8    11   ar
   100     3     2    1
   101     2     5    1
   102     2     1    1
   103    13    11   ar
