@<TRIPOS>MOLECULE
tmp/6fosD00.pdb
 103 103 0 0 0
SMALL
GASTEIGER

@<TRIPOS>ATOM
      1  N        -52.4000   23.3110   47.8560 N.3     3  VAL3       -0.1245
      2  CA       -50.9860   22.9700   47.7440 C.3     3  VAL3        0.1561
      3  C        -50.3190   23.1890   49.0950 C.2     3  VAL3        0.2260
      4  O        -49.8230   24.2830   49.3880 O.2     3  VAL3       -0.2867
      5  CB       -50.2950   23.7920   46.6410 C.3     3  VAL3        0.0252
      6  CG1      -48.8480   23.3480   46.4720 C.3     3  VAL3        0.0019
      7  CG2      -51.0540   23.6640   45.3290 C.3     3  VAL3        0.0019
      8  N        -45.5690    6.0870   49.8490 N.3    62  PHE62      -0.1241
      9  CA       -45.4830    6.6630   48.5110 C.3    62  PHE62       0.1605
     10  C        -44.0410    6.6740   48.0130 C.2    62  PHE62       0.2264
     11  O        -43.8010    6.6410   46.8010 O.2    62  PHE62      -0.2867
     12  CB       -46.0970    8.0680   48.5310 C.3    62  PHE62       0.0534
     13  CG       -45.9460    8.8380   47.2470 C.ar   62  PHE62      -0.0203
     14  CD1      -46.7310    8.5380   46.1480 C.ar   62  PHE62      -0.0042
     15  CD2      -45.0520    9.8940   47.1560 C.ar   62  PHE62      -0.0042
     16  CE1      -46.6060    9.2560   44.9740 C.ar   62  PHE62      -0.0003
     17  CE2      -44.9220   10.6150   45.9860 C.ar   62  PHE62      -0.0003
     18  CZ       -45.7030   10.2980   44.8960 C.ar   62  PHE62      -0.0000
     19  N        -42.8300    4.6750   44.5420 N.3    66  PHE66      -0.1241
     20  CA       -41.9180    5.1020   43.4850 C.3    66  PHE66       0.1605
     21  C        -40.6920    4.2040   43.3980 C.2    66  PHE66       0.2264
     22  O        -40.1150    4.0500   42.3150 O.2    66  PHE66      -0.2867
     23  CB       -41.4970    6.5550   43.7030 C.3    66  PHE66       0.0534
     24  CG       -42.4640    7.5580   43.1410 C.ar   66  PHE66      -0.0203
     25  CD1      -43.6220    7.1420   42.5050 C.ar   66  PHE66      -0.0042
     26  CD2      -42.2080    8.9150   43.2330 C.ar   66  PHE66      -0.0042
     27  CE1      -44.5120    8.0620   41.9820 C.ar   66  PHE66      -0.0003
     28  CE2      -43.0920    9.8400   42.7100 C.ar   66  PHE66      -0.0003
     29  CZ       -44.2440    9.4120   42.0810 C.ar   66  PHE66      -0.0000
     30  N        -36.0420    9.2370   36.1160 N.3   160  LEU160     -0.1231
     31  CA       -36.8740   10.3260   36.6180 C.3   160  LEU160      0.1693
     32  C        -37.6870    9.9050   37.8340 C.2   160  LEU160      0.2591
     33  O        -37.9550   10.7290   38.7160 O.2   160  LEU160     -0.2718
     34  CB       -37.8010   10.8340   35.5130 C.3   160  LEU160      0.0284
     35  CG       -37.1290   11.5580   34.3450 C.3   160  LEU160      0.0019
     36  CD1      -38.1560   11.9490   33.2940 C.3   160  LEU160      0.0001
     37  CD2      -36.3670   12.7770   34.8370 C.3   160  LEU160      0.0001
     38  N        -38.0850    8.6330   37.9060 N.am  161  MET161     -0.1979
     39  CA       -38.8720    8.1740   39.0440 C.3   161  MET161      0.1605
     40  C        -38.0160    7.9730   40.2870 C.2   161  MET161      0.2287
     41  O        -38.5140    8.1360   41.4070 O.2   161  MET161     -0.2864
     42  CB       -39.6090    6.8830   38.6900 C.3   161  MET161      0.0413
     43  CG       -40.5390    7.0230   37.4970 C.3   161  MET161      0.0598
     44  SD       -41.5750    8.4990   37.5810 S.3   161  MET161     -0.1393
     45  CE       -42.4920    8.2010   39.0900 C.3   161  MET161      0.0692
     46  N        -35.3880    9.9480   40.8700 N.3   163  PHE163     -0.1227
     47  CA       -35.2400   11.3470   41.2470 C.3   163  PHE163      0.1736
     48  C        -36.5630   11.9980   41.6280 C.2   163  PHE163      0.2595
     49  O        -36.5720   13.1870   41.9590 O.2   163  PHE163     -0.2718
     50  CB       -34.5800   12.1360   40.1120 C.3   163  PHE163      0.0547
     51  CG       -33.1190   11.8330   39.9360 C.ar  163  PHE163     -0.0202
     52  CD1      -32.1760   12.3920   40.7830 C.ar  163  PHE163     -0.0042
     53  CD2      -32.6870   10.9910   38.9250 C.ar  163  PHE163     -0.0042
     54  CE1      -30.8300   12.1140   40.6260 C.ar  163  PHE163     -0.0003
     55  CE2      -31.3440   10.7080   38.7630 C.ar  163  PHE163     -0.0003
     56  CZ       -30.4140   11.2710   39.6140 C.ar  163  PHE163     -0.0000
     57  N        -37.6700   11.2580   41.5770 N.am  164  ALA164     -0.1980
     58  CA       -38.9580   11.7100   42.0910 C.3   164  ALA164      0.1597
     59  C        -39.2420   11.1550   43.4810 C.2   164  ALA164      0.2287
     60  O        -39.6220   11.9060   44.3840 O.2   164  ALA164     -0.2864
     61  CB       -40.0840   11.3140   41.1290 C.3   164  ALA164      0.0319
     62  N        -37.2920   12.9710   45.5840 N.3   167  PHE167     -0.1227
     63  CA       -37.6360   14.3880   45.5280 C.3   167  PHE167      0.1736
     64  C        -38.6930   14.7610   46.5620 C.2   167  PHE167      0.2595
     65  O        -38.4750   15.6550   47.3820 O.2   167  PHE167     -0.2718
     66  CB       -38.1200   14.7510   44.1170 C.3   167  PHE167      0.0547
     67  CG       -38.7130   16.1270   44.0110 C.ar  167  PHE167     -0.0202
     68  CD1      -37.8980   17.2370   43.8830 C.ar  167  PHE167     -0.0042
     69  CD2      -40.0860   16.3070   44.0250 C.ar  167  PHE167     -0.0042
     70  CE1      -38.4390   18.5040   43.7820 C.ar  167  PHE167     -0.0003
     71  CE2      -40.6340   17.5710   43.9250 C.ar  167  PHE167     -0.0003
     72  CZ       -39.8080   18.6710   43.8030 C.ar  167  PHE167     -0.0000
     73  N        -39.8410   14.0800   46.5430 N.am  168  HIS168     -0.1975
     74  CA       -40.9360   14.3930   47.4570 C.3   168  HIS168      0.1656
     75  C        -40.6290   13.9620   48.8850 C.2   168  HIS168      0.2291
     76  O        -41.5480   13.7370   49.6790 O.2   168  HIS168     -0.2864
     77  CB       -42.2300   13.7160   46.9970 C.3   168  HIS168      0.0771
     78  CG       -42.6860   14.1370   45.6370 C.ar  168  HIS168      0.0820
     79  ND1      -42.1220   13.6470   44.4780 N.ar  168  HIS168     -0.2267
     80  CD2      -43.6560   14.9970   45.2500 C.ar  168  HIS168      0.1154
     81  CE1      -42.7250   14.1900   43.4360 C.ar  168  HIS168      0.1986
     82  NE2      -43.6590   15.0130   43.8770 N.ar  168  HIS168     -0.2212
     83  N        -45.1170   16.7130   50.4960 N.3   174  PRO174     -0.2116
     84  CA       -46.4600   17.2430   50.7540 C.3   174  PRO174      0.1372
     85  C        -46.8890   16.9770   52.1890 C.2   174  PRO174      0.2244
     86  O        -46.4190   16.0480   52.8500 O.2   174  PRO174     -0.2868
     87  CB       -47.3450   16.4810   49.7590 C.3   174  PRO174      0.0268
     88  CG       -46.4020   15.9760   48.7100 C.3   174  PRO174      0.0207
     89  CD       -45.1200   15.6960   49.4330 C.3   174  PRO174      0.0892
     90  N        -52.5860   16.5590   51.8960 N.3   178  TRP178     -0.1241
     91  CA       -52.6000   16.1590   50.4940 C.3   178  TRP178      0.1605
     92  C        -53.1180   14.7400   50.2870 C.2   178  TRP178      0.2264
     93  O        -53.3400   14.3430   49.1380 O.2   178  TRP178     -0.2867
     94  CB       -51.1900   16.3020   49.9110 C.3   178  TRP178      0.0550
     95  CG       -51.0950   16.0400   48.4360 C.ar  178  TRP178      0.0003
     96  CD1      -51.6750   16.7640   47.4340 C.ar  178  TRP178      0.0946
     97  CD2      -50.3650   14.9860   47.7970 C.ar  178  TRP178      0.0152
     98  NE1      -51.3580   16.2210   46.2130 N.ar  178  TRP178     -0.2442
     99  CE2      -50.5540   15.1290   46.4080 C.ar  178  TRP178      0.0810
    100  CE3      -49.5730   13.9330   48.2650 C.ar  178  TRP178      0.0012
    101  CZ2      -49.9790   14.2590   45.4820 C.ar  178  TRP178      0.0191
    102  CZ3      -49.0030   13.0710   47.3450 C.ar  178  TRP178      0.0001
    103  CH2      -49.2090   13.2390   45.9700 C.ar  178  TRP178      0.0015
@<TRIPOS>BOND
     1    36    35    1
     2    35    37    1
     3    35    34    1
     4    34    31    1
     5    30    31    1
     6    31    32    1
     7    43    44    1
     8    43    42    1
     9    44    45    1
    10    32    38   am
    11    32    33    2
    12    38    39    1
    13    42    39    1
    14    55    53   ar
    15    55    56   ar
    16    53    51   ar
    17    39    40    1
    18    56    54   ar
    19    51    50    1
    20    51    52   ar
    21    50    47    1
    22    40    41    2
    23    54    52   ar
    24    46    47    1
    25    61    58    1
    26    47    48    1
    27    57    48   am
    28    57    58    1
    29    48    49    2
    30    27    29   ar
    31    27    25   ar
    32    29    28   ar
    33    58    59    1
    34    22    21    2
    35    25    24   ar
    36    28    26   ar
    37    24    26   ar
    38    24    23    1
    39    21    20    1
    40    81    82   ar
    41    81    79   ar
    42    59    60    2
    43    20    23    1
    44    20    19    1
    45    70    72   ar
    46    70    68   ar
    47    72    71   ar
    48    82    80   ar
    49    68    67   ar
    50    71    69   ar
    51    67    69   ar
    52    67    66    1
    53    66    63    1
    54    79    78   ar
    55    18    16   ar
    56    18    17   ar
    57    16    14   ar
    58    80    78   ar
    59     7     5    1
    60   101   103   ar
    61   101    99   ar
    62    63    62    1
    63    63    64    1
    64    78    77    1
    65   103   102   ar
    66    17    15   ar
    67    14    13   ar
    68    98    99   ar
    69    98    96   ar
    70    99    97   ar
    71     6     5    1
    72    73    64   am
    73    73    74    1
    74    64    65    2
    75     5     2    1
    76    11    10    2
    77    77    74    1
    78    15    13   ar
    79    13    12    1
    80   102   100   ar
    81    96    95   ar
    82    74    75    1
    83     2     1    1
    84     2     3    1
    85    97   100   ar
    86    97    95   ar
    87    10     9    1
    88    95    94    1
    89     9    12    1
    90     9     8    1
    91    88    89    1
    92    88    87    1
    93    75    76    2
    94     3     4    2
    95    93    92    2
    96    89    83    1
    97    87    84    1
    98    94    91    1
    99    92    91    1
   100    91    90    1
   101    83    84    1
   102    84    85    1
   103    85    86    2
