@<TRIPOS>MOLECULE
tmp/6fosD14.pdb
 82 75 0 0 0
SMALL
GASTEIGER

@<TRIPOS>ATOM
      1  N        -71.4710    7.2210   51.0070 N.3   314  LEU314     -0.1245
      2  CA       -71.5830    6.1650   52.0040 C.3   314  LEU314      0.1561
      3  C        -72.4450    6.5860   53.1870 C.2   314  LEU314      0.2260
      4  O        -73.0250    5.7270   53.8600 O.2   314  LEU314     -0.2867
      5  CB       -70.1890    5.7520   52.4720 C.3   314  LEU314      0.0270
      6  CG       -69.2820    5.2540   51.3450 C.3   314  LEU314      0.0019
      7  CD1      -67.8320    5.2320   51.7860 C.3   314  LEU314      0.0001
      8  CD2      -69.7210    3.8760   50.8690 C.3   314  LEU314      0.0001
      9  N        -76.2480    5.4980   51.9060 N.3   317  HIS317     -0.1241
     10  CA       -76.6720    4.1160   51.7190 C.3   317  HIS317      0.1621
     11  C        -77.0310    3.4950   53.0630 C.2   317  HIS317      0.2264
     12  O        -76.1970    3.4420   53.9720 O.2   317  HIS317     -0.2867
     13  CB       -75.5710    3.3090   51.0380 C.3   317  HIS317      0.0745
     14  CG       -75.2900    3.7320   49.6310 C.ar  317  HIS317      0.0817
     15  ND1      -74.5170    4.8320   49.3230 N.ar  317  HIS317     -0.2268
     16  CD2      -75.6770    3.2020   48.4470 C.ar  317  HIS317      0.1154
     17  CE1      -74.4410    4.9600   48.0110 C.ar  317  HIS317      0.1986
     18  NE2      -75.1360    3.9840   47.4560 N.ar  317  HIS317     -0.2212
     19  N        -78.7780   -3.7640   57.4370 N.3   322  THR322     -0.1218
     20  CA       -77.5150   -3.0820   57.6850 C.3   322  THR322      0.1862
     21  C        -77.5680   -2.1200   58.8630 C.2   322  THR322      0.2287
     22  O        -76.5370   -1.8910   59.5040 O.2   322  THR322     -0.2866
     23  CB       -77.0740   -2.3140   56.4350 C.3   322  THR322      0.1770
     24  OG1      -78.0190   -1.2770   56.1470 O.3   322  THR322     -0.2211
     25  CG2      -76.9810   -3.2520   55.2370 C.3   322  THR322      0.0375
     26  N        -73.1250    1.5720   55.7570 N.3   326  HIS326     -0.1241
     27  CA       -72.2060    2.2560   54.8510 C.3   326  HIS326      0.1621
     28  C        -71.5880    3.5270   55.4270 C.2   326  HIS326      0.2264
     29  O        -70.5010    3.9280   55.0000 O.2   326  HIS326     -0.2867
     30  CB       -72.9160    2.5590   53.5330 C.3   326  HIS326      0.0745
     31  CG       -73.4450    1.3380   52.8500 C.ar  326  HIS326      0.0817
     32  ND1      -74.6650    0.7790   53.1660 N.ar  326  HIS326     -0.2268
     33  CD2      -72.9100    0.5550   51.8840 C.ar  326  HIS326      0.1154
     34  CE1      -74.8640   -0.2890   52.4150 C.ar  326  HIS326      0.1986
     35  NE2      -73.8140   -0.4480   51.6290 N.ar  326  HIS326     -0.2212
     36  N        -67.5780    4.3260   56.4010 N.3   329  LEU329     -0.1245
     37  CA       -66.6420    3.6830   55.4850 C.3   329  LEU329      0.1561
     38  C        -65.6910    4.6970   54.8630 C.2   329  LEU329      0.2260
     39  O        -64.5560    4.3530   54.5150 O.2   329  LEU329     -0.2867
     40  CB       -67.4090    2.9280   54.4000 C.3   329  LEU329      0.0270
     41  CG       -67.3550    1.3980   54.3940 C.3   329  LEU329      0.0019
     42  CD1      -66.1290    0.9160   53.6600 C.3   329  LEU329      0.0001
     43  CD2      -67.3630    0.8540   55.8060 C.3   329  LEU329      0.0001
     44  N        -61.5080    4.1550   54.8740 N.3   333  LEU333     -0.1245
     45  CA       -60.5430    4.1150   53.7810 C.3   333  LEU333      0.1561
     46  C        -59.6530    5.3480   53.7020 C.2   333  LEU333      0.2260
     47  O        -58.5570    5.2620   53.1360 O.2   333  LEU333     -0.2867
     48  CB       -61.2610    3.9340   52.4380 C.3   333  LEU333      0.0270
     49  CG       -61.7470    2.5300   52.0630 C.3   333  LEU333      0.0019
     50  CD1      -60.6810    1.4830   52.3310 C.3   333  LEU333      0.0001
     51  CD2      -63.0170    2.1780   52.7940 C.3   333  LEU333      0.0001
     52  N        -68.8770    1.7330   60.9530 N.3   412  ASN412     -0.1240
     53  CA       -69.9500    1.2840   60.0760 C.3   412  ASN412      0.1653
     54  C        -70.6860    0.1670   60.7950 C.2   412  ASN412      0.2266
     55  O        -70.0690   -0.8300   61.1860 O.2   412  ASN412     -0.2867
     56  CB       -69.4250    0.7940   58.7230 C.3   412  ASN412      0.1155
     57  CG       -70.5450    0.5200   57.7270 C.2   412  ASN412      0.2627
     58  OD1      -70.3030    0.0520   56.6150 O.2   412  ASN412     -0.2716
     59  ND2      -71.7750    0.8250   58.1210 N.am  412  ASN412     -0.0877
     60  N        -72.4850   -1.8400   59.4010 N.3   414  VAL414     -0.1231
     61  CA       -72.3470   -3.0130   58.5440 C.3   414  VAL414      0.1692
     62  C        -71.1420   -3.8380   58.9720 C.2   414  VAL414      0.2591
     63  O        -71.2480   -5.0470   59.2100 O.2   414  VAL414     -0.2718
     64  CB       -72.2380   -2.5940   57.0680 C.3   414  VAL414      0.0266
     65  CG1      -71.9130   -3.7980   56.2150 C.3   414  VAL414      0.0020
     66  CG2      -73.5250   -1.9600   56.6050 C.3   414  VAL414      0.0020
     67  N        -69.9730   -3.1980   59.0620 N.am  415  LEU415     -0.1980
     68  CA       -68.8000   -3.8890   59.5810 C.3   415  LEU415      0.1596
     69  C        -69.0060   -4.3040   61.0300 C.2   415  LEU415      0.2287
     70  O        -68.5220   -5.3610   61.4470 O.2   415  LEU415     -0.2864
     71  CB       -67.5610   -3.0020   59.4470 C.3   415  LEU415      0.0297
     72  CG       -66.2120   -3.7090   59.5900 C.3   415  LEU415      0.0022
     73  CD1      -66.0770   -4.7980   58.5370 C.3   415  LEU415      0.0001
     74  CD2      -65.0670   -2.7130   59.4850 C.3   415  LEU415      0.0001
     75  N        -70.9050   -7.4680   60.7320 N.3   418  MET418     -0.1245
     76  CA       -69.9640   -8.5020   60.3150 C.3   418  MET418      0.1570
     77  C        -69.1250   -9.0140   61.4780 C.2   418  MET418      0.2261
     78  O        -68.6100  -10.1350   61.4130 O.2   418  MET418     -0.2867
     79  CB       -69.0520   -7.9710   59.2080 C.3   418  MET418      0.0387
     80  CG       -69.7390   -7.7910   57.8650 C.3   418  MET418      0.0595
     81  SD       -70.1280   -9.3630   57.0730 S.3   418  MET418     -0.1393
     82  CE       -68.4870  -10.0300   56.8100 C.3   418  MET418      0.0692
@<TRIPOS>BOND
     1    18    17   ar
     2    18    16   ar
     3    17    15   ar
     4    16    14   ar
     5    15    14   ar
     6    14    13    1
     7     8     6    1
     8     1     2    1
     9    13    10    1
    10     6     7    1
    11     6     5    1
    12    35    33   ar
    13    35    34   ar
    14    10     9    1
    15    10    11    1
    16    33    31   ar
    17     2     5    1
    18     2     3    1
    19    49    50    1
    20    49    48    1
    21    49    51    1
    22    34    32   ar
    23    48    45    1
    24    31    32   ar
    25    31    30    1
    26    11    12    2
    27    47    46    2
    28     3     4    2
    29    30    27    1
    30    42    41    1
    31    46    45    1
    32    45    44    1
    33    41    40    1
    34    41    43    1
    35    40    37    1
    36    39    38    2
    37    27    28    1
    38    27    26    1
    39    38    37    1
    40    29    28    2
    41    25    23    1
    42    37    36    1
    43    24    23    1
    44    65    64    1
    45    23    20    1
    46    66    64    1
    47    58    57    2
    48    82    81    1
    49    64    61    1
    50    81    80    1
    51    19    20    1
    52    20    21    1
    53    57    59   am
    54    57    56    1
    55    80    79    1
    56    73    72    1
    57    61    62    1
    58    61    60    1
    59    56    53    1
    60    21    22    2
    61    62    67   am
    62    62    63    2
    63    67    68    1
    64    79    76    1
    65    71    68    1
    66    71    72    1
    67    74    72    1
    68    68    69    1
    69    53    54    1
    70    53    52    1
    71    76    75    1
    72    76    77    1
    73    54    55    2
    74    69    70    2
    75    78    77    2
