@<TRIPOS>MOLECULE
tmp/6fosD29.pdb
 93 89 0 0 0
SMALL
GASTEIGER

@<TRIPOS>ATOM
      1  N        -71.4920  -15.8680   59.9560 N.3   425  ILE425     -0.1245
      2  CA       -70.8870  -15.8280   58.6260 C.3   425  ILE425      0.1561
      3  C        -70.0800  -17.0940   58.3710 C.2   425  ILE425      0.2260
      4  O        -70.2840  -17.7960   57.3740 O.2   425  ILE425     -0.2867
      5  CB       -70.0100  -14.5730   58.4710 C.3   425  ILE425      0.0252
      6  CG1      -70.7330  -13.3350   59.0030 C.3   425  ILE425      0.0019
      7  CG2      -69.6160  -14.3790   57.0150 C.3   425  ILE425      0.0019
      8  CD1      -71.9120  -12.9110   58.1670 C.3   425  ILE425      0.0001
      9  N        -72.1210  -20.3770   58.1450 N.3   428  HIS428     -0.1226
     10  CA       -72.6790  -20.5790   56.8110 C.3   428  HIS428      0.1752
     11  C        -71.6140  -21.0820   55.8480 C.2   428  HIS428      0.2595
     12  O        -71.7970  -22.1050   55.1770 O.2   428  HIS428     -0.2718
     13  CB       -73.2880  -19.2780   56.2880 C.3   428  HIS428      0.0759
     14  CG       -74.3940  -18.7420   57.1380 C.ar  428  HIS428      0.0818
     15  ND1      -74.2230  -17.6820   58.0010 N.ar  428  HIS428     -0.2268
     16  CD2      -75.6880  -19.1200   57.2580 C.ar  428  HIS428      0.1154
     17  CE1      -75.3630  -17.4290   58.6160 C.ar  428  HIS428      0.1986
     18  NE2      -76.2670  -18.2890   58.1850 N.ar  428  HIS428     -0.2212
     19  N        -70.4870  -20.3700   55.7680 N.am  429  LEU429     -0.1980
     20  CA       -69.4120  -20.7780   54.8720 C.3   429  LEU429      0.1596
     21  C        -68.8740  -22.1560   55.2300 C.2   429  LEU429      0.2287
     22  O        -68.4680  -22.9100   54.3390 O.2   429  LEU429     -0.2864
     23  CB       -68.2830  -19.7440   54.8930 C.3   429  LEU429      0.0297
     24  CG       -68.3880  -18.5660   53.9200 C.3   429  LEU429      0.0022
     25  CD1      -68.5720  -19.0660   52.4940 C.3   429  LEU429      0.0001
     26  CD2      -69.5100  -17.6160   54.3080 C.3   429  LEU429      0.0001
     27  N        -70.5800  -24.8270   56.5510 N.3   431  TRP431     -0.1227
     28  CA       -71.4820  -25.8420   56.0210 C.3   431  TRP431      0.1737
     29  C        -71.4550  -25.8770   54.4980 C.2   431  TRP431      0.2595
     30  O        -71.5900  -26.9510   53.9010 O.2   431  TRP431     -0.2718
     31  CB       -72.9030  -25.5980   56.5230 C.3   431  TRP431      0.0564
     32  CG       -73.8790  -26.5690   55.9620 C.ar  431  TRP431      0.0003
     33  CD1      -74.0220  -27.8800   56.3100 C.ar  431  TRP431      0.0946
     34  CD2      -74.8470  -26.3170   54.9390 C.ar  431  TRP431      0.0152
     35  NE1      -75.0220  -28.4590   55.5700 N.ar  431  TRP431     -0.2442
     36  CE2      -75.5440  -27.5200   54.7200 C.ar  431  TRP431      0.0810
     37  CE3      -75.1950  -25.1890   54.1890 C.ar  431  TRP431      0.0012
     38  CZ2      -76.5690  -27.6280   53.7850 C.ar  431  TRP431      0.0191
     39  CZ3      -76.2120  -25.2990   53.2590 C.ar  431  TRP431      0.0001
     40  CH2      -76.8870  -26.5100   53.0660 C.ar  431  TRP431      0.0015
     41  N        -71.2800  -24.7200   53.8560 N.am  432  VAL432     -0.1980
     42  CA       -71.1630  -24.6890   52.4010 C.3   432  VAL432      0.1595
     43  C        -69.9030  -25.4170   51.9520 C.2   432  VAL432      0.2287
     44  O        -69.9280  -26.1930   50.9890 O.2   432  VAL432     -0.2864
     45  CB       -71.1920  -23.2350   51.8930 C.3   432  VAL432      0.0276
     46  CG1      -70.8280  -23.1780   50.4180 C.3   432  VAL432      0.0022
     47  CG2      -72.5620  -22.6200   52.1240 C.3   432  VAL432      0.0022
     48  N        -69.8810  -28.8520   49.6580 N.3   436  LEU436     -0.1245
     49  CA       -69.1440  -28.8530   48.4020 C.3   436  LEU436      0.1561
     50  C        -67.8920  -29.7180   48.4480 C.2   436  LEU436      0.2260
     51  O        -67.2280  -29.8720   47.4180 O.2   436  LEU436     -0.2867
     52  CB       -68.7640  -27.4220   48.0110 C.3   436  LEU436      0.0270
     53  CG       -69.9320  -26.4810   47.7120 C.3   436  LEU436      0.0019
     54  CD1      -69.4250  -25.0860   47.3860 C.3   436  LEU436      0.0001
     55  CD2      -70.7800  -27.0270   46.5750 C.3   436  LEU436      0.0001
     56  N        -64.8000  -24.6340   43.2630 N.3   528  ALA528     -0.1245
     57  CA       -65.6750  -23.9520   44.2140 C.3   528  ALA528      0.1562
     58  C        -65.4210  -24.4080   45.6440 C.2   528  ALA528      0.2260
     59  O        -65.5340  -23.6070   46.5790 O.2   528  ALA528     -0.2867
     60  CB       -67.1390  -24.1780   43.8370 C.3   528  ALA528      0.0290
     61  N        -62.3540  -22.7190   46.6270 N.3   531  ILE531     -0.1231
     62  CA       -62.5880  -21.2800   46.6830 C.3   531  ILE531      0.1692
     63  C        -63.3120  -20.9040   47.9700 C.2   531  ILE531      0.2592
     64  O        -62.9410  -19.9410   48.6490 O.2   531  ILE531     -0.2718
     65  CB       -63.3710  -20.8110   45.4390 C.3   531  ILE531      0.0266
     66  CG1      -62.5090  -20.9380   44.1830 C.3   531  ILE531      0.0019
     67  CG2      -63.8580  -19.3800   45.6170 C.3   531  ILE531      0.0020
     68  CD1      -61.1230  -20.3680   44.3360 C.3   531  ILE531      0.0001
     69  N        -64.3550  -21.6590   48.3230 N.am  532  HIS532     -0.1976
     70  CA       -65.1060  -21.3560   49.5380 C.3   532  HIS532      0.1656
     71  C        -64.2610  -21.5830   50.7860 C.2   532  HIS532      0.2291
     72  O        -64.3870  -20.8420   51.7670 O.2   532  HIS532     -0.2864
     73  CB       -66.3860  -22.1890   49.5950 C.3   532  HIS532      0.0771
     74  CG       -67.5120  -21.6170   48.7930 C.ar  532  HIS532      0.0820
     75  ND1      -67.6950  -21.9010   47.4570 N.ar  532  HIS532     -0.2267
     76  CD2      -68.5100  -20.7680   49.1370 C.ar  532  HIS532      0.1154
     77  CE1      -68.7590  -21.2560   47.0130 C.ar  532  HIS532      0.1986
     78  NE2      -69.2720  -20.5610   48.0130 N.ar  532  HIS532     -0.2212
     79  N        -61.9090  -18.4910   50.8790 N.3   535  THR535     -0.1218
     80  CA       -62.6540  -17.3340   51.3650 C.3   535  THR535      0.1862
     81  C        -63.0100  -17.4890   52.8360 C.2   535  THR535      0.2287
     82  O        -62.9860  -16.5130   53.5930 O.2   535  THR535     -0.2866
     83  CB       -63.9250  -17.1310   50.5400 C.3   535  THR535      0.1770
     84  OG1      -64.7370  -18.3090   50.6200 O.3   535  THR535     -0.2211
     85  CG2      -63.5870  -16.8530   49.0910 C.3   535  THR535      0.0375
     86  N        -61.6260  -14.7730   55.3610 N.3   539  LEU539     -0.1245
     87  CA       -62.6560  -13.9670   56.0120 C.3   539  LEU539      0.1561
     88  C        -62.7130  -14.2430   57.5080 C.2   539  LEU539      0.2260
     89  O        -63.0100  -13.3380   58.2960 O.2   539  LEU539     -0.2867
     90  CB       -64.0200  -14.2270   55.3670 C.3   539  LEU539      0.0270
     91  CG       -65.2520  -13.5060   55.9190 C.3   539  LEU539      0.0019
     92  CD1      -65.0900  -11.9970   55.8370 C.3   539  LEU539      0.0001
     93  CD2      -66.4910  -13.9530   55.1640 C.3   539  LEU539      0.0001
@<TRIPOS>BOND
     1    56    57    1
     2    60    57    1
     3    66    68    1
     4    66    65    1
     5    57    58    1
     6    65    67    1
     7    65    62    1
     8    58    59    2
     9    55    53    1
    10    61    62    1
    11    62    63    1
    12    77    75   ar
    13    77    78   ar
    14    54    53    1
    15    51    50    2
    16    75    74   ar
    17    53    52    1
    18    63    69   am
    19    63    64    2
    20    52    49    1
    21    78    76   ar
    22    69    70    1
    23    49    50    1
    24    49    48    1
    25    74    76   ar
    26    74    73    1
    27    85    83    1
    28    70    73    1
    29    70    71    1
    30    46    45    1
    31    83    84    1
    32    83    80    1
    33    71    72    2
    34    79    80    1
    35    44    43    2
    36    80    81    1
    37    45    47    1
    38    45    42    1
    39    43    42    1
    40    42    41    1
    41    25    24    1
    42    81    82    2
    43    40    39   ar
    44    40    38   ar
    45    39    37   ar
    46    38    36   ar
    47    41    29   am
    48    30    29    2
    49    24    26    1
    50    24    23    1
    51    37    34   ar
    52    22    21    2
    53    29    28    1
    54    36    34   ar
    55    36    35   ar
    56    20    23    1
    57    20    21    1
    58    20    19    1
    59    34    32   ar
    60    93    91    1
    61    12    11    2
    62    86    87    1
    63    90    91    1
    64    90    87    1
    65    35    33   ar
    66    19    11   am
    67    92    91    1
    68    11    10    1
    69    32    33   ar
    70    32    31    1
    71    87    88    1
    72    28    31    1
    73    28    27    1
    74    13    10    1
    75    13    14    1
    76    10     9    1
    77     7     5    1
    78    14    16   ar
    79    14    15   ar
    80    16    18   ar
    81     4     3    2
    82    88    89    2
    83    15    17   ar
    84     8     6    1
    85    18    17   ar
    86     3     2    1
    87     5     2    1
    88     5     6    1
    89     2     1    1
