@<TRIPOS>MOLECULE
tmp/6fp4A02.pdb
 86 84 0 0 0
SMALL
GASTEIGER

@<TRIPOS>ATOM
      1  N        125.5970    2.8970   74.6550 N.3   291  TYR291     -0.1241
      2  CA       125.4500    2.4030   73.2960 C.3   291  TYR291      0.1605
      3  C        126.3340    1.1920   73.0150 C.2   291  TYR291      0.2264
      4  O        125.9710    0.3520   72.1830 O.2   291  TYR291     -0.2867
      5  CB       125.7080    3.5430   72.3160 C.3   291  TYR291      0.0534
      6  CG       127.1450    3.9060   72.0310 C.ar  291  TYR291     -0.0201
      7  CD1      127.8320    3.3020   70.9860 C.ar  291  TYR291     -0.0009
      8  CD2      127.7920    4.9010   72.7510 C.ar  291  TYR291     -0.0009
      9  CE1      129.1340    3.6510   70.6840 C.ar  291  TYR291      0.0417
     10  CE2      129.1030    5.2560   72.4580 C.ar  291  TYR291      0.0417
     11  CZ       129.7650    4.6250   71.4140 C.ar  291  TYR291      0.1957
     12  OH       131.0610    4.9560   71.0910 O.3   291  TYR291     -0.2866
     13  N        124.5160   -2.2610   71.7930 N.3   295  GLU295     -0.1245
     14  CA       124.9510   -2.7590   70.4960 C.3   295  GLU295      0.1567
     15  C        125.5110   -4.1680   70.6200 C.2   295  GLU295      0.2260
     16  O        125.1410   -5.0680   69.8560 O.2   295  GLU295     -0.2867
     17  CB       125.9860   -1.8150   69.9000 C.3   295  GLU295      0.0388
     18  CG       125.3850   -0.5280   69.3670 C.3   295  GLU295      0.1160
     19  CD       126.4450    0.4680   68.9220 C.2   295  GLU295      0.3649
     20  OE1      127.6460    0.1840   69.1410 O.co2 295  GLU295     -0.2457
     21  OE2      126.0840    1.5210   68.3440 O.co2 295  GLU295     -0.2457
     22  N        120.7700   10.3730   75.9290 N.3   319  PHE319     -0.1241
     23  CA       120.0070   10.2810   74.6940 C.3   319  PHE319      0.1605
     24  C        118.5470   10.5910   74.9810 C.2   319  PHE319      0.2264
     25  O        118.0810   10.4930   76.1200 O.2   319  PHE319     -0.2867
     26  CB       120.1040    8.8860   74.0720 C.3   319  PHE319      0.0534
     27  CG       121.4710    8.5240   73.5830 C.ar  319  PHE319     -0.0203
     28  CD1      122.4740    8.1760   74.4760 C.ar  319  PHE319     -0.0042
     29  CD2      121.7460    8.5020   72.2260 C.ar  319  PHE319     -0.0042
     30  CE1      123.7270    7.8280   74.0240 C.ar  319  PHE319     -0.0003
     31  CE2      122.9950    8.1580   71.7670 C.ar  319  PHE319     -0.0003
     32  CZ       123.9890    7.8160   72.6660 C.ar  319  PHE319     -0.0000
     33  N        133.7180   17.1270   73.7240 N.3   433  LYS433     -0.1231
     34  CA       133.3970   16.9010   72.3290 C.3   433  LYS433      0.1678
     35  C        132.6980   15.5600   72.1520 C.2   433  LYS433      0.2434
     36  O        132.9050   14.6340   72.9440 O.2   433  LYS433     -0.2733
     37  CB       134.6620   16.9240   71.4680 C.3   433  LYS433      0.0284
     38  CG       135.4800   18.1920   71.6140 C.3   433  LYS433      0.0035
     39  CD       134.6240   19.4360   71.4380 C.3   433  LYS433      0.0206
     40  CE       135.4740   20.6920   71.4230 C.3   433  LYS433      0.1093
     41  NZ       136.1320   20.9550   72.7400 N.3   433  LYS433     -0.1314
     42  N        131.8560   15.4220   71.1330 N.am  434  PRO434     -0.2718
     43  CA       131.2620   14.1090   70.8590 C.3   434  PRO434      0.1535
     44  C        132.3420   13.1110   70.4810 C.2   434  PRO434      0.2598
     45  O        133.2250   13.4000   69.6700 O.2   434  PRO434     -0.2715
     46  CB       130.3020   14.3910   69.6980 C.3   434  PRO434      0.0310
     47  CG       130.0590   15.8700   69.7580 C.3   434  PRO434      0.0237
     48  CD       131.3340   16.4570   70.2260 C.3   434  PRO434      0.0939
     49  N        132.2700   11.9250   71.0830 N.am  435  GLN435     -0.1964
     50  CA       133.3350   10.9290   70.9530 C.3   435  GLN435      0.1733
     51  C        132.9740    9.9770   69.8160 C.2   435  GLN435      0.2616
     52  O        132.4450    8.8790   70.0060 O.2   435  GLN435     -0.2715
     53  CB       133.5440   10.2200   72.2820 C.3   435  GLN435      0.0408
     54  CG       133.5790   11.2100   73.4310 C.3   435  GLN435      0.0908
     55  CD       134.1230   10.6260   74.6990 C.2   435  GLN435      0.2608
     56  OE1      135.1590   11.0650   75.2010 O.2   435  GLN435     -0.2717
     57  NE2      133.4220    9.6390   75.2430 N.am  435  GLN435     -0.0878
     58  N        133.2910   10.4280   68.6040 N.am  436  LEU436     -0.1977
     59  CA       132.8790    9.7870   67.3680 C.3   436  LEU436      0.1596
     60  C        134.0120    9.8710   66.3590 C.2   436  LEU436      0.2287
     61  O        134.7610   10.8510   66.3190 O.2   436  LEU436     -0.2864
     62  CB       131.6330   10.4620   66.7900 C.3   436  LEU436      0.0297
     63  CG       130.4080   10.4560   67.6960 C.3   436  LEU436      0.0022
     64  CD1      129.3990   11.4750   67.2050 C.3   436  LEU436      0.0001
     65  CD2      129.8110    9.0570   67.7260 C.3   436  LEU436      0.0001
     66  N        124.3520   11.0390   64.6600 N.3   466  THR466     -0.1203
     67  CA       124.8270    9.8110   65.2620 C.3   466  THR466      0.1994
     68  C        123.8280    8.6970   64.9840 C.2   466  THR466      0.2619
     69  O        122.6870    8.9410   64.5810 O.2   466  THR466     -0.2717
     70  CB       125.0380   10.0220   66.7610 C.3   466  THR466      0.1784
     71  OG1      125.6780    8.8800   67.3280 O.3   466  THR466     -0.2211
     72  CG2      123.7170   10.2570   67.4700 C.3   466  THR466      0.0376
     73  N        124.2770    7.4660   65.1910 N.am  467  THR467     -0.1938
     74  CA       123.4150    6.3030   65.0330 C.3   467  THR467      0.2028
     75  C        123.8550    5.2440   66.0270 C.2   467  THR467      0.2642
     76  O        125.0230    4.8400   66.0310 O.2   467  THR467     -0.2714
     77  CB       123.4650    5.7440   63.6060 C.3   467  THR467      0.1808
     78  OG1      122.8380    6.6630   62.7020 O.3   467  THR467     -0.2208
     79  CG2      122.7340    4.4140   63.5190 C.3   467  THR467      0.0379
     80  N        122.9200    4.7910   66.8520 N.am  468  VAL468     -0.1977
     81  CA       123.1480    3.6440   67.7130 C.3   468  VAL468      0.1596
     82  C        122.7540    2.4070   66.9260 C.2   468  VAL468      0.2287
     83  O        121.5900    2.2470   66.5370 O.2   468  VAL468     -0.2864
     84  CB       122.3530    3.7530   69.0210 C.3   468  VAL468      0.0276
     85  CG1      122.6900    2.6030   69.9250 C.3   468  VAL468      0.0022
     86  CG2      122.6700    5.0610   69.7210 C.3   468  VAL468      0.0022
@<TRIPOS>BOND
     1    78    77    1
     2    79    77    1
     3    77    74    1
     4    69    68    2
     5    66    67    1
     6    68    73   am
     7    68    67    1
     8    74    73    1
     9    74    75    1
    10    67    70    1
    11    75    76    2
    12    75    80   am
    13    61    60    2
    14    60    59    1
    15    83    82    2
    16    70    71    1
    17    70    72    1
    18    62    59    1
    19    62    63    1
    20    80    81    1
    21    82    81    1
    22    64    63    1
    23    59    58    1
    24    63    65    1
    25    81    84    1
    26    21    19   ar
    27    58    51   am
    28    19    20   ar
    29    19    18    1
    30    84    86    1
    31    84    85    1
    32    18    17    1
    33    45    44    2
    34    46    47    1
    35    46    43    1
    36    47    48    1
    37    51    52    2
    38    51    50    1
    39    16    15    2
    40    17    14    1
    41    48    42    1
    42    44    43    1
    43    44    49   am
    44    14    15    1
    45    14    13    1
    46     9     7   ar
    47     9    11   ar
    48    43    42    1
    49    50    49    1
    50    50    53    1
    51     7     6   ar
    52    12    11    1
    53    42    35   am
    54    11    10   ar
    55    40    39    1
    56    40    41    1
    57    39    38    1
    58    37    38    1
    59    37    34    1
    60    31    29   ar
    61    31    32   ar
    62     6     5    1
    63     6     8   ar
    64    35    34    1
    65    35    36    2
    66     4     3    2
    67    29    27   ar
    68    53    54    1
    69     5     2    1
    70    34    33    1
    71    10     8   ar
    72    32    30   ar
    73     3     2    1
    74     2     1    1
    75    54    55    1
    76    27    26    1
    77    27    28   ar
    78    30    28   ar
    79    26    23    1
    80    23    24    1
    81    23    22    1
    82    55    56    2
    83    55    57   am
    84    24    25    2
