@<TRIPOS>MOLECULE
tmp/6fp4A03.pdb
 116 112 0 0 0
SMALL
GASTEIGER

@<TRIPOS>ATOM
      1  N        121.9030    6.9650   78.8420 N.3   317  ARG317     -0.1231
      2  CA       121.9420    8.2380   79.5470 C.3   317  ARG317      0.1694
      3  C        122.4380    9.3210   78.5970 C.2   317  ARG317      0.2593
      4  O        123.4340    9.1340   77.8930 O.2   317  ARG317     -0.2718
      5  CB       122.8490    8.1330   80.7780 C.3   317  ARG317      0.0321
      6  CG       122.8520    9.3690   81.6830 C.3   317  ARG317      0.0489
      7  CD       123.4420    9.0790   83.0690 C.3   317  ARG317      0.2205
      8  NE       122.5650    8.2370   83.8850 N.pl3 317  ARG317     -0.0865
      9  CZ       121.4930    8.6790   84.5400 C.cat 317  ARG317      0.5346
     10  NH1      121.1510    9.9620   84.4770 N.pl3 317  ARG317      0.1354
     11  NH2      120.7570    7.8370   85.2570 N.pl3 317  ARG317      0.1354
     12  N        121.7230   10.4440   78.5510 N.am  318  GLY318     -0.1942
     13  CA       122.0650   11.5300   77.6550 C.3   318  GLY318      0.2014
     14  C        121.4220   11.4710   76.2810 C.2   318  GLY318      0.2639
     15  O        121.5370   12.4360   75.5210 O.2   318  GLY318     -0.2714
     16  N        120.7700   10.3730   75.9290 N.am  319  PHE319     -0.1959
     17  CA       120.0070   10.2810   74.6940 C.3   319  PHE319      0.1771
     18  C        118.5470   10.5910   74.9810 C.2   319  PHE319      0.2619
     19  O        118.0810   10.4930   76.1200 O.2   319  PHE319     -0.2715
     20  CB       120.1040    8.8860   74.0720 C.3   319  PHE319      0.0574
     21  CG       121.4710    8.5240   73.5830 C.ar  319  PHE319     -0.0200
     22  CD1      122.4740    8.1760   74.4760 C.ar  319  PHE319     -0.0042
     23  CD2      121.7460    8.5020   72.2260 C.ar  319  PHE319     -0.0042
     24  CE1      123.7270    7.8280   74.0240 C.ar  319  PHE319     -0.0003
     25  CE2      122.9950    8.1580   71.7670 C.ar  319  PHE319     -0.0003
     26  CZ       123.9890    7.8160   72.6660 C.ar  319  PHE319     -0.0000
     27  N        117.8270   10.9630   73.9320 N.am  320  ASP320     -0.1971
     28  CA       116.3820   11.0460   74.0280 C.3   320  ASP320      0.1709
     29  C        115.8300    9.7830   74.6720 C.2   320  ASP320      0.2293
     30  O        115.9580    8.6800   74.1290 O.2   320  ASP320     -0.2864
     31  CB       115.7950   11.2490   72.6330 C.3   320  ASP320      0.1436
     32  CG       114.3100   11.5400   72.6680 C.2   320  ASP320      0.3671
     33  OD1      113.5310   10.6300   73.0090 O.co2 320  ASP320     -0.2456
     34  OD2      113.9290   12.6910   72.3760 O.co2 320  ASP320     -0.2456
     35  N        131.8560   15.4220   71.1330 N.3   434  PRO434     -0.2116
     36  CA       131.2620   14.1090   70.8590 C.3   434  PRO434      0.1372
     37  C        132.3420   13.1110   70.4810 C.2   434  PRO434      0.2244
     38  O        133.2250   13.4000   69.6700 O.2   434  PRO434     -0.2868
     39  CB       130.3020   14.3910   69.6980 C.3   434  PRO434      0.0268
     40  CG       130.0590   15.8700   69.7580 C.3   434  PRO434      0.0207
     41  CD       131.3340   16.4570   70.2260 C.3   434  PRO434      0.0892
     42  N        133.2910   10.4280   68.6040 N.3   436  LEU436     -0.1245
     43  CA       132.8790    9.7870   67.3680 C.3   436  LEU436      0.1561
     44  C        134.0120    9.8710   66.3590 C.2   436  LEU436      0.2260
     45  O        134.7610   10.8510   66.3190 O.2   436  LEU436     -0.2867
     46  CB       131.6330   10.4620   66.7900 C.3   436  LEU436      0.0270
     47  CG       130.4080   10.4560   67.6960 C.3   436  LEU436      0.0019
     48  CD1      129.3990   11.4750   67.2050 C.3   436  LEU436      0.0001
     49  CD2      129.8110    9.0570   67.7260 C.3   436  LEU436      0.0001
     50  N        131.3070   21.2990   66.0970 N.3   461  TYR461     -0.1227
     51  CA       130.8720   20.2030   66.9500 C.3   461  TYR461      0.1736
     52  C        129.3860   20.2550   67.2730 C.2   461  TYR461      0.2596
     53  O        128.9300   19.4860   68.1250 O.2   461  TYR461     -0.2718
     54  CB       131.6770   20.2160   68.2520 C.3   461  TYR461      0.0548
     55  CG       133.1690   20.0420   68.0510 C.ar  461  TYR461     -0.0200
     56  CD1      133.7390   18.7740   67.9860 C.ar  461  TYR461     -0.0009
     57  CD2      134.0080   21.1450   67.9200 C.ar  461  TYR461     -0.0009
     58  CE1      135.1000   18.6080   67.7970 C.ar  461  TYR461      0.0417
     59  CE2      135.3750   20.9900   67.7350 C.ar  461  TYR461      0.0417
     60  CZ       135.9170   19.7180   67.6760 C.ar  461  TYR461      0.1957
     61  OH       137.2720   19.5550   67.4890 O.3   461  TYR461     -0.2866
     62  N        128.6230   21.1330   66.6250 N.am  462  SER462     -0.1938
     63  CA       127.2170   21.3150   66.9520 C.3   462  SER462      0.2055
     64  C        126.3460   20.4580   66.0460 C.2   462  SER462      0.2643
     65  O        126.6360   20.2870   64.8570 O.2   462  SER462     -0.2714
     66  CB       126.8130   22.7860   66.8220 C.3   462  SER462      0.2130
     67  OG       126.7430   23.1990   65.4640 O.3   462  SER462     -0.2179
     68  N        125.2770   19.9170   66.6270 N.am  463  ASN463     -0.1957
     69  CA       124.3150   19.1020   65.8940 C.3   463  ASN463      0.1819
     70  C        125.0080   17.9790   65.1210 C.2   463  ASN463      0.2621
     71  O        124.6540   17.6760   63.9800 O.2   463  ASN463     -0.2715
     72  CB       123.4790   19.9720   64.9560 C.3   463  ASN463      0.1195
     73  CG       122.6960   21.0430   65.6930 C.2   463  ASN463      0.2630
     74  OD1      121.9540   20.7550   66.6320 O.2   463  ASN463     -0.2716
     75  ND2      122.8580   22.2920   65.2640 N.am  463  ASN463     -0.0877
     76  N        126.0100   17.3500   65.7430 N.am  464  VAL464     -0.1977
     77  CA       126.6520   16.2000   65.1150 C.3   464  VAL464      0.1596
     78  C        125.6970   15.0230   65.1690 C.2   464  VAL464      0.2287
     79  O        125.1710   14.6820   66.2360 O.2   464  VAL464     -0.2864
     80  CB       127.9830   15.8550   65.7980 C.3   464  VAL464      0.0276
     81  CG1      128.4610   14.4670   65.3640 C.3   464  VAL464      0.0022
     82  CG2      129.0350   16.8860   65.4440 C.3   464  VAL464      0.0022
     83  N        124.3520   11.0390   64.6600 N.3   466  THR466     -0.1218
     84  CA       124.8270    9.8110   65.2620 C.3   466  THR466      0.1862
     85  C        123.8280    8.6970   64.9840 C.2   466  THR466      0.2287
     86  O        122.6870    8.9410   64.5810 O.2   466  THR466     -0.2866
     87  CB       125.0380   10.0220   66.7610 C.3   466  THR466      0.1770
     88  OG1      125.6780    8.8800   67.3280 O.3   466  THR466     -0.2211
     89  CG2      123.7170   10.2570   67.4700 C.3   466  THR466      0.0375
     90  N        120.7450   16.4080   66.6630 N.3   478  GLY478     -0.1210
     91  CA       120.2390   17.5290   67.4190 C.3   478  GLY478      0.1956
     92  C        119.8010   17.1300   68.8110 C.2   478  GLY478      0.2612
     93  O        120.2130   16.1120   69.3670 O.2   478  GLY478     -0.2717
     94  N        118.9330   17.9550   69.3750 N.am  479  LEU479     -0.1965
     95  CA       118.5600   17.8130   70.7730 C.3   479  LEU479      0.1728
     96  C        117.5520   16.6890   70.9640 C.2   479  LEU479      0.2616
     97  O        116.6850   16.4570   70.1180 O.2   479  LEU479     -0.2715
     98  CB       117.9650   19.1160   71.3020 C.3   479  LEU479      0.0311
     99  CG       118.7910   20.3970   71.1350 C.3   479  LEU479      0.0022
    100  CD1      118.0270   21.5900   71.6970 C.3   479  LEU479      0.0001
    101  CD2      120.1530   20.2710   71.7950 C.3   479  LEU479      0.0001
    102  N        117.6810   15.9830   72.0830 N.am  480  SER480     -0.1950
    103  CA       116.5780   15.1820   72.5790 C.3   480  SER480      0.1924
    104  C        115.3740   16.0720   72.8650 C.2   480  SER480      0.2314
    105  O        115.4990   17.2770   73.1010 O.2   480  SER480     -0.2863
    106  CB       116.9750   14.4630   73.8610 C.3   480  SER480      0.2116
    107  OG       117.2900   15.4140   74.8650 O.3   480  SER480     -0.2180
    108  N        115.6210   23.4700   77.4190 N.3   487  LYS487     -0.1245
    109  CA       116.3640   24.6350   76.9620 C.3   487  LYS487      0.1561
    110  C        115.4550   25.8030   76.5880 C.2   487  LYS487      0.2260
    111  O        115.8770   26.9590   76.6960 O.2   487  LYS487     -0.2867
    112  CB       117.2450   24.2400   75.7760 C.3   487  LYS487      0.0271
    113  CG       118.2290   25.3060   75.3480 C.3   487  LYS487      0.0035
    114  CD       119.3600   24.7370   74.4890 C.3   487  LYS487      0.0206
    115  CE       120.3470   23.9090   75.3110 C.3   487  LYS487      0.1093
    116  NZ       121.6620   23.7650   74.6230 N.3   487  LYS487     -0.1314
@<TRIPOS>BOND
     1    71    70    2
     2    86    85    2
     3    83    84    1
     4    65    64    2
     5    72    73    1
     6    72    69    1
     7    85    84    1
     8    77    78    1
     9    77    76    1
    10    77    80    1
    11    70    76   am
    12    70    69    1
    13    78    79    2
    14    84    87    1
    15    75    73   am
    16    81    80    1
    17    82    80    1
    18    67    66    1
    19    73    74    2
    20    69    68    1
    21    64    68   am
    22    64    63    1
    23    50    51    1
    24    45    44    2
    25    44    43    1
    26    62    63    1
    27    62    52   am
    28    90    91    1
    29    87    88    1
    30    87    89    1
    31    46    43    1
    32    46    47    1
    33    66    63    1
    34    51    52    1
    35    51    54    1
    36    48    47    1
    37    52    53    2
    38    43    42    1
    39    91    92    1
    40    61    60    1
    41    60    59   ar
    42    60    58   ar
    43    47    49    1
    44    59    57   ar
    45    58    56   ar
    46    57    55   ar
    47    56    55   ar
    48    55    54    1
    49    92    93    2
    50    92    94   am
    51    94    95    1
    52    38    37    2
    53    39    40    1
    54    39    36    1
    55    40    41    1
    56    97    96    2
    57    41    35    1
    58    37    36    1
    59    95    96    1
    60    95    98    1
    61    36    35    1
    62    96   102   am
    63    99    98    1
    64    99   100    1
    65    99   101    1
    66    25    23   ar
    67    25    26   ar
    68   102   103    1
    69    23    21   ar
    70    34    32   ar
    71   103   104    1
    72   103   106    1
    73    31    32    1
    74    31    28    1
    75    26    24   ar
    76    32    33   ar
    77   104   105    2
    78    21    20    1
    79    21    22   ar
    80   106   107    1
    81    27    28    1
    82    27    18   am
    83    24    22   ar
    84    28    29    1
    85    20    17    1
    86    30    29    2
    87   114   115    1
    88   114   113    1
    89   116   115    1
    90    17    18    1
    91    17    16    1
    92    18    19    2
    93   113   112    1
    94    15    14    2
    95   112   109    1
    96    16    14   am
    97    14    13    1
    98   110   111    2
    99   110   109    1
   100   109   108    1
   101    13    12    1
   102     4     3    2
   103    12     3   am
   104     3     2    1
   105     1     2    1
   106     2     5    1
   107     5     6    1
   108     6     7    1
   109     7     8    1
   110     8     9    2
   111    10     9    1
   112     9    11    1
