@<TRIPOS>MOLECULE
tmp/6fpeD00.pdb
 168 163 0 0 0
SMALL
GASTEIGER

@<TRIPOS>ATOM
      1  N        -96.5160  101.0970  -60.6270 N.3     9  LEU9       -0.1231
      2  CA       -95.3820  100.7890  -59.7760 C.3     9  LEU9        0.1693
      3  C        -94.2800  101.8140  -60.0070 C.2     9  LEU9        0.2593
      4  O        -93.9300  102.1110  -61.1540 O.2     9  LEU9       -0.2718
      5  CB       -94.8670   99.3780  -60.0440 C.3     9  LEU9        0.0284
      6  CG       -95.7020   98.2480  -59.4520 C.3     9  LEU9        0.0019
      7  CD1      -94.8500   97.0100  -59.3250 C.3     9  LEU9        0.0001
      8  CD2      -96.2580   98.6420  -58.0980 C.3     9  LEU9        0.0001
      9  N        -93.7500  102.3640  -58.9180 N.am   10  THR10      -0.1939
     10  CA       -92.5930  103.2290  -59.0290 C.3    10  THR10       0.2028
     11  C        -91.3670  102.3940  -59.2830 C.2    10  THR10       0.2642
     12  O        -91.3710  101.1780  -59.0920 O.2    10  THR10      -0.2714
     13  CB       -92.3650  104.0130  -57.7520 C.3    10  THR10       0.1808
     14  OG1      -92.3300  103.0910  -56.6590 O.3    10  THR10      -0.2208
     15  CG2      -93.4670  105.0240  -57.5450 C.3    10  THR10       0.0379
     16  N        -90.2850  103.0770  -59.6580 N.am   11  GLU11      -0.1976
     17  CA       -89.0500  102.3730  -59.9780 C.3    11  GLU11       0.1602
     18  C        -88.4920  101.6400  -58.7640 C.2    11  GLU11       0.2287
     19  O        -88.0610  100.4860  -58.8830 O.2    11  GLU11      -0.2864
     20  CB       -88.0160  103.3380  -60.5480 C.3    11  GLU11       0.0415
     21  CG       -86.7770  102.6340  -61.0900 C.3    11  GLU11       0.1163
     22  CD       -85.7290  103.6020  -61.6080 C.2    11  GLU11       0.3649
     23  OE1      -86.0560  104.7910  -61.8260 O.co2  11  GLU11      -0.2457
     24  OE2      -84.5710  103.1750  -61.7890 O.co2  11  GLU11      -0.2457
     25  N        -90.6220   98.7590  -58.3660 N.3    14  LEU14      -0.1245
     26  CA       -90.3330   97.7660  -59.3990 C.3    14  LEU14       0.1561
     27  C        -89.2100   96.8420  -58.9540 C.2    14  LEU14       0.2260
     28  O        -89.3340   95.6140  -59.0250 O.2    14  LEU14      -0.2867
     29  CB       -89.9670   98.4530  -60.7190 C.3    14  LEU14       0.0270
     30  CG       -89.8330   97.4840  -61.8980 C.3    14  LEU14       0.0019
     31  CD1      -91.1290   96.7380  -62.1000 C.3    14  LEU14       0.0001
     32  CD2      -89.4570   98.1830  -63.1770 C.3    14  LEU14       0.0001
     33  N        -89.0300   98.5470  -75.6100 N.3    37  LEU37      -0.1231
     34  CA       -87.8900   99.3660  -75.2140 C.3    37  LEU37       0.1693
     35  C        -88.2670  100.2590  -74.0400 C.2    37  LEU37       0.2593
     36  O        -89.4390  100.5810  -73.8590 O.2    37  LEU37      -0.2718
     37  CB       -87.3990  100.2130  -76.3920 C.3    37  LEU37       0.0284
     38  CG       -86.5950   99.4920  -77.4820 C.3    37  LEU37       0.0019
     39  CD1      -87.5420   98.8060  -78.4320 C.3    37  LEU37       0.0001
     40  CD2      -85.6940  100.4340  -78.2350 C.3    37  LEU37       0.0001
     41  N        -87.2960  100.6340  -73.2090 N.am   38  GLY38      -0.1942
     42  CA       -87.5620  101.6560  -72.2210 C.3    38  GLY38       0.2014
     43  C        -88.5180  101.2220  -71.1370 C.2    38  GLY38       0.2639
     44  O        -88.7110  101.9530  -70.1660 O.2    38  GLY38      -0.2714
     45  N        -89.1060  100.0420  -71.2600 N.am   39  ALA39      -0.1963
     46  CA       -89.7890   99.5010  -70.0990 C.3    39  ALA39       0.1728
     47  C        -88.7460   99.2740  -69.0100 C.2    39  ALA39       0.2617
     48  O        -87.6130   99.7610  -69.0930 O.2    39  ALA39      -0.2715
     49  CB       -90.5170   98.2110  -70.4610 C.3    39  ALA39       0.0334
     50  N        -89.0870   98.5090  -67.9950 N.am   40  GLY40      -0.1940
     51  CA       -88.0490   98.2700  -67.0120 C.3    40  GLY40       0.2014
     52  C        -87.3740   96.9140  -67.0550 C.2    40  GLY40       0.2639
     53  O        -87.0360   96.3860  -65.9940 O.2    40  GLY40      -0.2714
     54  N        -87.1770   96.3260  -68.2400 N.am   41  LYS41      -0.1963
     55  CA       -86.6380   94.9700  -68.3000 C.3    41  LYS41       0.1728
     56  C        -85.2920   94.8760  -67.5840 C.2    41  LYS41       0.2617
     57  O        -85.1500   94.1640  -66.5810 O.2    41  LYS41      -0.2715
     58  CB       -86.4900   94.5200  -69.7480 C.3    41  LYS41       0.0311
     59  CG       -87.6920   94.6900  -70.6060 C.3    41  LYS41       0.0038
     60  CD       -87.4700   94.0250  -71.9360 C.3    41  LYS41       0.0206
     61  CE       -86.6220   94.8800  -72.8380 C.3    41  LYS41       0.1093
     62  NZ       -87.3550   96.0660  -73.3230 N.3    41  LYS41      -0.1314
     63  N        -84.2850   95.5910  -68.0900 N.am   42  THR42      -0.1937
     64  CA       -82.9800   95.5790  -67.4380 C.3    42  THR42       0.2028
     65  C        -83.0950   96.0190  -65.9830 C.2    42  THR42       0.2642
     66  O        -82.5490   95.3750  -65.0800 O.2    42  THR42      -0.2714
     67  CB       -82.0140   96.4800  -68.2020 C.3    42  THR42       0.1808
     68  OG1      -81.9750   96.0900  -69.5800 O.3    42  THR42      -0.2208
     69  CG2      -80.6390   96.3790  -67.6140 C.3    42  THR42       0.0379
     70  N        -83.8360   97.1060  -65.7380 N.am   43  THR43      -0.1950
     71  CA       -84.0660   97.6520  -64.4010 C.3    43  THR43       0.1897
     72  C        -84.8060   96.6740  -63.4930 C.2    43  THR43       0.2313
     73  O        -84.8110   96.8390  -62.2660 O.2    43  THR43      -0.2863
     74  CB       -84.8280   98.9720  -64.5510 C.3    43  THR43       0.1794
     75  OG1      -84.0520   99.8700  -65.3630 O.3    43  THR43      -0.2208
     76  CG2      -85.1150   99.6220  -63.1930 C.3    43  THR43       0.0378
     77  N        -77.0060   96.3970  -69.5280 N.3    61  SER61      -0.1217
     78  CA       -77.5820   95.8540  -70.7580 C.3    61  SER61       0.1889
     79  C        -76.7220   94.7560  -71.3470 C.2    61  SER61       0.2288
     80  O        -75.5710   95.0040  -71.7260 O.2    61  SER61      -0.2866
     81  CB       -77.7350   96.8960  -71.8540 C.3    61  SER61       0.2089
     82  OG       -78.6540   97.9060  -71.5130 O.3    61  SER61      -0.2183
     83  N        -77.1570   93.6850  -74.0880 N.3    63  THR63      -0.1218
     84  CA       -77.5670   93.7970  -75.4770 C.3    63  THR63       0.1862
     85  C        -76.4230   93.4310  -76.4170 C.2    63  THR63       0.2287
     86  O        -76.5900   92.5890  -77.3110 O.2    63  THR63      -0.2866
     87  CB       -78.0930   95.2020  -75.7240 C.3    63  THR63       0.1770
     88  OG1      -78.7710   95.6270  -74.5350 O.3    63  THR63      -0.2211
     89  CG2      -79.0700   95.1960  -76.8820 C.3    63  THR63       0.0375
     90  N        -79.9700   88.7810  -73.1410 N.3    80  ASP80      -0.1239
     91  CA       -80.6890   89.8270  -73.8690 C.3    80  ASP80       0.1674
     92  C        -80.6930   89.4300  -75.3370 C.2    80  ASP80       0.2266
     93  O        -79.6480   89.4680  -75.9850 O.2    80  ASP80      -0.2867
     94  CB       -80.0470   91.2030  -73.6710 C.3    80  ASP80       0.1410
     95  CG       -80.8780   92.3450  -74.2640 C.2    80  ASP80       0.3668
     96  OD1      -81.7140   92.0860  -75.1580 O.co2  80  ASP80      -0.2456
     97  OD2      -80.6770   93.5160  -73.8350 O.co2  80  ASP80      -0.2456
     98  N        -81.9790   90.8710  -77.8770 N.3    82  TYR82      -0.1241
     99  CA       -82.1540   91.9880  -78.7910 C.3    82  TYR82       0.1605
    100  C        -81.2110   91.9010  -79.9710 C.2    82  TYR82       0.2264
    101  O        -81.5470   92.3580  -81.0660 O.2    82  TYR82      -0.2867
    102  CB       -81.9260   93.3060  -78.0300 C.3    82  TYR82       0.0534
    103  CG       -82.1900   94.5920  -78.8050 C.ar   82  TYR82      -0.0201
    104  CD1      -81.2850   95.0800  -79.7190 C.ar   82  TYR82      -0.0009
    105  CD2      -83.3370   95.3210  -78.5880 C.ar   82  TYR82      -0.0009
    106  CE1      -81.5260   96.2450  -80.4020 C.ar   82  TYR82       0.0417
    107  CE2      -83.5930   96.4890  -79.2690 C.ar   82  TYR82       0.0417
    108  CZ       -82.6800   96.9640  -80.1760 C.ar   82  TYR82       0.1957
    109  OH       -82.9340   98.1560  -80.8600 O.3    82  TYR82      -0.2866
    110  N        -84.0050   88.7730  -71.3520 N.3   108  GLU108     -0.1182
    111  CA       -84.5640   90.0320  -71.8400 C.3   108  GLU108      0.1915
    112  C        -85.0160   89.8350  -73.2880 C.2   108  GLU108      0.2634
    113  O        -84.2250   89.3990  -74.1340 O.2   108  GLU108     -0.2714
    114  CB       -83.5350   91.1670  -71.7000 C.2   108  GLU108      0.0085
    115  CG       -84.0460   92.4590  -71.0060 C.2   108  GLU108      0.0835
    116  CD       -82.9500   93.4860  -70.6390 C.2   108  GLU108      0.3877
    117  OE1      -82.1310   93.2190  -69.7290 O.co2 108  GLU108     -0.2406
    118  OE2      -82.9200   94.5830  -71.2490 O.co2 108  GLU108     -0.2406
    119  N        -86.3000   90.1320  -73.5600 N.am  109  TRP109     -0.1973
    120  CA       -87.0000   89.7820  -74.8080 C.3   109  TRP109      0.1640
    121  C        -87.2470   88.2760  -74.9430 C.2   109  TRP109      0.2290
    122  O        -87.3160   87.7510  -76.0580 O.2   109  TRP109     -0.2864
    123  CB       -86.2670   90.2710  -76.0580 C.3   109  TRP109      0.0576
    124  CG       -86.1290   91.6990  -76.1900 C.ar  109  TRP109      0.0006
    125  CD1      -85.0740   92.4450  -75.8090 C.ar  109  TRP109      0.0946
    126  CD2      -87.0710   92.5980  -76.7800 C.ar  109  TRP109      0.0152
    127  NE1      -85.2940   93.7720  -76.1050 N.ar  109  TRP109     -0.2442
    128  CE2      -86.5140   93.8880  -76.7090 C.ar  109  TRP109      0.0810
    129  CE3      -88.3410   92.4380  -77.3530 C.ar  109  TRP109      0.0012
    130  CZ2      -87.1720   95.0070  -77.1910 C.ar  109  TRP109      0.0191
    131  CZ3      -88.9920   93.5460  -77.8330 C.ar  109  TRP109      0.0001
    132  CH2      -88.4100   94.8150  -77.7520 C.ar  109  TRP109      0.0015
    133  N        -94.4650  108.4710  -66.8870 N.3   131  GLU131     -0.1231
    134  CA       -93.0380  108.7150  -66.9900 C.3   131  GLU131      0.1699
    135  C        -92.2860  108.2850  -65.7390 C.2   131  GLU131      0.2593
    136  O        -91.0530  108.2410  -65.7620 O.2   131  GLU131     -0.2718
    137  CB       -92.8010  110.1870  -67.3080 C.3   131  GLU131      0.0402
    138  CG       -93.2200  110.5290  -68.7290 C.3   131  GLU131      0.1161
    139  CD       -93.0420  111.9840  -69.0530 C.2   131  GLU131      0.3649
    140  OE1      -92.8270  112.7530  -68.0960 O.co2 131  GLU131     -0.2457
    141  OE2      -93.1180  112.3610  -70.2490 O.co2 131  GLU131     -0.2457
    142  N        -93.0030  107.9330  -64.6690 N.am  132  SER132     -0.1938
    143  CA       -92.3970  107.4960  -63.4220 C.3   132  SER132      0.2055
    144  C        -93.0020  106.1940  -62.8970 C.2   132  SER132      0.2643
    145  O        -92.7420  105.8260  -61.7450 O.2   132  SER132     -0.2714
    146  CB       -92.5140  108.6020  -62.3550 C.3   132  SER132      0.2130
    147  OG       -93.2460  109.7360  -62.8190 O.3   132  SER132     -0.2179
    148  N        -93.8070  105.4860  -63.6890 N.am  133  HIS133     -0.1959
    149  CA       -94.4400  104.2720  -63.1890 C.3   133  HIS133      0.1787
    150  C        -94.5840  103.2590  -64.3100 C.2   133  HIS133      0.2620
    151  O        -94.7350  103.6230  -65.4750 O.2   133  HIS133     -0.2715
    152  CB       -95.8040  104.5720  -62.5610 C.3   133  HIS133      0.0785
    153  CG       -95.7690  105.7170  -61.5990 C.ar  133  HIS133      0.0821
    154  ND1      -95.7100  107.0340  -62.0080 N.ar  133  HIS133     -0.2267
    155  CD2      -95.7360  105.7430  -60.2470 C.ar  133  HIS133      0.1154
    156  CE1      -95.6620  107.8210  -60.9490 C.ar  133  HIS133      0.1986
    157  NE2      -95.6750  107.0620  -59.8680 N.ar  133  HIS133     -0.2212
    158  N        -94.5120  101.9830  -63.9510 N.am  134  ARG134     -0.1977
    159  CA       -94.6990  100.8920  -64.8970 C.3   134  ARG134      0.1597
    160  C        -95.6520   99.8790  -64.2850 C.2   134  ARG134      0.2287
    161  O        -95.6930   99.7200  -63.0630 O.2   134  ARG134     -0.2864
    162  CB       -93.3750  100.2110  -65.2490 C.3   134  ARG134      0.0334
    163  CG       -92.6510  100.7750  -66.4590 C.3   134  ARG134      0.0492
    164  CD       -92.0620  102.1550  -66.2360 C.3   134  ARG134      0.2205
    165  NE       -91.2030  102.5230  -67.3630 N.pl3 134  ARG134     -0.0865
    166  CZ       -90.5190  103.6610  -67.4540 C.cat 134  ARG134      0.5346
    167  NH1      -89.7540  103.8930  -68.5140 N.pl3 134  ARG134      0.1354
    168  NH2      -90.5980  104.5660  -66.4850 N.pl3 134  ARG134      0.1354
@<TRIPOS>BOND
     1   101   100    2
     2   109   108    1
     3   106   108   ar
     4   106   104   ar
     5   108   107   ar
     6   100    99    1
     7   104   103   ar
     8   107   105   ar
     9   103   105   ar
    10   103   102    1
    11    99   102    1
    12    99    98    1
    13    39    38    1
    14    40    38    1
    15   131   132   ar
    16   131   129   ar
    17   132   130   ar
    18    38    37    1
    19   129   126   ar
    20    86    85    2
    21   130   128   ar
    22    89    87    1
    23   126   128   ar
    24   126   124   ar
    25   128   127   ar
    26    85    84    1
    27    37    34    1
    28   124   123    1
    29   124   125   ar
    30   127   125   ar
    31   122   121    2
    32   123   120    1
    33    93    92    2
    34    87    84    1
    35    87    88    1
    36    33    34    1
    37    84    83    1
    38    92    91    1
    39    34    35    1
    40    96    95   ar
    41   121   120    1
    42   120   119    1
    43    95    97   ar
    44    95    94    1
    45   113   112    2
    46    35    36    2
    47    35    41   am
    48    91    94    1
    49    91    90    1
    50   119   112   am
    51    62    61    1
    52   112   111    1
    53    41    42    1
    54    61    60    1
    55    42    43    1
    56    60    59    1
    57    81    82    1
    58    81    78    1
    59   111   114    1
    60   111   110    1
    61    80    79    2
    62   114   115    2
    63    79    78    1
    64    45    43   am
    65    45    46    1
    66   118   116   ar
    67    43    44    2
    68   115   116    1
    69    78    77    1
    70   116   117   ar
    71    59    58    1
    72    49    46    1
    73   141   139   ar
    74    46    47    1
    75    58    55    1
    76    68    67    1
    77    48    47    2
    78   139   138    1
    79   139   140   ar
    80    47    50   am
    81   138   137    1
    82   167   166    1
    83    55    54    1
    84    55    56    1
    85    54    52   am
    86    67    69    1
    87    67    64    1
    88    63    56   am
    89    63    64    1
    90    50    51    1
    91    56    57    2
    92   166   165    2
    93   166   168    1
    94    64    65    1
    95   165   164    1
    96   137   134    1
    97    52    51    1
    98    52    53    2
    99   134   133    1
   100   134   135    1
   101   163   164    1
   102   163   162    1
   103    65    70   am
   104    65    66    2
   105   136   135    2
   106   135   142   am
   107    70    71    1
   108   151   150    2
   109    75    74    1
   110   162   159    1
   111   159   160    1
   112   159   158    1
   113   142   143    1
   114    74    71    1
   115    74    76    1
   116    71    72    1
   117   150   158   am
   118   150   149    1
   119   160   161    2
   120   148   149    1
   121   148   144   am
   122    72    73    2
   123   143   144    1
   124   143   146    1
   125   149   152    1
   126    32    30    1
   127   144   145    2
   128   147   146    1
   129   152   153    1
   130    31    30    1
   131   154   153   ar
   132   154   156   ar
   133    30    29    1
   134    23    22   ar
   135    24    22   ar
   136    22    21    1
   137   153   155   ar
   138     4     3    2
   139    21    20    1
   140   156   157   ar
   141    29    26    1
   142     1     2    1
   143    20    17    1
   144   155   157   ar
   145     5     2    1
   146     5     6    1
   147     3     2    1
   148     3     9   am
   149    17    16    1
   150    17    18    1
   151    16    11   am
   152     6     7    1
   153     6     8    1
   154    26    27    1
   155    26    25    1
   156    11    12    2
   157    11    10    1
   158    10     9    1
   159    10    13    1
   160    28    27    2
   161    19    18    2
   162    13    15    1
   163    13    14    1
