@<TRIPOS>MOLECULE
tmp/6fpeB00.pdb
 77 72 0 0 0
SMALL
GASTEIGER

@<TRIPOS>ATOM
      1  N        -20.7620   29.0550  -50.2610 N.3   118  GLY118     -0.1225
      2  CA       -21.8910   28.5080  -50.9820 C.3   118  GLY118      0.1811
      3  C        -22.4060   29.5040  -52.0080 C.2   118  GLY118      0.2280
      4  O        -22.5840   30.6910  -51.7270 O.2   118  GLY118     -0.2866
      5  N        -18.1470   25.6330  -51.8160 N.3   144  GLY144     -0.1225
      6  CA       -19.1050   25.3920  -50.7490 C.3   144  GLY144      0.1811
      7  C        -20.1460   24.3500  -51.1100 C.2   144  GLY144      0.2280
      8  O        -20.6130   23.6120  -50.2380 O.2   144  GLY144     -0.2866
      9  N        -18.1640   20.8060  -50.9950 N.3   147  PHE147     -0.1227
     10  CA       -18.0870   20.2370  -49.6630 C.3   147  PHE147      0.1736
     11  C        -19.4360   19.7030  -49.2420 C.2   147  PHE147      0.2595
     12  O        -19.5590   18.5450  -48.8250 O.2   147  PHE147     -0.2718
     13  CB       -17.5900   21.2760  -48.6780 C.3   147  PHE147      0.0547
     14  CG       -16.1140   21.4540  -48.7110 C.ar  147  PHE147     -0.0202
     15  CD1      -15.2840   20.5020  -48.1530 C.ar  147  PHE147     -0.0042
     16  CD2      -15.5540   22.5710  -49.3120 C.ar  147  PHE147     -0.0042
     17  CE1      -13.9330   20.6580  -48.1910 C.ar  147  PHE147     -0.0003
     18  CE2      -14.2010   22.7410  -49.3500 C.ar  147  PHE147     -0.0003
     19  CZ       -13.3820   21.7810  -48.7920 C.ar  147  PHE147     -0.0000
     20  N        -20.4680   20.5360  -49.3700 N.am  148  ASP148     -0.1974
     21  CA       -21.7970   20.1480  -48.9250 C.3   148  ASP148      0.1709
     22  C        -22.2180   18.8260  -49.5630 C.2   148  ASP148      0.2293
     23  O        -22.5560   17.8600  -48.8640 O.2   148  ASP148     -0.2864
     24  CB       -22.7890   21.2720  -49.2330 C.3   148  ASP148      0.1436
     25  CG       -22.6020   22.4930  -48.3250 C.2   148  ASP148      0.3671
     26  OD1      -21.5550   22.6120  -47.6500 O.co2 148  ASP148     -0.2456
     27  OD2      -23.5140   23.3480  -48.2780 O.co2 148  ASP148     -0.2456
     28  N        -23.0860   21.4380  -41.7070 N.3   159  PRO159     -0.2116
     29  CA       -23.0420   21.4920  -43.1650 C.3   159  PRO159      0.1372
     30  C        -21.8790   20.6740  -43.6740 C.2   159  PRO159      0.2244
     31  O        -21.0470   20.2570  -42.8630 O.2   159  PRO159     -0.2868
     32  CB       -22.8430   22.9810  -43.4670 C.3   159  PRO159      0.0268
     33  CG       -22.5760   23.6500  -42.1390 C.3   159  PRO159      0.0207
     34  CD       -22.3550   22.5720  -41.1210 C.3   159  PRO159      0.0892
     35  N        -18.9240   21.2390  -45.5430 N.3   161  GLY161     -0.1210
     36  CA       -17.5990   21.7650  -45.2940 C.3   161  GLY161      0.1940
     37  C        -16.9740   21.4680  -43.9450 C.2   161  GLY161      0.2453
     38  O        -15.9800   20.7420  -43.8390 O.2   161  GLY161     -0.2732
     39  N        -17.5260   22.0540  -42.8860 N.am  162  PRO162     -0.2728
     40  CA       -16.9190   21.8560  -41.5630 C.3   162  PRO162      0.1401
     41  C        -16.7290   20.3990  -41.2020 C.2   162  PRO162      0.2269
     42  O        -15.6660   20.0360  -40.6960 O.2   162  PRO162     -0.2865
     43  CB       -17.9110   22.5560  -40.6330 C.3   162  PRO162      0.0296
     44  CG       -18.5510   23.6020  -41.5120 C.3   162  PRO162      0.0237
     45  CD       -18.6760   22.9700  -42.8500 C.3   162  PRO162      0.0939
     46  N        -13.9920   18.9090  -43.2580 N.3   165  ASP165     -0.1239
     47  CA       -12.8330   19.4850  -42.5720 C.3   165  ASP165      0.1674
     48  C        -12.5080   18.7300  -41.2790 C.2   165  ASP165      0.2266
     49  O        -11.3610   18.3080  -41.0600 O.2   165  ASP165     -0.2867
     50  CB       -13.1220   20.9750  -42.2960 C.3   165  ASP165      0.1410
     51  CG       -11.9560   21.7320  -41.6220 C.2   165  ASP165      0.3668
     52  OD1      -10.8270   21.1790  -41.4750 O.co2 165  ASP165     -0.2456
     53  OD2      -12.2050   22.9120  -41.2540 O.co2 165  ASP165     -0.2456
     54  N        -17.5580   31.6920  -47.1850 N.3   247  GLY247     -0.1210
     55  CA       -17.8590   30.8090  -46.0700 C.3   247  GLY247      0.1956
     56  C        -16.8360   29.7040  -45.8880 C.2   247  GLY247      0.2611
     57  O        -16.5780   29.2680  -44.7610 O.2   247  GLY247     -0.2717
     58  N        -16.2390   29.2290  -46.9860 N.am  248  VAL248     -0.1979
     59  CA       -15.2120   28.2030  -46.8620 C.3   248  VAL248      0.1595
     60  C        -13.8850   28.7840  -46.4040 C.2   248  VAL248      0.2287
     61  O        -12.9410   28.0240  -46.1490 O.2   248  VAL248     -0.2864
     62  CB       -15.0960   27.4220  -48.1880 C.3   248  VAL248      0.0276
     63  CG1      -16.3290   27.6300  -49.0410 C.3   248  VAL248      0.0022
     64  CG2      -13.8830   27.8060  -48.9440 C.3   248  VAL248      0.0022
     65  N        -13.2230   29.7630  -43.5260 N.3   250  ALA250     -0.1231
     66  CA       -12.8930   29.2010  -42.2180 C.3   250  ALA250      0.1694
     67  C        -12.2990   27.8060  -42.2910 C.2   250  ALA250      0.2592
     68  O        -12.1140   27.2180  -41.2200 O.2   250  ALA250     -0.2718
     69  CB       -14.1500   29.1950  -41.3520 C.3   250  ALA250      0.0304
     70  N        -12.0310   27.2670  -43.4790 N.am  251  ASN251     -0.1974
     71  CA       -11.4870   25.9260  -43.5900 C.3   251  ASN251      0.1688
     72  C        -10.0970   25.8720  -42.9910 C.2   251  ASN251      0.2292
     73  O         -9.2810   26.7650  -43.2130 O.2   251  ASN251     -0.2864
     74  CB       -11.4160   25.4880  -45.0450 C.3   251  ASN251      0.1181
     75  CG       -11.0930   24.0280  -45.1660 C.2   251  ASN251      0.2629
     76  OD1      -11.4500   23.2560  -44.2870 O.2   251  ASN251     -0.2716
     77  ND2      -10.3960   23.6380  -46.2280 N.am  251  ASN251     -0.0877
@<TRIPOS>BOND
     1     3     4    2
     2     3     2    1
     3     5     6    1
     4     7     6    1
     5     7     8    2
     6     9    10    1
     7     2     1    1
     8    10    11    1
     9    10    13    1
    10    22    21    1
    11    22    23    2
    12    20    11   am
    13    20    21    1
    14    18    16   ar
    15    18    19   ar
    16    16    14   ar
    17    11    12    2
    18    24    21    1
    19    24    25    1
    20    63    62    1
    21    64    62    1
    22    19    17   ar
    23    14    13    1
    24    14    15   ar
    25    25    27   ar
    26    25    26   ar
    27    17    15   ar
    28    62    59    1
    29    54    55    1
    30    58    59    1
    31    58    56   am
    32    59    60    1
    33    60    61    2
    34    77    75   am
    35    55    56    1
    36    56    57    2
    37    35    36    1
    38    36    37    1
    39    75    74    1
    40    75    76    2
    41    74    71    1
    42    37    38    2
    43    37    39   am
    44    30    29    1
    45    30    31    2
    46    71    70    1
    47    71    72    1
    48    65    66    1
    49    70    67   am
    50    32    29    1
    51    32    33    1
    52    46    47    1
    53    73    72    2
    54    29    28    1
    55    39    45    1
    56    39    40    1
    57    45    44    1
    58    47    50    1
    59    47    48    1
    60    50    51    1
    61    67    66    1
    62    67    68    2
    63    66    69    1
    64    33    34    1
    65    28    34    1
    66    51    52   ar
    67    51    53   ar
    68    40    41    1
    69    40    43    1
    70    44    43    1
    71    48    49    2
    72    41    42    2
