@<TRIPOS>MOLECULE
tmp/6fpgE00.pdb
 119 107 0 0 0
SMALL
GASTEIGER

@<TRIPOS>ATOM
      1  N          8.8430   -8.8010    3.8510 N.3    18  ARG18      -0.1245
      2  CA         8.4180   -7.9430    4.9570 C.3    18  ARG18       0.1563
      3  C          9.5170   -6.9600    5.3380 C.2    18  ARG18       0.2260
      4  O          9.2380   -5.8060    5.6940 O.2    18  ARG18      -0.2867
      5  CB         8.0200   -8.7830    6.1680 C.3    18  ARG18       0.0307
      6  CG         6.6380   -9.3920    6.0460 C.3    18  ARG18       0.0489
      7  CD         6.4140  -10.4410    7.1340 C.3    18  ARG18       0.2205
      8  NE         4.9980  -10.7930    7.2570 N.pl3  18  ARG18      -0.0865
      9  CZ         4.5660  -11.8310    7.9570 C.cat  18  ARG18       0.5346
     10  NH1        5.4450  -12.6090    8.5860 N.pl3  18  ARG18       0.1354
     11  NH2        3.2710  -12.1000    8.0290 N.pl3  18  ARG18       0.1354
     12  N          9.3870   -4.2240    2.8920 N.3    21  LEU21      -0.1245
     13  CA         8.2520   -3.3580    3.1890 C.3    21  LEU21       0.1561
     14  C          8.5810   -2.3820    4.3230 C.2    21  LEU21       0.2260
     15  O          8.3210   -1.1710    4.2090 O.2    21  LEU21      -0.2867
     16  CB         7.0370   -4.2230    3.5440 C.3    21  LEU21       0.0270
     17  CG         5.7290   -3.4650    3.8070 C.3    21  LEU21       0.0019
     18  CD1        5.2030   -2.9470    2.5000 C.3    21  LEU21       0.0001
     19  CD2        4.7090   -4.3890    4.4550 C.3    21  LEU21       0.0001
     20  N          5.7040    1.0400   -2.0030 N.3   158  ARG158     -0.1245
     21  CA         5.4740    0.4390   -0.6920 C.3   158  ARG158      0.1563
     22  C          4.2510   -0.4740   -0.7220 C.2   158  ARG158      0.2260
     23  O          4.2980   -1.6080   -0.2350 O.2   158  ARG158     -0.2867
     24  CB         5.2840    1.5340    0.3700 C.3   158  ARG158      0.0307
     25  CG         5.3510    0.9910    1.8400 C.3   158  ARG158      0.0489
     26  CD         4.0330    0.4790    2.4120 C.3   158  ARG158      0.2205
     27  NE         4.1800    0.2050    3.8420 N.pl3 158  ARG158     -0.0865
     28  CZ         3.3070   -0.4550    4.6030 C.cat 158  ARG158      0.5346
     29  NH1        2.2160   -0.9380    4.0910 N.pl3 158  ARG158      0.1354
     30  NH2        3.5370   -0.6250    5.9050 N.pl3 158  ARG158      0.1354
     31  N          4.1730  -10.2440   -1.4370 N.3   165  ILE165     -0.1245
     32  CA         3.9490  -10.7260   -0.0800 C.3   165  ILE165      0.1561
     33  C          2.7980  -11.7210   -0.0550 C.2   165  ILE165      0.2260
     34  O          2.8890  -12.7960    0.5610 O.2   165  ILE165     -0.2867
     35  CB         3.6980   -9.5250    0.8640 C.3   165  ILE165      0.0252
     36  CG1        5.0210   -8.7930    1.1230 C.3   165  ILE165      0.0019
     37  CG2        3.0010  -10.0000    2.1550 C.3   165  ILE165      0.0019
     38  CD1        4.9090   -7.4700    1.8850 C.3   165  ILE165      0.0001
     39  N          2.7080  -15.4790    1.2320 N.3   169  LYS169     -0.1245
     40  CA         1.7890  -15.8950    2.2830 C.3   169  LYS169      0.1561
     41  C          0.9140  -17.0440    1.8150 C.2   169  LYS169      0.2260
     42  O          0.6100  -17.9650    2.5870 O.2   169  LYS169     -0.2867
     43  CB         0.9100  -14.7240    2.7170 C.3   169  LYS169      0.0271
     44  CG         1.5960  -13.7240    3.5810 C.3   169  LYS169      0.0035
     45  CD         0.5740  -12.7190    4.0900 C.3   169  LYS169      0.0206
     46  CE         1.2460  -11.6760    4.9390 C.3   169  LYS169      0.1093
     47  NZ         0.2730  -10.6050    5.2730 N.3   169  LYS169     -0.1314
     48  N         -5.3430  -12.2510    6.4130 N.3   199  LEU199     -0.1245
     49  CA        -4.1530  -11.4910    6.0610 C.3   199  LEU199      0.1561
     50  C         -3.8030  -10.4450    7.1110 C.2   199  LEU199      0.2260
     51  O         -2.6710   -9.9570    7.1260 O.2   199  LEU199     -0.2867
     52  CB        -4.3830  -10.7880    4.7190 C.3   199  LEU199      0.0270
     53  CG        -4.4500  -11.6730    3.4880 C.3   199  LEU199      0.0019
     54  CD1       -4.9970  -10.7950    2.3880 C.3   199  LEU199      0.0001
     55  CD2       -3.0300  -12.0880    3.1550 C.3   199  LEU199      0.0001
     56  N         -3.0960   -8.8460   10.7960 N.3   201  ASP201     -0.1239
     57  CA        -2.6640   -9.1420   12.1610 C.3   201  ASP201      0.1674
     58  C         -2.5460   -7.8250   12.9200 C.2   201  ASP201      0.2266
     59  O         -1.5590   -7.1010   12.7610 O.2   201  ASP201     -0.2867
     60  CB        -1.3670   -9.9320   12.1590 C.3   201  ASP201      0.1410
     61  CG        -1.0590  -10.5040   13.5120 C.2   201  ASP201      0.3668
     62  OD1       -0.7180   -9.7110   14.4230 O.co2 201  ASP201     -0.2456
     63  OD2       -1.3140  -11.7180   13.6880 O.co2 201  ASP201     -0.2456
     64  N          0.5370   -6.8700   15.0320 N.3   204  GLN204     -0.1231
     65  CA         1.6350   -6.3610   14.2100 C.3   204  GLN204      0.1698
     66  C          1.3580   -4.9400   13.7090 C.2   204  GLN204      0.2592
     67  O          2.2800   -4.1320   13.5830 O.2   204  GLN204     -0.2718
     68  CB         1.8800   -7.2870   13.0040 C.3   204  GLN204      0.0381
     69  CG         2.3940   -8.6720   13.3800 C.3   204  GLN204      0.0905
     70  CD         3.5930   -8.5840   14.3140 C.2   204  GLN204      0.2608
     71  OE1        4.6410   -8.0420   13.9530 O.2   204  GLN204     -0.2717
     72  NE2        3.4320   -9.0840   15.5230 N.am  204  GLN204     -0.0878
     73  N          0.1050   -4.6280   13.3840 N.am  205  GLU205     -0.1979
     74  CA        -0.2130   -3.2700   12.9550 C.3   205  GLU205      0.1602
     75  C          0.0790   -2.2680   14.0640 C.2   205  GLU205      0.2287
     76  O          0.5940   -1.1720   13.8040 O.2   205  GLU205     -0.2864
     77  CB        -1.6700   -3.1870   12.5200 C.3   205  GLU205      0.0415
     78  CG        -1.9470   -3.9840   11.2450 C.3   205  GLU205      0.1163
     79  CD        -3.4160   -4.1370   10.9570 C.2   205  GLU205      0.3649
     80  OE1       -4.2650   -3.8640   11.8450 O.co2 205  GLU205     -0.2457
     81  OE2       -3.7320   -4.4700    9.7990 O.co2 205  GLU205     -0.2457
     82  N          3.8340   -1.5790   14.2110 N.3   208  VAL208     -0.1245
     83  CA         4.2500   -0.6660   13.1480 C.3   208  VAL208      0.1561
     84  C          3.8190    0.7610   13.4690 C.2   208  VAL208      0.2260
     85  O          4.6150    1.7000   13.3960 O.2   208  VAL208     -0.2867
     86  CB         3.6710   -1.1350   11.7940 C.3   208  VAL208      0.0252
     87  CG1        3.8040   -0.0600   10.7170 C.3   208  VAL208      0.0019
     88  CG2        4.3160   -2.4520   11.3490 C.3   208  VAL208      0.0019
     89  N         -1.2920    0.8420    5.0950 N.3   246  ILE246     -0.1245
     90  CA        -1.6110   -0.4820    5.6140 C.3   246  ILE246      0.1561
     91  C         -2.8630   -1.0530    4.9490 C.2   246  ILE246      0.2260
     92  O         -2.7880   -2.1650    4.3900 O.2   246  ILE246     -0.2867
     93  CB        -1.6990   -0.4480    7.1480 C.3   246  ILE246      0.0252
     94  CG1       -0.2810   -0.2840    7.7070 C.3   246  ILE246      0.0019
     95  CG2       -2.3500   -1.7360    7.6840 C.3   246  ILE246      0.0019
     96  CD1       -0.2360   -0.1170    9.2760 C.3   246  ILE246      0.0001
     97  N         -2.2670   -1.9270    1.1520 N.3   249  THR249     -0.1203
     98  CA        -1.4340   -3.1180    1.0350 C.3   249  THR249      0.1994
     99  C         -2.2620   -4.3750    1.2800 C.2   249  THR249      0.2618
    100  O         -2.1880   -5.3440    0.5090 O.2   249  THR249     -0.2717
    101  CB        -0.2530   -3.0500    1.9890 C.3   249  THR249      0.1784
    102  OG1        0.4780   -1.8510    1.7380 O.3   249  THR249     -0.2211
    103  CG2        0.6670   -4.2730    1.8010 C.3   249  THR249      0.0376
    104  N         -3.0890   -4.3650    2.3360 N.am  250  THR250     -0.1952
    105  CA        -3.9270   -5.5340    2.6190 C.3   250  THR250      0.1897
    106  C         -4.8940   -5.8180    1.4720 C.2   250  THR250      0.2313
    107  O         -5.1460   -6.9850    1.1390 O.2   250  THR250     -0.2863
    108  CB        -4.6840   -5.3420    3.9350 C.3   250  THR250      0.1794
    109  OG1       -3.7550   -5.2920    5.0120 O.3   250  THR250     -0.2208
    110  CG2       -5.6710   -6.5140    4.1910 C.3   250  THR250      0.0378
    111  N         -3.0290   -7.4420   -1.2780 N.3   253  GLU253     -0.1245
    112  CA        -2.8000   -8.8320   -0.9010 C.3   253  GLU253      0.1567
    113  C         -4.0430   -9.6810   -1.1120 C.2   253  GLU253      0.2260
    114  O         -3.9610  -10.8100   -1.6140 O.2   253  GLU253     -0.2867
    115  CB        -2.3380   -8.9220    0.5540 C.3   253  GLU253      0.0388
    116  CG        -0.9650   -8.3630    0.7020 C.3   253  GLU253      0.1160
    117  CD        -0.4020   -8.5170    2.0970 C.2   253  GLU253      0.3649
    118  OE1       -0.8540   -9.3940    2.8530 O.co2 253  GLU253     -0.2457
    119  OE2        0.5360   -7.7710    2.4000 O.co2 253  GLU253     -0.2457
@<TRIPOS>BOND
     1    20    21    1
     2   114   113    2
     3    31    32    1
     4   111   112    1
     5   113   112    1
     6   112   115    1
     7    22    21    1
     8    22    23    2
     9    21    24    1
    10    32    33    1
    11    32    35    1
    12    33    34    2
    13    24    25    1
    14   100    99    2
    15   115   116    1
    16   116   117    1
    17    35    36    1
    18    35    37    1
    19    98    97    1
    20    98    99    1
    21    98   101    1
    22    36    38    1
    23   107   106    2
    24    39    40    1
    25    99   104   am
    26   106   105    1
    27   102   101    1
    28   103   101    1
    29    41    40    1
    30    41    42    2
    31    25    26    1
    32   117   119   ar
    33   117   118   ar
    34    40    43    1
    35   104   105    1
    36    54    53    1
    37    26    27    1
    38    18    17    1
    39   105   108    1
    40    43    44    1
    41    12    13    1
    42    55    53    1
    43    13    16    1
    44    13    14    1
    45    53    52    1
    46    16    17    1
    47    44    45    1
    48    17    19    1
    49    27    28    2
    50     1     2    1
    51   108   110    1
    52   108   109    1
    53    45    46    1
    54    29    28    1
    55    15    14    2
    56    92    91    2
    57    28    30    1
    58    52    49    1
    59    46    47    1
    60    91    90    1
    61     2     3    1
    62     2     5    1
    63    89    90    1
    64     3     4    2
    65    90    93    1
    66     6     5    1
    67     6     7    1
    68    49    48    1
    69    49    50    1
    70    50    51    2
    71     7     8    1
    72    93    95    1
    73    93    94    1
    74     8     9    2
    75    94    96    1
    76     9    11    1
    77     9    10    1
    78    81    79   ar
    79    87    86    1
    80    56    57    1
    81    79    78    1
    82    79    80   ar
    83    78    77    1
    84    88    86    1
    85    86    83    1
    86    60    57    1
    87    60    61    1
    88    57    58    1
    89    77    74    1
    90    59    58    2
    91    74    73    1
    92    74    75    1
    93    68    69    1
    94    68    65    1
    95    83    84    1
    96    83    82    1
    97    69    70    1
    98    73    66   am
    99    85    84    2
   100    61    63   ar
   101    61    62   ar
   102    67    66    2
   103    66    65    1
   104    76    75    2
   105    71    70    2
   106    65    64    1
   107    70    72   am
