@<TRIPOS>MOLECULE
tmp/6fpoA00.pdb
 151 143 0 0 0
SMALL
GASTEIGER

@<TRIPOS>ATOM
      1  N         43.6630  123.5120   13.2190 N.3     4  ILE4       -0.1245
      2  CA        42.6970  123.7640   14.3120 C.3     4  ILE4        0.1561
      3  C         43.0980  122.9090   15.5280 C.2     4  ILE4        0.2260
      4  O         43.2820  121.6650   15.3790 O.2     4  ILE4       -0.2867
      5  CB        41.2630  123.4560   13.8940 C.3     4  ILE4        0.0252
      6  CG1       40.2710  123.7360   15.0150 C.3     4  ILE4        0.0019
      7  CG2       41.0760  122.0370   13.5030 C.3     4  ILE4        0.0019
      8  CD1       38.9170  124.2150   14.5940 C.3     4  ILE4        0.0001
      9  N         42.7100  120.5750   18.6620 N.3     6  VAL6       -0.1245
     10  CA        41.7590  119.5670   19.1280 C.3     6  VAL6        0.1561
     11  C         42.2860  118.9210   20.3720 C.2     6  VAL6        0.2260
     12  O         43.4280  118.4690   20.4510 O.2     6  VAL6       -0.2867
     13  CB        41.5200  118.4860   18.0310 C.3     6  VAL6        0.0252
     14  CG1       40.6110  117.3910   18.5450 C.3     6  VAL6        0.0019
     15  CG2       40.9930  119.1070   16.7710 C.3     6  VAL6        0.0019
     16  N         41.2730  115.7510   22.8370 N.3     8  TRP8       -0.1241
     17  CA        40.4680  114.5060   22.8570 C.3     8  TRP8        0.1605
     18  C         40.5960  113.8950   24.2370 C.2     8  TRP8        0.2264
     19  O         41.6640  113.4780   24.6160 O.2     8  TRP8       -0.2867
     20  CB        40.9040  113.5800   21.7590 C.3     8  TRP8        0.0550
     21  CG        40.0020  112.4070   21.4620 C.ar    8  TRP8        0.0003
     22  CD1       39.3770  111.6100   22.3300 C.ar    8  TRP8        0.0946
     23  CD2       39.8100  111.8250   20.1920 C.ar    8  TRP8        0.0152
     24  NE1       38.7170  110.6330   21.6620 N.ar    8  TRP8       -0.2442
     25  CE2       39.0040  110.7080   20.3520 C.ar    8  TRP8        0.0810
     26  CE3       40.2420  112.1690   18.8830 C.ar    8  TRP8        0.0012
     27  CZ2       38.5980  109.8850   19.2980 C.ar    8  TRP8        0.0191
     28  CZ3       39.8430  111.3600   17.8090 C.ar    8  TRP8        0.0001
     29  CH2       39.0240  110.2130   18.0260 C.ar    8  TRP8        0.0015
     30  N         38.5530  105.5060   14.6790 N.3    21  PHE21      -0.1241
     31  CA        39.1510  106.6310   14.0070 C.3    21  PHE21       0.1605
     32  C         40.4050  106.2290   13.2320 C.2    21  PHE21       0.2264
     33  O         40.6110  106.6470   12.0860 O.2    21  PHE21      -0.2867
     34  CB        39.4850  107.7300   15.0590 C.3    21  PHE21       0.0534
     35  CG        40.3630  108.8270   14.5690 C.ar   21  PHE21      -0.0203
     36  CD1       39.9910  109.6850   13.5630 C.ar   21  PHE21      -0.0042
     37  CD2       41.6170  109.0270   15.1120 C.ar   21  PHE21      -0.0042
     38  CE1       40.8130  110.6840   13.1290 C.ar   21  PHE21      -0.0003
     39  CE2       42.4750  110.0340   14.6890 C.ar   21  PHE21      -0.0003
     40  CZ        42.0610  110.8720   13.7020 C.ar   21  PHE21      -0.0000
     41  N         44.2600  118.6550   11.2980 N.3    37  ILE37      -0.1245
     42  CA        43.9860  119.1710   12.6430 C.3    37  ILE37       0.1561
     43  C         45.2880  119.1740   13.3920 C.2    37  ILE37       0.2260
     44  O         46.2930  118.6160   12.9470 O.2    37  ILE37      -0.2867
     45  CB        42.9280  118.3040   13.4040 C.3    37  ILE37       0.0252
     46  CG1       43.4800  116.8730   13.7200 C.3    37  ILE37       0.0019
     47  CG2       41.6250  118.2420   12.6300 C.3    37  ILE37       0.0019
     48  CD1       42.6000  116.0100   14.5450 C.3    37  ILE37       0.0001
     49  N         38.5200  122.6080   19.5150 N.3    69  ILE69      -0.1245
     50  CA        37.4200  121.6420   19.5210 C.3    69  ILE69       0.1561
     51  C         37.6920  120.5860   20.5730 C.2    69  ILE69       0.2260
     52  O         38.8300  120.0920   20.6560 O.2    69  ILE69      -0.2867
     53  CB        37.2820  120.9850   18.1460 C.3    69  ILE69       0.0252
     54  CG1       36.9940  122.0080   17.0540 C.3    69  ILE69       0.0019
     55  CG2       36.2340  119.8690   18.1670 C.3    69  ILE69       0.0019
     56  CD1       35.6680  122.7070   17.2090 C.3    69  ILE69       0.0001
     57  N         36.9220  116.8500   21.5670 N.3    71  ALA71      -0.1245
     58  CA        36.3980  115.5310   21.2680 C.3    71  ALA71       0.1562
     59  C         36.2940  114.7630   22.5790 C.2    71  ALA71       0.2260
     60  O         37.2260  114.7860   23.3860 O.2    71  ALA71      -0.2867
     61  CB        37.3150  114.8030   20.3070 C.3    71  ALA71       0.0290
     62  N         35.1790  125.6210   21.7080 N.3   104  SER104     -0.1202
     63  CA        34.1840  126.2430   20.8390 C.3   104  SER104      0.2020
     64  C         33.0310  125.3380   20.5060 C.2   104  SER104      0.2618
     65  O         31.9120  125.8260   20.2630 O.2   104  SER104     -0.2717
     66  CB        34.8100  126.7820   19.6200 C.3   104  SER104      0.2103
     67  OG        35.2430  125.7700   18.8120 O.3   104  SER104     -0.2182
     68  N         33.2840  124.0280   20.4480 N.am  105  ALA105     -0.1979
     69  CA        32.3010  123.0260   20.1560 C.3   105  ALA105      0.1597
     70  C         32.8270  121.7010   20.6510 C.2   105  ALA105      0.2287
     71  O         34.0260  121.5490   20.8480 O.2   105  ALA105     -0.2864
     72  CB        31.9410  122.9660   18.6950 C.3   105  ALA105      0.0319
     73  N         32.5210  117.3930   20.0970 N.3   107  ILE107     -0.1245
     74  CA        32.1230  116.2040   19.3580 C.3   107  ILE107      0.1561
     75  C         32.0220  115.0670   20.3340 C.2   107  ILE107      0.2260
     76  O         33.0070  114.7130   20.9860 O.2   107  ILE107     -0.2867
     77  CB        33.0870  115.8490   18.2130 C.3   107  ILE107      0.0252
     78  CG1       33.4400  117.0630   17.3420 C.3   107  ILE107      0.0019
     79  CG2       32.5270  114.7040   17.4200 C.3   107  ILE107      0.0019
     80  CD1       32.3370  117.8220   16.7060 C.3   107  ILE107      0.0001
     81  N         31.8560  111.5140   20.4530 N.3   109  TRP109     -0.1241
     82  CA        32.0520  110.3120   19.6670 C.3   109  TRP109      0.1605
     83  C         31.4230  109.1180   20.3520 C.2   109  TRP109      0.2264
     84  O         31.7110  108.8720   21.5170 O.2   109  TRP109     -0.2867
     85  CB        33.5330  110.0040   19.4760 C.3   109  TRP109      0.0550
     86  CG        34.3430  110.9800   18.7140 C.ar  109  TRP109      0.0003
     87  CD1       35.4890  111.5820   19.1670 C.ar  109  TRP109      0.0946
     88  CD2       34.2000  111.3700   17.3330 C.ar  109  TRP109      0.0152
     89  NE1       36.0660  112.2960   18.1600 N.ar  109  TRP109     -0.2442
     90  CE2       35.3080  112.1740   17.0180 C.ar  109  TRP109      0.0810
     91  CE3       33.3020  111.1010   16.3250 C.ar  109  TRP109      0.0012
     92  CZ2       35.4880  112.7370   15.7370 C.ar  109  TRP109      0.0191
     93  CZ3       33.5290  111.6260   15.0800 C.ar  109  TRP109      0.0001
     94  CH2       34.5690  112.4290   14.7970 C.ar  109  TRP109      0.0015
     95  N         27.7790  123.7800   22.0040 N.3   139  PRO139     -0.2116
     96  CA        27.3520  122.9380   20.9040 C.3   139  PRO139      0.1372
     97  C         27.9460  121.5300   21.0790 C.2   139  PRO139      0.2244
     98  O         29.1500  121.4040   21.2470 O.2   139  PRO139     -0.2868
     99  CB        27.9670  123.6190   19.6650 C.3   139  PRO139      0.0268
    100  CG        28.3380  124.9910   20.1120 C.3   139  PRO139      0.0207
    101  CD        28.6130  124.9020   21.5520 C.3   139  PRO139      0.0892
    102  N         34.9800  114.9560   10.3110 N.3   157  ILE157     -0.1245
    103  CA        36.1330  115.8260   10.5680 C.3   157  ILE157      0.1561
    104  C         36.4590  116.6700    9.3370 C.2   157  ILE157      0.2260
    105  O         36.6450  117.8990    9.4270 O.2   157  ILE157     -0.2867
    106  CB        37.3350  115.0030   11.0380 C.3   157  ILE157      0.0252
    107  CG1       37.0910  114.3560   12.3760 C.3   157  ILE157      0.0019
    108  CG2       38.5650  115.9140   11.1010 C.3   157  ILE157      0.0019
    109  CD1       38.0880  113.2760   12.7340 C.3   157  ILE157      0.0001
    110  N         33.9820  119.4660    8.6630 N.3   160  MET160     -0.1230
    111  CA        34.1230  120.6260    9.5320 C.3   160  MET160      0.1702
    112  C         35.3310  121.4480    9.1340 C.2   160  MET160      0.2592
    113  O         35.2850  122.6830    9.1200 O.2   160  MET160     -0.2718
    114  CB        34.1990  120.1820   10.9510 C.3   160  MET160      0.0401
    115  CG        32.8800  119.6120   11.4560 C.3   160  MET160      0.0596
    116  SD        32.8020  119.2440   13.1980 S.3   160  MET160     -0.1393
    117  CE        33.8430  117.9140   13.2850 C.3   160  MET160      0.0692
    118  N         36.4650  120.8060    8.8540 N.am  161  VAL161     -0.1980
    119  CA        37.6680  121.5310    8.4520 C.3   161  VAL161      0.1595
    120  C         37.4680  122.2660    7.1420 C.2   161  VAL161      0.2287
    121  O         37.8400  123.4660    7.0220 O.2   161  VAL161     -0.2864
    122  CB        38.8910  120.5900    8.4270 C.3   161  VAL161      0.0276
    123  CG1       40.1180  121.3510    7.8700 C.3   161  VAL161      0.0022
    124  CG2       39.2310  120.0570    9.7770 C.3   161  VAL161      0.0022
    125  N         34.4250  124.7430    7.4020 N.3   164  ASP164     -0.1225
    126  CA        34.5220  125.6920    8.5030 C.3   164  ASP164      0.1805
    127  C         33.1750  125.8730    9.2040 C.2   164  ASP164      0.2598
    128  O         32.8060  127.0250    9.5500 O.2   164  ASP164     -0.2718
    129  CB        35.1860  127.0190    8.1140 C.3   164  ASP164      0.1424
    130  CG        35.6700  127.7690    9.2830 C.2   164  ASP164      0.3668
    131  OD1       36.0400  127.1520   10.2970 O.co2 164  ASP164     -0.2456
    132  OD2       35.6660  129.0090    9.2030 O.co2 164  ASP164     -0.2456
    133  N         32.4560  124.7770    9.4290 N.am  165  ARG165     -0.1966
    134  CA        31.1360  124.8140   10.0120 C.3   165  ARG165      0.1729
    135  C         30.8790  123.4930   10.6770 C.2   165  ARG165      0.2616
    136  O         31.3990  122.4810   10.2440 O.2   165  ARG165     -0.2715
    137  CB        30.0420  125.0850    8.9800 C.3   165  ARG165      0.0348
    138  CG        30.0640  124.3240    7.7040 C.3   165  ARG165      0.0492
    139  CD        29.2690  125.0900    6.6010 C.3   165  ARG165      0.2205
    140  NE        30.1330  125.7410    5.6540 N.pl3 165  ARG165     -0.0865
    141  CZ        29.8880  125.9580    4.3470 C.cat 165  ARG165      0.5346
    142  NH1       28.7240  125.6670    3.7280 N.pl3 165  ARG165      0.1354
    143  NH2       30.8610  126.4720    3.6180 N.pl3 165  ARG165      0.1354
    144  N         29.9980  123.4910   11.6840 N.am  166  LEU166     -0.1977
    145  CA        29.4880  122.2330   12.2040 C.3   166  LEU166      0.1596
    146  C         28.5090  121.6070   11.1980 C.2   166  LEU166      0.2287
    147  O         27.8040  122.3300   10.4950 O.2   166  LEU166     -0.2864
    148  CB        28.8230  122.4470   13.5690 C.3   166  LEU166      0.0297
    149  CG        29.6930  123.0130   14.6500 C.3   166  LEU166      0.0022
    150  CD1       28.9010  123.2750   15.9170 C.3   166  LEU166      0.0001
    151  CD2       30.9290  122.1810   14.9600 C.3   166  LEU166      0.0001
@<TRIPOS>BOND
     1   143   141    1
     2   142   141    1
     3   141   140    2
     4   140   139    1
     5   139   138    1
     6   121   120    2
     7   120   119    1
     8   125   126    1
     9   138   137    1
    10   123   122    1
    11   129   126    1
    12   129   130    1
    13   122   119    1
    14   122   124    1
    15   119   118    1
    16   126   127    1
    17   110   111    1
    18   118   112   am
    19   137   134    1
    20   113   112    2
    21   112   111    1
    22   132   130   ar
    23   127   133   am
    24   127   128    2
    25   130   131   ar
    26   104   105    2
    27   104   103    1
    28   133   134    1
    29   111   114    1
    30   134   135    1
    31   136   135    2
    32   102   103    1
    33   147   146    2
    34   103   106    1
    35   135   144   am
    36   114   115    1
    37   106   108    1
    38   106   107    1
    39   146   145    1
    40    41    42    1
    41   115   116    1
    42   144   145    1
    43    33    32    2
    44   145   148    1
    45   107   109    1
    46    47    45    1
    47    42    43    1
    48    42    45    1
    49    44    43    2
    50    38    36   ar
    51    38    40   ar
    52   116   117    1
    53     1     2    1
    54    32    31    1
    55    45    46    1
    56     7     5    1
    57    36    35   ar
    58   148   149    1
    59    40    39   ar
    60    46    48    1
    61     5     2    1
    62     5     6    1
    63    31    30    1
    64    31    34    1
    65     2     3    1
    66    35    34    1
    67    35    37   ar
    68     8     6    1
    69   149   151    1
    70   149   150    1
    71    39    37   ar
    72    94    93   ar
    73    94    92   ar
    74    93    91   ar
    75     4     3    2
    76    92    90   ar
    77    91    88   ar
    78    80    78    1
    79    15    13    1
    80    90    88   ar
    81    90    89   ar
    82    54    56    1
    83    54    53    1
    84    88    86   ar
    85    78    77    1
    86    79    77    1
    87    28    29   ar
    88    28    26   ar
    89    29    27   ar
    90    13    14    1
    91    13    10    1
    92    53    55    1
    93    53    50    1
    94    89    87   ar
    95    77    74    1
    96     9    10    1
    97    72    69    1
    98    86    87   ar
    99    86    85    1
   100    67    66    1
   101    26    23   ar
   102    10    11    1
   103    27    25   ar
   104    74    73    1
   105    74    75    1
   106    85    82    1
   107    49    50    1
   108    50    51    1
   109    66    63    1
   110    99   100    1
   111    99    96    1
   112    82    83    1
   113    82    81    1
   114   100   101    1
   115    69    68    1
   116    69    70    1
   117    23    25   ar
   118    23    21   ar
   119    65    64    2
   120    61    58    1
   121    75    76    2
   122    25    24   ar
   123    83    84    2
   124    11    12    2
   125    68    64   am
   126    64    63    1
   127    51    52    2
   128    70    71    2
   129    63    62    1
   130    96    97    1
   131    96    95    1
   132    97    98    2
   133    58    57    1
   134    58    59    1
   135    21    20    1
   136    21    22   ar
   137   101    95    1
   138    24    22   ar
   139    20    17    1
   140    59    60    2
   141    16    17    1
   142    17    18    1
   143    18    19    2
