@<TRIPOS>MOLECULE
tmp/6fpuA00.pdb
 114 106 0 0 0
SMALL
GASTEIGER

@<TRIPOS>ATOM
      1  N          9.3330   11.7820   22.3620 N.3    92  ASP92      -0.1225
      2  CA        10.1060   12.8390   22.9830 C.3    92  ASP92       0.1805
      3  C          9.2250   13.5320   24.0210 C.2    92  ASP92       0.2598
      4  O          8.0020   13.4680   23.9650 O.2    92  ASP92      -0.2718
      5  CB        10.6470   13.8090   21.9290 C.3    92  ASP92       0.1424
      6  CG        11.8260   14.6340   22.4400 C.2    92  ASP92       0.3668
      7  OD1       12.2100   14.4800   23.6320 O.co2  92  ASP92      -0.2456
      8  OD2       12.3810   15.4100   21.6380 O.co2  92  ASP92      -0.2456
      9  N          9.8670   14.1540   25.0040 N.am   93  SER93      -0.1952
     10  CA         9.1950   14.5850   26.2200 C.3    93  SER93       0.1924
     11  C          8.5980   15.9770   26.1240 C.2    93  SER93       0.2314
     12  O          7.8690   16.3890   27.0350 O.2    93  SER93      -0.2863
     13  CB        10.2060   14.6020   27.3530 C.3    93  SER93       0.2116
     14  OG        11.2940   15.4180   26.9680 O.3    93  SER93      -0.2180
     15  N         12.4810   19.8700   24.2020 N.3    96  TYR96      -0.1227
     16  CA        13.1060   20.7050   23.1980 C.3    96  TYR96       0.1736
     17  C         12.0670   21.4390   22.3720 C.2    96  TYR96       0.2595
     18  O         12.2020   22.6410   22.1370 O.2    96  TYR96      -0.2718
     19  CB        14.0370   19.8830   22.3180 C.3    96  TYR96       0.0548
     20  CG        14.8540   20.7470   21.3900 C.ar   96  TYR96      -0.0200
     21  CD1       15.1210   22.0880   21.6940 C.ar   96  TYR96      -0.0009
     22  CD2       15.3350   20.2420   20.2010 C.ar   96  TYR96      -0.0009
     23  CE1       15.8580   22.8770   20.8460 C.ar   96  TYR96       0.0417
     24  CE2       16.0740   21.0220   19.3390 C.ar   96  TYR96       0.0417
     25  CZ        16.3280   22.3430   19.6650 C.ar   96  TYR96       0.1957
     26  OH        17.0610   23.1370   18.8290 O.3    96  TYR96      -0.2866
     27  N         11.0280   20.7310   21.9290 N.am   97  GLN97      -0.1979
     28  CA        10.0330   21.3570   21.0670 C.3    97  GLN97       0.1601
     29  C          9.3490   22.5310   21.7550 C.2    97  GLN97       0.2287
     30  O          9.0390   23.5310   21.1040 O.2    97  GLN97      -0.2864
     31  CB         9.0050   20.3280   20.5980 C.3    97  GLN97       0.0394
     32  CG         9.5930   19.3390   19.6140 C.3    97  GLN97       0.0908
     33  CD        10.0840   19.9940   18.3240 C.2    97  GLN97       0.2608
     34  OE1        9.7600   21.1420   18.0070 O.2    97  GLN97      -0.2717
     35  NE2       10.8690   19.2520   17.5720 N.am   97  GLN97      -0.0878
     36  N         13.4190   17.2870   29.8080 N.3   142  ASP142     -0.1239
     37  CA        14.7050   17.9480   29.9410 C.3   142  ASP142      0.1674
     38  C         14.6460   19.3440   29.3570 C.2   142  ASP142      0.2266
     39  O         13.5840   19.8280   28.9630 O.2   142  ASP142     -0.2867
     40  CB        15.7720   17.1550   29.1830 C.3   142  ASP142      0.1410
     41  CG        15.5370   17.1320   27.6840 C.2   142  ASP142      0.3668
     42  OD1       14.3570   17.1570   27.2730 O.co2 142  ASP142     -0.2456
     43  OD2       16.5390   17.1130   26.9270 O.co2 142  ASP142     -0.2456
     44  N         16.9530   21.4540   26.4100 N.3   144  CYS144     -0.1235
     45  CA        18.0120   21.3890   25.4090 C.3   144  CYS144      0.1677
     46  C         18.7230   22.7410   25.4020 C.2   144  CYS144      0.2270
     47  O         18.1900   23.7330   24.9010 O.2   144  CYS144     -0.2867
     48  CB        17.4200   21.0710   24.0420 C.3   144  CYS144      0.0956
     49  SG        18.6670   21.0080   22.7290 S.3   144  CYS144     -0.0801
     50  N         18.1910   11.7610   29.5790 N.3   187  ILE187     -0.1245
     51  CA        18.8120   12.5720   28.5320 C.3   187  ILE187      0.1561
     52  C         20.0140   13.3100   29.1180 C.2   187  ILE187      0.2260
     53  O         19.8620   14.1810   29.9830 O.2   187  ILE187     -0.2867
     54  CB        17.8370   13.5640   27.8850 C.3   187  ILE187      0.0252
     55  CG1       16.6010   12.8280   27.3600 C.3   187  ILE187      0.0019
     56  CG2       18.5500   14.3160   26.7610 C.3   187  ILE187      0.0019
     57  CD1       15.4880   13.7410   26.8810 C.3   187  ILE187      0.0001
     58  N         22.8320   16.0620   29.1770 N.3   189  GLN189     -0.1245
     59  CA        23.0500   17.4240   28.6920 C.3   189  GLN189      0.1566
     60  C         24.4770   17.8410   29.0380 C.2   189  GLN189      0.2260
     61  O         25.3140   16.9800   29.3130 O.2   189  GLN189     -0.2867
     62  CB        21.9720   18.3770   29.2370 C.3   189  GLN189      0.0367
     63  CG        20.5470   18.0440   28.7260 C.3   189  GLN189      0.0905
     64  CD        20.3240   18.3390   27.2700 C.2   189  GLN189      0.2608
     65  OE1       21.1060   19.0350   26.6280 O.2   189  GLN189     -0.2717
     66  NE2       19.2310   17.8210   26.7390 N.am  189  GLN189     -0.0878
     67  N         21.4650   14.2680   24.5640 N.3   215  GLY215     -0.1210
     68  CA        20.7470   15.4580   24.1800 C.3   215  GLY215      0.1956
     69  C         21.6910   16.6160   23.9070 C.2   215  GLY215      0.2612
     70  O         22.9060   16.5310   24.0810 O.2   215  GLY215     -0.2717
     71  N         21.1030   17.7280   23.4830 N.am  216  GLY216     -0.1942
     72  CA        21.8420   18.9610   23.3400 C.3   216  GLY216      0.2014
     73  C         22.7600   19.0150   22.1460 C.2   216  GLY216      0.2639
     74  O         23.5940   19.9190   22.0800 O.2   216  GLY216     -0.2714
     75  N         22.6410   18.0810   21.2110 N.am  217  LEU217     -0.1963
     76  CA        23.4190   18.1050   19.9870 C.3   217  LEU217      0.1728
     77  C         22.4620   18.2270   18.8100 C.2   217  LEU217      0.2616
     78  O         21.2450   18.2650   18.9750 O.2   217  LEU217     -0.2715
     79  CB        24.3310   16.8750   19.8740 C.3   217  LEU217      0.0311
     80  CG        25.4200   16.8260   20.9590 C.3   217  LEU217      0.0022
     81  CD1       26.1970   15.5340   20.8070 C.3   217  LEU217      0.0001
     82  CD2       26.3510   18.0450   20.9000 C.3   217  LEU217      0.0001
     83  N         23.0220   18.3160   17.6130 N.am  218  ALA218     -0.1963
     84  CA        22.2310   18.6450   16.4390 C.3   218  ALA218      0.1728
     85  C         21.4390   19.9230   16.7000 C.2   218  ALA218      0.2616
     86  O         20.2240   19.9960   16.4960 O.2   218  ALA218     -0.2715
     87  CB        21.3200   17.4850   16.0270 C.3   218  ALA218      0.0334
     88  N         22.1620   20.9340   17.1810 N.am  219  VAL219     -0.1977
     89  CA        21.6170   22.2380   17.5560 C.3   219  VAL219      0.1596
     90  C         22.3910   23.3590   16.8760 C.2   219  VAL219      0.2287
     91  O         22.3850   24.5060   17.3470 O.2   219  VAL219     -0.2864
     92  CB        21.6300   22.4290   19.0820 C.3   219  VAL219      0.0276
     93  CG1       20.5880   21.5470   19.7300 C.3   219  VAL219      0.0022
     94  CG2       23.0200   22.1550   19.6540 C.3   219  VAL219      0.0022
     95  N         19.6930   12.1240   19.8750 N.3   246  MET246     -0.1230
     96  CA        18.4290   12.7520   19.5010 C.3   246  MET246      0.1702
     97  C         18.6040   13.6960   18.3160 C.2   246  MET246      0.2592
     98  O         19.4550   14.5860   18.3320 O.2   246  MET246     -0.2718
     99  CB        17.8410   13.4970   20.6900 C.3   246  MET246      0.0401
    100  CG        17.8130   12.6520   21.9610 C.3   246  MET246      0.0596
    101  SD        16.7840   13.3610   23.2610 S.3   246  MET246     -0.1393
    102  CE        15.1710   13.0000   22.5750 C.3   246  MET246      0.0692
    103  N         17.7720   13.5070   17.3000 N.am  247  GLY247     -0.1957
    104  CA        17.6930   14.4080   16.1700 C.3   247  GLY247      0.1869
    105  C         18.6790   14.1620   15.0470 C.2   247  GLY247      0.2309
    106  O         18.6710   14.9210   14.0700 O.2   247  GLY247     -0.2863
    107  N         16.9110    9.3380   15.3890 N.3   266  ASP266     -0.1239
    108  CA        15.6900    9.8250   14.7570 C.3   266  ASP266      0.1674
    109  C         16.0380   11.0840   13.9900 C.2   266  ASP266      0.2266
    110  O         16.9010   11.8550   14.4050 O.2   266  ASP266     -0.2867
    111  CB        14.5960   10.1950   15.7670 C.3   266  ASP266      0.1410
    112  CG        14.9040   11.4840   16.4980 C.2   266  ASP266      0.3668
    113  OD1       15.6510   11.4360   17.4950 O.co2 266  ASP266     -0.2456
    114  OD2       14.4120   12.5490   16.0750 O.co2 266  ASP266     -0.2456
@<TRIPOS>BOND
     1   109   110    2
     2   109   108    1
     3   106   105    2
     4   108   107    1
     5   108   111    1
     6   105   104    1
     7   111   112    1
     8    87    84    1
     9   114   112   ar
    10   104   103    1
    11    84    85    1
    12    84    83    1
    13    86    85    2
    14   112   113   ar
    15    85    88   am
    16    90    91    2
    17    90    89    1
    18    88    89    1
    19   103    97   am
    20    89    92    1
    21    35    33   am
    22    83    77   am
    23    34    33    2
    24    97    98    2
    25    97    96    1
    26    33    32    1
    27    77    78    2
    28    77    76    1
    29    26    25    1
    30    92    94    1
    31    92    93    1
    32    24    25   ar
    33    24    22   ar
    34    96    95    1
    35    96    99    1
    36    32    31    1
    37    25    23   ar
    38    79    76    1
    39    79    80    1
    40    76    75    1
    41    22    20   ar
    42    31    28    1
    43    99   100    1
    44    81    80    1
    45    23    21   ar
    46    82    80    1
    47    28    29    1
    48    28    27    1
    49    30    29    2
    50    75    73   am
    51    20    21   ar
    52    20    19    1
    53     8     6   ar
    54    27    17   am
    55     5     6    1
    56     5     2    1
    57   100   101    1
    58    74    73    2
    59    18    17    2
    60    73    72    1
    61    19    16    1
    62     1     2    1
    63    17    16    1
    64     6     7   ar
    65   102   101    1
    66    49    48    1
    67     2     3    1
    68    16    15    1
    69    72    71    1
    70    71    69   am
    71    69    70    2
    72    69    68    1
    73     4     3    2
    74     3     9   am
    75    48    45    1
    76    68    67    1
    77    47    46    2
    78     9    10    1
    79    46    45    1
    80    45    44    1
    81    11    10    1
    82    11    12    2
    83    10    13    1
    84    65    64    2
    85    66    64   am
    86    56    54    1
    87    57    55    1
    88    43    41   ar
    89    14    13    1
    90    64    63    1
    91    42    41   ar
    92    55    54    1
    93    41    40    1
    94    54    51    1
    95    51    52    1
    96    51    50    1
    97    59    60    1
    98    59    58    1
    99    59    62    1
   100    63    62    1
   101    39    38    2
   102    60    61    2
   103    52    53    2
   104    40    37    1
   105    38    37    1
   106    36    37    1
