@<TRIPOS>MOLECULE
tmp/6fqbD00.pdb
 132 126 0 0 0
SMALL
GASTEIGER

@<TRIPOS>ATOM
      1  N        -60.8160   -4.3760    1.2470 N.3    30  TYR30      -0.1241
      2  CA       -60.2530   -5.6130    0.6860 C.3    30  TYR30       0.1605
      3  C        -60.9880   -6.1470   -0.5410 C.2    30  TYR30       0.2264
      4  O        -60.9690   -7.3580   -0.8390 O.2    30  TYR30      -0.2867
      5  CB       -60.0180   -6.6470    1.8110 C.3    30  TYR30       0.0534
      6  CG       -58.9800   -6.1300    2.8220 C.ar   30  TYR30      -0.0201
      7  CD1      -57.6500   -5.8710    2.4190 C.ar   30  TYR30      -0.0009
      8  CD2      -59.3250   -5.8610    4.1650 C.ar   30  TYR30      -0.0009
      9  CE1      -56.7040   -5.3870    3.3090 C.ar   30  TYR30       0.0417
     10  CE2      -58.3750   -5.3690    5.0700 C.ar   30  TYR30       0.0417
     11  CZ       -57.0630   -5.1410    4.6360 C.ar   30  TYR30       0.1957
     12  OH       -56.1010   -4.6660    5.4970 O.3    30  TYR30      -0.2866
     13  N        -66.7720   -6.6740    4.9660 N.3    73  GLY73      -0.1210
     14  CA       -65.7160   -6.5990    5.9830 C.3    73  GLY73       0.1956
     15  C        -65.1830   -5.1730    6.0750 C.2    73  GLY73       0.2612
     16  O        -65.2380   -4.4300    5.0860 O.2    73  GLY73      -0.2717
     17  N        -64.6680   -4.7990    7.2520 N.am   74  GLY74      -0.1956
     18  CA       -63.9880   -3.5090    7.4290 C.3    74  GLY74       0.1869
     19  C        -62.7540   -3.4900    8.3210 C.2    74  GLY74       0.2309
     20  O        -62.3140   -4.5150    8.8270 O.2    74  GLY74      -0.2863
     21  N        -60.6220   -2.6110   11.7680 N.3    76  ASP76      -0.1239
     22  CA       -60.9720   -2.8950   13.1580 C.3    76  ASP76       0.1674
     23  C        -61.7040   -1.7680   13.8460 C.2    76  ASP76       0.2266
     24  O        -62.7130   -2.0040   14.5170 O.2    76  ASP76      -0.2867
     25  CB       -59.7410   -3.3180   13.9680 C.3    76  ASP76       0.1410
     26  CG       -59.3920   -4.7940   13.7430 C.2    76  ASP76       0.3668
     27  OD1      -60.1470   -5.7020   14.2350 O.co2  76  ASP76      -0.2456
     28  OD2      -58.3760   -5.0240   13.0500 O.co2  76  ASP76      -0.2456
     29  N        -65.2180   -1.1510   12.4750 N.3    79  GLN79      -0.1245
     30  CA       -66.0480   -2.2840   12.8900 C.3    79  GLN79       0.1566
     31  C        -66.5430   -2.1780   14.3560 C.2    79  GLN79       0.2260
     32  O        -67.6790   -2.5450   14.6480 O.2    79  GLN79      -0.2867
     33  CB       -65.2830   -3.5970   12.6450 C.3    79  GLN79       0.0367
     34  CG       -66.1210   -4.8630   12.6680 C.3    79  GLN79       0.0905
     35  CD       -65.3310   -6.1000   12.2490 C.2    79  GLN79       0.2608
     36  OE1      -64.6840   -6.1220   11.1820 O.2    79  GLN79      -0.2717
     37  NE2      -65.3960   -7.1530   13.0780 N.am   79  GLN79      -0.0878
     38  N        -66.5360  -11.6640    6.2740 N.3   107  CYS107     -0.1221
     39  CA       -65.5480  -11.2630    7.2580 C.3   107  CYS107      0.1808
     40  C        -66.2220  -10.5580    8.4400 C.2   107  CYS107      0.2601
     41  O        -67.0900  -11.1620    9.0620 O.2   107  CYS107     -0.2717
     42  CB       -64.4850  -10.4300    6.5890 C.3   107  CYS107      0.0970
     43  SG       -63.4700  -11.3750    5.4570 S.3   107  CYS107     -0.0800
     44  N        -65.8900   -9.2910    8.7150 N.am  108  GLY108     -0.1957
     45  CA       -66.4780   -8.5700    9.8420 C.3   108  GLY108      0.1869
     46  C        -68.0040   -8.6120    9.9000 C.2   108  GLY108      0.2309
     47  O        -68.5910   -8.7120   10.9850 O.2   108  GLY108     -0.2863
     48  N        -69.0750  -11.9490   11.1910 N.3   111  GLN111     -0.1245
     49  CA       -68.7590  -12.0400   12.6240 C.3   111  GLN111      0.1566
     50  C        -69.8000  -11.3300   13.4660 C.2   111  GLN111      0.2260
     51  O        -70.1970  -11.8200   14.5340 O.2   111  GLN111     -0.2867
     52  CB       -67.3840  -11.4220   12.9140 C.3   111  GLN111      0.0367
     53  CG       -66.2010  -12.1540   12.2930 C.3   111  GLN111      0.0905
     54  CD       -64.8540  -11.5580   12.6630 C.2   111  GLN111      0.2608
     55  OE1      -64.7460  -10.3950   13.0820 O.2   111  GLN111     -0.2717
     56  NE2      -63.8120  -12.3570   12.5110 N.am  111  GLN111     -0.0878
     57  N        -67.5140  -11.1860   18.8350 N.3   117  TYR117     -0.1241
     58  CA       -66.2230  -11.4730   18.2620 C.3   117  TYR117      0.1605
     59  C        -65.2120  -10.8490   19.1620 C.2   117  TYR117      0.2264
     60  O        -65.4950   -9.8200   19.7740 O.2   117  TYR117     -0.2867
     61  CB       -66.0870  -10.9540   16.8170 C.3   117  TYR117      0.0534
     62  CG       -65.8480   -9.4620   16.6100 C.ar  117  TYR117     -0.0201
     63  CD1      -64.5600   -8.9570   16.4170 C.ar  117  TYR117     -0.0009
     64  CD2      -66.9200   -8.5700   16.5380 C.ar  117  TYR117     -0.0009
     65  CE1      -64.3490   -7.6000   16.1990 C.ar  117  TYR117      0.0417
     66  CE2      -66.7200   -7.2110   16.3200 C.ar  117  TYR117      0.0417
     67  CZ       -65.4410   -6.7240   16.1600 C.ar  117  TYR117      0.1957
     68  OH       -65.2540   -5.3710   15.9550 O.3   117  TYR117     -0.2866
     69  N        -52.7050  -15.7720   12.0300 N.3   142  ARG142     -0.1245
     70  CA       -53.8420  -15.6370   11.1100 C.3   142  ARG142      0.1563
     71  C        -54.0230  -16.9060   10.2790 C.2   142  ARG142      0.2260
     72  O        -53.0490  -17.6300   10.0100 O.2   142  ARG142     -0.2867
     73  CB       -53.6100  -14.4590   10.1590 C.3   142  ARG142      0.0307
     74  CG       -53.5590  -13.1020   10.8380 C.3   142  ARG142      0.0489
     75  CD       -53.4630  -11.9320    9.8400 C.3   142  ARG142      0.2205
     76  NE       -54.7650  -11.5000    9.3280 N.pl3 142  ARG142     -0.0865
     77  CZ       -55.6900  -10.8360   10.0310 C.cat 142  ARG142      0.5346
     78  NH1      -55.4950  -10.4970   11.3150 N.pl3 142  ARG142      0.1354
     79  NH2      -56.8450  -10.5080    9.4540 N.pl3 142  ARG142      0.1354
     80  N        -58.2440  -14.7540    4.9460 N.3   163  ASN163     -0.1225
     81  CA       -57.2180  -14.0600    5.7030 C.3   163  ASN163      0.1785
     82  C        -57.8290  -13.4790    6.9470 C.2   163  ASN163      0.2597
     83  O        -58.3880  -12.3980    6.8820 O.2   163  ASN163     -0.2718
     84  CB       -56.6110  -12.9440    4.8500 C.3   163  ASN163      0.1169
     85  CG       -55.3910  -12.3280    5.4920 C.2   163  ASN163      0.2627
     86  OD1      -55.3090  -12.1700    6.7380 O.2   163  ASN163     -0.2716
     87  ND2      -54.4220  -11.9670    4.6450 N.am  163  ASN163     -0.0877
     88  N        -57.7390  -14.1880    8.0730 N.am  164  HIS164     -0.1961
     89  CA       -58.4380  -13.7590    9.2880 C.3   164  HIS164      0.1787
     90  C        -57.9080  -14.3200   10.5820 C.2   164  HIS164      0.2620
     91  O        -57.5570  -15.4940   10.6660 O.2   164  HIS164     -0.2715
     92  CB       -59.9440  -14.0410    9.1990 C.3   164  HIS164      0.0785
     93  CG       -60.3170  -15.4850    9.0210 C.ar  164  HIS164      0.0821
     94  ND1      -60.6840  -16.2880   10.0770 N.ar  164  HIS164     -0.2267
     95  CD2      -60.4600  -16.2400    7.9040 C.ar  164  HIS164      0.1154
     96  CE1      -61.0000  -17.4860    9.6220 C.ar  164  HIS164      0.1986
     97  NE2      -60.8720  -17.4840    8.3070 N.ar  164  HIS164     -0.2212
     98  N        -57.9590  -13.5160   11.6120 N.am  165  GLN165     -0.1963
     99  CA       -57.4950  -13.9470   12.8880 C.3   165  GLN165      0.1733
    100  C        -58.6080  -14.6160   13.6130 C.2   165  GLN165      0.2616
    101  O        -58.3940  -15.5520   14.3300 O.2   165  GLN165     -0.2715
    102  CB       -57.0540  -12.7400   13.6830 C.3   165  GLN165      0.0408
    103  CG       -58.1880  -11.9580   14.2940 C.3   165  GLN165      0.0908
    104  CD       -58.3820  -12.2780   15.7440 C.2   165  GLN165      0.2608
    105  OE1      -57.4870  -12.7870   16.3950 O.2   165  GLN165     -0.2717
    106  NE2      -59.5590  -11.9860   16.2580 N.am  165  GLN165     -0.0878
    107  N        -59.8180  -14.1480   13.3990 N.am  166  GLY166     -0.1955
    108  CA       -60.9690  -14.6670   14.1320 C.3   166  GLY166      0.1869
    109  C        -61.2250  -16.1370   13.9060 C.2   166  GLY166      0.2309
    110  O        -61.0460  -16.6370   12.7950 O.2   166  GLY166     -0.2863
    111  N        -65.7210  -16.0680    5.1620 N.3   204  TYR204     -0.1241
    112  CA       -64.5100  -15.2440    5.2970 C.3   204  TYR204      0.1605
    113  C        -63.7670  -15.0710    3.9540 C.2   204  TYR204      0.2264
    114  O        -62.6340  -14.5510    3.9250 O.2   204  TYR204     -0.2867
    115  CB       -63.5490  -15.8900    6.2890 C.3   204  TYR204      0.0534
    116  CG       -63.8550  -15.7150    7.7460 C.ar  204  TYR204     -0.0201
    117  CD1      -63.5130  -14.5600    8.3910 C.ar  204  TYR204     -0.0009
    118  CD2      -64.3970  -16.7460    8.5020 C.ar  204  TYR204     -0.0009
    119  CE1      -63.7330  -14.3990    9.7420 C.ar  204  TYR204      0.0417
    120  CE2      -64.6260  -16.5970    9.8590 C.ar  204  TYR204      0.0417
    121  CZ       -64.2780  -15.4140   10.4700 C.ar  204  TYR204      0.1957
    122  OH       -64.4770  -15.2150   11.8040 O.3   204  TYR204     -0.2866
    123  N        -62.3580  -13.8160    0.6400 N.3   206  HIS206     -0.1241
    124  CA       -62.0640  -12.6660   -0.2100 C.3   206  HIS206      0.1621
    125  C        -62.0660  -13.1370   -1.6670 C.2   206  HIS206      0.2264
    126  O        -62.2460  -14.3290   -1.9440 O.2   206  HIS206     -0.2867
    127  CB       -60.7330  -12.0230    0.1810 C.3   206  HIS206      0.0745
    128  CG       -60.7290  -11.4610    1.5650 C.ar  206  HIS206      0.0817
    129  ND1      -61.4170  -10.3170    1.8990 N.ar  206  HIS206     -0.2268
    130  CD2      -60.1330  -11.8900    2.7030 C.ar  206  HIS206      0.1154
    131  CE1      -61.2430  -10.0620    3.1860 C.ar  206  HIS206      0.1986
    132  NE2      -60.4660  -11.0010    3.6960 N.ar  206  HIS206     -0.2212
@<TRIPOS>BOND
     1   126   125    2
     2   125   124    1
     3     4     3    2
     4     3     2    1
     5   124   127    1
     6   124   123    1
     7   127   128    1
     8     2     1    1
     9     2     5    1
    10   128   129   ar
    11   128   130   ar
    12     5     6    1
    13   129   131   ar
    14     7     6   ar
    15     7     9   ar
    16   130   132   ar
    17     6     8   ar
    18   131   132   ar
    19     9    11   ar
    20   114   113    2
    21   113   112    1
    22     8    10   ar
    23    11    10   ar
    24    11    12    1
    25    87    85   am
    26    84    85    1
    27    84    81    1
    28    80    81    1
    29    13    14    1
    30    16    15    2
    31   111   112    1
    32   112   115    1
    33    43    42    1
    34    85    86    2
    35    81    82    1
    36    14    15    1
    37    15    17   am
    38    38    39    1
    39   115   116    1
    40    42    39    1
    41    83    82    2
    42    82    88   am
    43    17    18    1
    44    39    40    1
    45    18    19    1
    46   116   117   ar
    47   116   118   ar
    48    95    97   ar
    49    95    93   ar
    50    88    89    1
    51    97    96   ar
    52    19    20    2
    53   117   119   ar
    54    40    44   am
    55    40    41    2
    56   118   120   ar
    57    44    45    1
    58    93    92    1
    59    93    94   ar
    60    92    89    1
    61    89    90    1
    62    76    75    1
    63    76    77    2
    64    79    77    1
    65    96    94   ar
    66   119   121   ar
    67    75    74    1
    68    45    46    1
    69   120   121   ar
    70    46    47    2
    71    72    71    2
    72    77    78    1
    73    73    74    1
    74    73    70    1
    75    71    70    1
    76   121   122    1
    77    90    91    2
    78    90    98   am
    79    70    69    1
    80    36    35    2
    81    48    49    1
    82    98    99    1
    83    21    22    1
    84    35    34    1
    85    35    37   am
    86    53    54    1
    87    53    52    1
    88    29    30    1
    89    56    54   am
    90    49    52    1
    91    49    50    1
    92    33    34    1
    93    33    30    1
    94    54    55    2
    95   110   109    2
    96    99   100    1
    97    99   102    1
    98    30    31    1
    99    28    26   ar
   100    22    23    1
   101    22    25    1
   102   107   100   am
   103   107   108    1
   104    50    51    2
   105   100   101    2
   106   102   103    1
   107    26    25    1
   108    26    27   ar
   109    23    24    2
   110   109   108    1
   111   103   104    1
   112    31    32    2
   113   104   106   am
   114   104   105    2
   115    68    67    1
   116    67    65   ar
   117    67    66   ar
   118    65    63   ar
   119    66    64   ar
   120    63    62   ar
   121    64    62   ar
   122    62    61    1
   123    61    58    1
   124    58    57    1
   125    58    59    1
   126    59    60    2
