@<TRIPOS>MOLECULE
tmp/6fqcB00.pdb
 142 132 0 0 0
SMALL
GASTEIGER

@<TRIPOS>ATOM
      1  N         -9.5610   16.1530   73.9630 N.3   130  TYR130     -0.1241
      2  CA        -8.1520   16.4700   74.1890 C.3   130  TYR130      0.1605
      3  C         -7.9960   17.9610   74.4470 C.2   130  TYR130      0.2264
      4  O         -8.7690   18.7870   73.9530 O.2   130  TYR130     -0.2867
      5  CB        -7.2370   16.0290   73.0270 C.3   130  TYR130      0.0534
      6  CG        -7.4630   16.6900   71.6920 C.ar  130  TYR130     -0.0201
      7  CD1       -8.4190   16.2040   70.8170 C.ar  130  TYR130     -0.0009
      8  CD2       -6.7100   17.7880   71.3030 C.ar  130  TYR130     -0.0009
      9  CE1       -8.6290   16.7950   69.5910 C.ar  130  TYR130      0.0417
     10  CE2       -6.9060   18.3840   70.0730 C.ar  130  TYR130      0.0417
     11  CZ        -7.8680   17.8830   69.2210 C.ar  130  TYR130      0.1957
     12  OH        -8.0730   18.4690   67.9910 O.3   130  TYR130     -0.2866
     13  N         -6.5540   21.4680   73.8850 N.3   132  PHE132     -0.1241
     14  CA        -6.0890   22.2640   72.7350 C.3   132  PHE132      0.1605
     15  C         -6.2520   23.7180   73.1810 C.2   132  PHE132      0.2264
     16  O         -7.2080   24.3870   72.7910 O.2   132  PHE132     -0.2867
     17  CB        -6.9200   21.9190   71.5000 C.3   132  PHE132      0.0534
     18  CG        -6.3240   22.3710   70.1970 C.ar  132  PHE132     -0.0203
     19  CD1       -5.1120   21.8790   69.7570 C.ar  132  PHE132     -0.0042
     20  CD2       -7.0090   23.2570   69.3850 C.ar  132  PHE132     -0.0042
     21  CE1       -4.5800   22.2850   68.5370 C.ar  132  PHE132     -0.0003
     22  CE2       -6.4790   23.6660   68.1680 C.ar  132  PHE132     -0.0003
     23  CZ        -5.2700   23.1750   67.7470 C.ar  132  PHE132     -0.0000
     24  N         -1.1450   21.2260   73.6250 N.3   175  VAL175     -0.1245
     25  CA        -1.9550   20.1100   73.1450 C.3   175  VAL175      0.1561
     26  C         -1.6080   18.8520   73.9230 C.2   175  VAL175      0.2260
     27  O         -0.4620   18.3970   73.9060 O.2   175  VAL175     -0.2867
     28  CB        -1.7490   19.8800   71.6370 C.3   175  VAL175      0.0252
     29  CG1       -2.7180   18.8410   71.1320 C.3   175  VAL175      0.0019
     30  CG2       -1.9090   21.1950   70.8620 C.3   175  VAL175      0.0019
     31  N         -7.5500   13.2030   68.4450 N.3   182  GLY182     -0.1210
     32  CA        -7.1020   13.9290   67.2690 C.3   182  GLY182      0.1956
     33  C         -8.3080   14.3530   66.4430 C.2   182  GLY182      0.2612
     34  O         -9.3470   13.6740   66.3880 O.2   182  GLY182     -0.2717
     35  N         -8.1640   15.4790   65.7580 N.am  183  THR183     -0.1952
     36  CA        -9.2240   15.9840   64.8990 C.3   183  THR183      0.1897
     37  C         -8.9690   15.5860   63.4340 C.2   183  THR183      0.2313
     38  O         -7.8940   15.1280   63.0570 O.2   183  THR183     -0.2863
     39  CB        -9.3530   17.5070   65.0250 C.3   183  THR183      0.1794
     40  OG1      -10.5990   17.9210   64.4380 O.3   183  THR183     -0.2208
     41  CG2       -8.1890   18.2170   64.3320 C.3   183  THR183      0.0378
     42  N         -7.6230   18.6070   57.6450 N.3   186  HIS186     -0.1241
     43  CA        -7.9020   20.0320   57.5160 C.3   186  HIS186      0.1621
     44  C         -6.6890   20.7530   56.9460 C.2   186  HIS186      0.2264
     45  O         -5.5820   20.2110   56.9000 O.2   186  HIS186     -0.2867
     46  CB        -8.2730   20.6420   58.8630 C.3   186  HIS186      0.0745
     47  CG        -7.1530   20.5970   59.8570 C.ar  186  HIS186      0.0817
     48  ND1       -6.7960   19.4460   60.5230 N.ar  186  HIS186     -0.2268
     49  CD2       -6.2820   21.5540   60.2680 C.ar  186  HIS186      0.1154
     50  CE1       -5.7710   19.6970   61.3210 C.ar  186  HIS186      0.1986
     51  NE2       -5.4350   20.9660   61.1800 N.ar  186  HIS186     -0.2212
     52  N         -4.7330   24.5660   57.5060 N.3   188  ASP188     -0.1239
     53  CA        -4.6530   25.6500   58.4910 C.3   188  ASP188      0.1674
     54  C         -5.1820   26.9660   57.9140 C.2   188  ASP188      0.2266
     55  O         -5.1110   27.2120   56.7090 O.2   188  ASP188     -0.2867
     56  CB        -3.2170   25.8030   58.9800 C.3   188  ASP188      0.1410
     57  CG        -2.7790   24.6280   59.8490 C.2   188  ASP188      0.3668
     58  OD1       -3.6640   23.9230   60.3940 O.co2 188  ASP188     -0.2456
     59  OD2       -1.5580   24.3830   59.9860 O.co2 188  ASP188     -0.2456
     60  N          2.5570   25.9710   59.8710 N.3   194  ALA194     -0.1245
     61  CA         2.6120   25.5810   61.2690 C.3   194  ALA194      0.1562
     62  C          3.8740   24.7880   61.5800 C.2   194  ALA194      0.2260
     63  O          4.4870   24.1540   60.7210 O.2   194  ALA194     -0.2867
     64  CB         1.3840   24.7510   61.6980 C.3   194  ALA194      0.0290
     65  N          4.8390   21.9280   64.7460 N.3   196  ASN196     -0.1240
     66  CA         4.2490   21.0980   65.7960 C.3   196  ASN196      0.1653
     67  C          5.3720   20.3390   66.4860 C.2   196  ASN196      0.2266
     68  O          5.9870   19.4440   65.9030 O.2   196  ASN196     -0.2867
     69  CB         3.2080   20.1480   65.1840 C.3   196  ASN196      0.1155
     70  CG         2.5040   19.3210   66.2060 C.2   196  ASN196      0.2627
     71  OD1        3.1310   18.7090   67.0620 O.2   196  ASN196     -0.2716
     72  ND2        1.1670   19.2620   66.0970 N.am  196  ASN196     -0.0877
     73  N          2.7780   10.5400   67.5310 N.3   203  LYS203     -0.1245
     74  CA         1.6770   10.9740   66.6830 C.3   203  LYS203      0.1561
     75  C          1.8710   10.3940   65.2860 C.2   203  LYS203      0.2260
     76  O          2.9900   10.3400   64.7790 O.2   203  LYS203     -0.2867
     77  CB         1.5930   12.5030   66.5660 C.3   203  LYS203      0.0271
     78  CG         1.1520   13.2450   67.8370 C.3   203  LYS203      0.0035
     79  CD         1.1430   14.7690   67.6240 C.3   203  LYS203      0.0206
     80  CE         0.7790   15.5330   68.9120 C.3   203  LYS203      0.1093
     81  NZ        -0.6900   15.7570   69.0520 N.3   203  LYS203     -0.1314
     82  N          0.7350   10.9290   61.3010 N.3   205  TRP205     -0.1241
     83  CA         0.2660   11.9340   60.3710 C.3   205  TRP205      0.1605
     84  C          0.0380   11.3660   58.9740 C.2   205  TRP205      0.2264
     85  O          0.7930   10.5130   58.5180 O.2   205  TRP205     -0.2867
     86  CB         1.2850   13.0680   60.1440 C.3   205  TRP205      0.0550
     87  CG         1.6790   13.8680   61.3290 C.ar  205  TRP205      0.0003
     88  CD1        2.2840   13.4160   62.4630 C.ar  205  TRP205      0.0946
     89  CD2        1.5360   15.2870   61.4880 C.ar  205  TRP205      0.0152
     90  NE1        2.5070   14.4620   63.3270 N.ar  205  TRP205     -0.2442
     91  CE2        2.0680   15.6210   62.7520 C.ar  205  TRP205      0.0810
     92  CE3        1.0240   16.3060   60.6860 C.ar  205  TRP205      0.0012
     93  CZ2        2.0640   16.9230   63.2440 C.ar  205  TRP205      0.0191
     94  CZ3        1.0270   17.6050   61.1700 C.ar  205  TRP205      0.0001
     95  CH2        1.5450   17.9050   62.4390 C.ar  205  TRP205      0.0015
     96  N          4.5850   22.0430   58.8170 N.3   266  VAL266     -0.1245
     97  CA         3.4170   21.8750   57.9490 C.3   266  VAL266      0.1561
     98  C          3.3360   23.1270   57.0820 C.2   266  VAL266      0.2260
     99  O          2.9360   24.1930   57.5820 O.2   266  VAL266     -0.2867
    100  CB         2.1220   21.6770   58.7680 C.3   266  VAL266      0.0252
    101  CG1        0.9470   21.3860   57.8030 C.3   266  VAL266      0.0019
    102  CG2        2.3030   20.5980   59.8530 C.3   266  VAL266      0.0019
    103  N         -3.7440   17.9970   56.4040 N.3   272  HIS272     -0.1241
    104  CA        -3.1050   17.1210   57.3660 C.3   272  HIS272      0.1621
    105  C         -4.1260   16.6070   58.3670 C.2   272  HIS272      0.2264
    106  O         -5.1210   17.2660   58.6860 O.2   272  HIS272     -0.2867
    107  CB        -1.9040   17.8270   58.0470 C.3   272  HIS272      0.0745
    108  CG        -2.2270   19.1610   58.6470 C.ar  272  HIS272      0.0817
    109  ND1       -2.5110   20.2730   57.8870 N.ar  272  HIS272     -0.2268
    110  CD2       -2.2970   19.5590   59.9380 C.ar  272  HIS272      0.1154
    111  CE1       -2.7550   21.3010   58.6860 C.ar  272  HIS272      0.1986
    112  NE2       -2.6260   20.8960   59.9320 N.ar  272  HIS272     -0.2212
    113  N         -3.9790   14.0820   62.0770 N.3   274  VAL274     -0.1245
    114  CA        -3.0300   13.6660   63.0980 C.3   274  VAL274      0.1561
    115  C         -3.7530   12.8650   64.1720 C.2   274  VAL274      0.2260
    116  O         -4.7420   13.3460   64.7490 O.2   274  VAL274     -0.2867
    117  CB        -2.3270   14.8880   63.7210 C.3   274  VAL274      0.0252
    118  CG1       -1.1910   14.4300   64.6430 C.3   274  VAL274      0.0019
    119  CG2       -1.8140   15.8100   62.6300 C.3   274  VAL274      0.0019
    120  N         -3.2040   10.6760   67.7880 N.3   276  ASN276     -0.1240
    121  CA        -2.3500   10.3500   68.9280 C.3   276  ASN276      0.1653
    122  C         -2.3470    8.8370   69.1700 C.2   276  ASN276      0.2266
    123  O         -3.4130    8.2210   69.2910 O.2   276  ASN276     -0.2867
    124  CB        -2.8490   11.1290   70.1460 C.3   276  ASN276      0.1155
    125  CG        -2.7360   12.6450   69.9440 C.2   276  ASN276      0.2627
    126  OD1       -1.7190   13.1240   69.4800 O.2   276  ASN276     -0.2716
    127  ND2       -3.7760   13.3880   70.2920 N.am  276  ASN276     -0.0877
    128  N          2.1880   23.5810   69.4490 N.3   284  THR284     -0.1218
    129  CA         2.1450   23.9000   68.0180 C.3   284  THR284      0.1862
    130  C          1.7810   25.3570   67.8480 C.2   284  THR284      0.2287
    131  O          0.9930   25.9010   68.6220 O.2   284  THR284     -0.2866
    132  CB         1.1470   22.9830   67.2820 C.3   284  THR284      0.1770
    133  OG1        1.1510   23.2590   65.8730 O.3   284  THR284     -0.2211
    134  CG2       -0.2640   23.1450   67.8080 C.3   284  THR284      0.0375
    135  N          0.8480   28.3450   64.6130 N.3   286  ASN286     -0.1240
    136  CA         0.7020   28.7630   63.2260 C.3   286  ASN286      0.1653
    137  C          1.3980   30.1080   63.0500 C.2   286  ASN286      0.2266
    138  O          1.4450   30.9310   63.9800 O.2   286  ASN286     -0.2867
    139  CB        -0.7630   28.8790   62.8140 C.3   286  ASN286      0.1155
    140  CG        -1.3630   27.5430   62.4230 C.2   286  ASN286      0.2627
    141  OD1       -1.5580   27.2570   61.2410 O.2   286  ASN286     -0.2716
    142  ND2       -1.6470   26.7110   63.4180 N.am  286  ASN286     -0.0877
@<TRIPOS>BOND
     1   103   104    1
     2    55    54    2
     3    45    44    2
     4    44    43    1
     5    98    99    2
     6    98    97    1
     7   104   107    1
     8   104   105    1
     9    52    53    1
    10    43    42    1
    11    43    46    1
    12   101   100    1
    13   109   108   ar
    14   109   111   ar
    15    54    53    1
    16    97   100    1
    17    97    96    1
    18   107   108    1
    19   105   106    2
    20    53    56    1
    21    85    84    2
    22   108   110   ar
    23   111   112   ar
    24   100   102    1
    25    46    47    1
    26    84    83    1
    27    56    57    1
    28    57    59   ar
    29    57    58   ar
    30    47    49   ar
    31    47    48   ar
    32    60    61    1
    33   112   110   ar
    34    86    83    1
    35    86    87    1
    36    49    51   ar
    37    83    82    1
    38    48    50   ar
    39    92    94   ar
    40    92    89   ar
    41    63    62    2
    42    94    95   ar
    43    51    50   ar
    44   141   140    2
    45    61    62    1
    46    61    64    1
    47    87    89   ar
    48    87    88   ar
    49    89    91   ar
    50   113   114    1
    51   140   139    1
    52   140   142   am
    53    95    93   ar
    54    88    90   ar
    55   119   117    1
    56    91    93   ar
    57    91    90   ar
    58   139   136    1
    59   137   136    1
    60   137   138    2
    61    38    37    2
    62   114   117    1
    63   114   115    1
    64   136   135    1
    65    37    36    1
    66   117   118    1
    67   115   116    2
    68    41    39    1
    69    40    39    1
    70    65    66    1
    71    76    75    2
    72    36    39    1
    73    36    35    1
    74    69    66    1
    75    69    70    1
    76    75    74    1
    77    35    33   am
    78    66    67    1
    79   133   132    1
    80    68    67    2
    81    72    70   am
    82    70    71    2
    83    34    33    2
    84    33    32    1
    85    77    74    1
    86    77    78    1
    87    74    73    1
    88    32    31    1
    89   132   134    1
    90   132   129    1
    91    79    78    1
    92    79    80    1
    93    23    22   ar
    94    23    21   ar
    95   120   121    1
    96   130   129    1
    97   130   131    2
    98    12    11    1
    99   129   128    1
   100    22    20   ar
   101    21    19   ar
   102    80    81    1
   103   121   122    1
   104   121   124    1
   105   122   123    2
   106    11     9   ar
   107    11    10   ar
   108    20    18   ar
   109   126   125    2
   110     9     7   ar
   111    19    18   ar
   112   125   124    1
   113   125   127   am
   114    10     8   ar
   115    18    17    1
   116     7     6   ar
   117    30    28    1
   118    29    28    1
   119     8     6   ar
   120    17    14    1
   121    28    25    1
   122     6     5    1
   123    14    15    1
   124    14    13    1
   125    16    15    2
   126     5     2    1
   127    25    24    1
   128    25    26    1
   129    27    26    2
   130     4     3    2
   131     1     2    1
   132     2     3    1
