@<TRIPOS>MOLECULE
tmp/6fqeB00.pdb
 137 130 0 0 0
SMALL
GASTEIGER

@<TRIPOS>ATOM
      1  N        -40.2510   10.4750  115.9850 N.3    30  HIS30      -0.1241
      2  CA       -40.5000    9.3630  115.0600 C.3    30  HIS30       0.1621
      3  C        -41.9120    8.8420  115.3170 C.2    30  HIS30       0.2264
      4  O        -42.1110    8.0090  116.2060 O.2    30  HIS30      -0.2867
      5  CB       -39.4620    8.2640  115.2370 C.3    30  HIS30       0.0745
      6  CG       -39.6170    7.1260  114.2700 C.ar   30  HIS30       0.0817
      7  ND1      -38.5880    6.6940  113.4630 N.ar   30  HIS30      -0.2268
      8  CD2      -40.6660    6.3110  114.0050 C.ar   30  HIS30       0.1154
      9  CE1      -39.0000    5.6760  112.7270 C.ar   30  HIS30       0.1986
     10  NE2      -40.2600    5.4280  113.0320 N.ar   30  HIS30      -0.2212
     11  N        -46.1260    8.3240  113.2160 N.3    32  HIS32      -0.1241
     12  CA       -46.8870    8.1940  111.9810 C.3    32  HIS32       0.1621
     13  C        -48.3290    8.5630  112.2670 C.2    32  HIS32       0.2264
     14  O        -48.9070    8.0620  113.2350 O.2    32  HIS32      -0.2867
     15  CB       -46.8470    6.7520  111.4390 C.3    32  HIS32       0.0745
     16  CG       -45.4680    6.2180  111.2470 C.ar   32  HIS32       0.0817
     17  ND1      -44.7420    6.4430  110.0980 N.ar   32  HIS32      -0.2268
     18  CD2      -44.6800    5.4660  112.0510 C.ar   32  HIS32       0.1154
     19  CE1      -43.5650    5.8580  110.2030 C.ar   32  HIS32       0.1986
     20  NE2      -43.4970    5.2650  111.3820 N.ar   32  HIS32      -0.2212
     21  N        -49.6940    4.5310  108.7940 N.3    35  GLY35      -0.1210
     22  CA       -48.6870    3.7300  108.1290 C.3    35  GLY35       0.1956
     23  C        -49.3340    2.9240  107.0280 C.2    35  GLY35       0.2612
     24  O        -50.0180    1.9360  107.2990 O.2    35  GLY35      -0.2717
     25  N        -49.1600    3.3530  105.7820 N.am   36  SER36      -0.1952
     26  CA       -49.8920    2.7300  104.6900 C.3    36  SER36       0.1924
     27  C        -48.9680    2.4690  103.5070 C.2    36  SER36       0.2314
     28  O        -47.7870    2.1420  103.6770 O.2    36  SER36      -0.2863
     29  CB       -51.0730    3.6300  104.2840 C.3    36  SER36       0.2116
     30  OG       -51.9840    2.9710  103.4100 O.3    36  SER36      -0.2180
     31  N        -44.4450    4.6670  102.3350 N.3    81  ALA81      -0.1245
     32  CA       -45.2410    4.3560  103.5110 C.3    81  ALA81       0.1562
     33  C        -46.6050    5.0210  103.4530 C.2    81  ALA81       0.2260
     34  O        -47.3030    5.0780  104.4670 O.2    81  ALA81      -0.2867
     35  CB       -44.5030    4.7710  104.7890 C.3    81  ALA81       0.0290
     36  N        -38.7650    4.3440  102.4020 N.3   106  TRP106     -0.1241
     37  CA       -38.8700    3.3510  103.4630 C.3   106  TRP106      0.1605
     38  C        -38.6620    1.9580  102.8610 C.2   106  TRP106      0.2264
     39  O        -37.8890    1.8210  101.9090 O.2   106  TRP106     -0.2867
     40  CB       -40.2200    3.5710  104.1530 C.3   106  TRP106      0.0550
     41  CG       -40.6210    2.6550  105.2460 C.ar  106  TRP106      0.0003
     42  CD1      -40.0450    2.5240  106.4720 C.ar  106  TRP106      0.0946
     43  CD2      -41.7350    1.7590  105.2200 C.ar  106  TRP106      0.0152
     44  NE1      -40.7290    1.5810  107.2160 N.ar  106  TRP106     -0.2442
     45  CE2      -41.7710    1.0990  106.4630 C.ar  106  TRP106      0.0810
     46  CE3      -42.7000    1.4390  104.2560 C.ar  106  TRP106      0.0012
     47  CZ2      -42.7360    0.1460  106.7700 C.ar  106  TRP106      0.0191
     48  CZ3      -43.6600    0.4830  104.5670 C.ar  106  TRP106      0.0001
     49  CH2      -43.6670   -0.1490  105.8080 C.ar  106  TRP106      0.0015
     50  N        -36.1130   10.4180  105.5220 N.3   144  LYS144     -0.1245
     51  CA       -36.1980    9.0950  106.1300 C.3   144  LYS144      0.1561
     52  C        -35.6170    8.0360  105.1880 C.2   144  LYS144      0.2260
     53  O        -35.8840    8.0520  103.9840 O.2   144  LYS144     -0.2867
     54  CB       -37.6640    8.7840  106.4580 C.3   144  LYS144      0.0271
     55  CG       -37.9300    7.3760  106.9500 C.3   144  LYS144      0.0035
     56  CD       -37.0530    7.0630  108.1310 C.3   144  LYS144      0.0206
     57  CE       -37.5070    5.7840  108.7320 C.3   144  LYS144      0.1093
     58  NZ       -38.9640    5.9220  108.8450 N.3   144  LYS144     -0.1314
     59  N        -34.3850    3.9520  109.6220 N.3   176  HIS176     -0.1241
     60  CA       -34.9290    2.6960  110.1190 C.3   176  HIS176      0.1621
     61  C        -33.8040    1.6650  110.1080 C.2   176  HIS176      0.2264
     62  O        -33.0830    1.5460  109.1110 O.2   176  HIS176     -0.2867
     63  CB       -36.1010    2.2590  109.2260 C.3   176  HIS176      0.0745
     64  CG       -36.5500    0.8460  109.4370 C.ar  176  HIS176      0.0817
     65  ND1      -37.7880    0.5250  109.9610 N.ar  176  HIS176     -0.2268
     66  CD2      -35.9380   -0.3330  109.1660 C.ar  176  HIS176      0.1154
     67  CE1      -37.9030   -0.7920  110.0220 C.ar  176  HIS176      0.1986
     68  NE2      -36.7970   -1.3350  109.5480 N.ar  176  HIS176     -0.2212
     69  N        -34.8970    3.1630  115.5920 N.3   205  HIS205     -0.1241
     70  CA       -35.2570    1.8480  116.1400 C.3   205  HIS205      0.1621
     71  C        -34.1170    1.2620  116.9740 C.2   205  HIS205      0.2264
     72  O        -33.9780    0.0410  117.0990 O.2   205  HIS205     -0.2867
     73  CB       -35.6930    0.8790  115.0320 C.3   205  HIS205      0.0745
     74  CG       -36.8750    1.3610  114.2410 C.ar  205  HIS205      0.0817
     75  ND1      -37.8180    2.2250  114.7590 N.ar  205  HIS205     -0.2268
     76  CD2      -37.2670    1.0970  112.9730 C.ar  205  HIS205      0.1154
     77  CE1      -38.7380    2.4740  113.8430 C.ar  205  HIS205      0.1986
     78  NE2      -38.4310    1.7990  112.7510 N.ar  205  HIS205     -0.2212
     79  N        -43.6390   -0.3540  122.2360 N.3   232  HIS232     -0.1241
     80  CA       -43.7920   -1.5340  121.3800 C.3   232  HIS232      0.1621
     81  C        -43.4780   -2.7950  122.1760 C.2   232  HIS232      0.2264
     82  O        -42.3100   -3.0990  122.4380 O.2   232  HIS232     -0.2867
     83  CB       -42.8720   -1.4420  120.1710 C.3   232  HIS232      0.0745
     84  CG       -43.3140   -0.4410  119.1540 C.ar  232  HIS232      0.0817
     85  ND1      -43.2070   -0.6630  117.8000 N.ar  232  HIS232     -0.2268
     86  CD2      -43.8460    0.7940  119.2940 C.ar  232  HIS232      0.1154
     87  CE1      -43.6610    0.3910  117.1490 C.ar  232  HIS232      0.1986
     88  NE2      -44.0530    1.2900  118.0330 N.ar  232  HIS232     -0.2212
     89  N        -44.0940   -8.3550  115.2980 N.3   246  LEU246     -0.1245
     90  CA       -43.9420   -6.9230  115.0510 C.3   246  LEU246      0.1561
     91  C        -43.4340   -6.1890  116.2870 C.2   246  LEU246      0.2260
     92  O        -42.5300   -5.3530  116.1950 O.2   246  LEU246     -0.2867
     93  CB       -45.2770   -6.3270  114.6120 C.3   246  LEU246      0.0270
     94  CG       -45.2540   -4.8080  114.4050 C.3   246  LEU246      0.0019
     95  CD1      -44.5130   -4.4900  113.1260 C.3   246  LEU246      0.0001
     96  CD2      -46.6670   -4.2590  114.3630 C.3   246  LEU246      0.0001
     97  N        -43.0740    5.7600  118.0290 N.3   276  ASP276     -0.1239
     98  CA       -43.3250    5.0870  116.7500 C.3   276  ASP276      0.1674
     99  C        -44.7510    4.5420  116.7130 C.2   276  ASP276      0.2266
    100  O        -44.9990    3.3840  116.3640 O.2   276  ASP276     -0.2867
    101  CB       -42.2920    3.9840  116.4960 C.3   276  ASP276      0.1410
    102  CG       -42.2940    3.4920  115.0610 C.2   276  ASP276      0.3668
    103  OD1      -42.7820    4.2120  114.1600 O.co2 276  ASP276     -0.2456
    104  OD2      -41.7950    2.3740  114.8310 O.co2 276  ASP276     -0.2456
    105  N        -48.9880    4.9810  115.5730 N.3   278  LEU278     -0.1245
    106  CA       -49.7820    5.3120  114.3930 C.3   278  LEU278      0.1561
    107  C        -51.2470    5.3430  114.7920 C.2   278  LEU278      0.2260
    108  O        -51.6340    4.8150  115.8370 O.2   278  LEU278     -0.2867
    109  CB       -49.5930    4.3040  113.2480 C.3   278  LEU278      0.0270
    110  CG       -48.3980    3.3550  113.1450 C.3   278  LEU278      0.0019
    111  CD1      -48.4940    2.2200  114.1600 C.3   278  LEU278      0.0001
    112  CD2      -48.2840    2.7940  111.7250 C.3   278  LEU278      0.0001
    113  N        -52.9790    1.7710  110.0850 N.3   281  PHE281     -0.1241
    114  CA       -51.8850    0.8340  109.8370 C.3   281  PHE281      0.1605
    115  C        -52.4180   -0.2210  108.8630 C.2   281  PHE281      0.2264
    116  O        -53.1360   -1.1360  109.2740 O.2   281  PHE281     -0.2867
    117  CB       -51.4150    0.2280  111.1540 C.3   281  PHE281      0.0534
    118  CG       -50.0790   -0.4670  111.1030 C.ar  281  PHE281     -0.0203
    119  CD1      -49.4040   -0.6790  109.9080 C.ar  281  PHE281     -0.0042
    120  CD2      -49.5110   -0.9510  112.2810 C.ar  281  PHE281     -0.0042
    121  CE1      -48.1800   -1.3420  109.8920 C.ar  281  PHE281     -0.0003
    122  CE2      -48.3020   -1.6050  112.2740 C.ar  281  PHE281     -0.0003
    123  CZ       -47.6300   -1.8160  111.0820 C.ar  281  PHE281     -0.0000
    124  N        -50.1760   -1.5520  106.2340 N.3   283  SER283     -0.1217
    125  CA       -49.0860   -2.2910  105.6080 C.3   283  SER283      0.1889
    126  C        -48.7100   -3.5670  106.3620 C.2   283  SER283      0.2288
    127  O        -47.6690   -4.1560  106.0490 O.2   283  SER283     -0.2866
    128  CB       -47.8520   -1.3930  105.4530 C.3   283  SER283      0.2089
    129  OG       -47.4580   -0.8200  106.6920 O.3   283  SER283     -0.2183
    130  N        -52.6240   -3.0910  118.6560 N.3   292  MET292     -0.1245
    131  CA       -51.7170   -2.1000  119.2270 C.3   292  MET292      0.1570
    132  C        -52.4560   -1.1430  120.1540 C.2   292  MET292      0.2261
    133  O        -51.9420   -0.7790  121.2190 O.2   292  MET292     -0.2867
    134  CB       -51.0020   -1.3380  118.1110 C.3   292  MET292      0.0387
    135  CG       -49.9680   -2.1850  117.3860 C.3   292  MET292      0.0595
    136  SD       -49.1200   -1.3020  116.0670 S.3   292  MET292     -0.1393
    137  CE       -48.2810   -0.0400  117.0220 C.3   292  MET292      0.0692
@<TRIPOS>BOND
     1    39    38    2
     2    31    32    1
     3    36    37    1
     4    38    37    1
     5    30    29    1
     6    33    32    1
     7    33    34    2
     8    37    40    1
     9    27    28    2
    10    27    26    1
    11    32    35    1
    12    53    52    2
    13    40    41    1
    14    46    48   ar
    15    46    43   ar
    16    29    26    1
    17    48    49   ar
    18    26    25    1
    19    52    51    1
    20    43    41   ar
    21    43    45   ar
    22    41    42   ar
    23   128   125    1
    24   128   129    1
    25    50    51    1
    26   125   124    1
    27   125   126    1
    28    25    23   am
    29    49    47   ar
    30   127   126    2
    31    51    54    1
    32    54    55    1
    33    45    47   ar
    34    45    44   ar
    35    42    44   ar
    36    55    56    1
    37    23    24    2
    38    23    22    1
    39    22    21    1
    40    56    57    1
    41    57    58    1
    42   115   116    2
    43   115   114    1
    44    62    61    2
    45    66    64   ar
    46    66    68   ar
    47    63    64    1
    48    63    60    1
    49    64    65   ar
    50    68    67   ar
    51    59    60    1
    52   114   113    1
    53   114   117    1
    54   121   119   ar
    55   121   123   ar
    56   119   118   ar
    57    65    67   ar
    58    17    19   ar
    59    17    16   ar
    60    61    60    1
    61    19    20   ar
    62   123   122   ar
    63   118   117    1
    64   118   120   ar
    65    16    15    1
    66    16    18   ar
    67    20    18   ar
    68    15    12    1
    69   112   110    1
    70    12    13    1
    71    12    11    1
    72    13    14    2
    73   122   120   ar
    74     9    10   ar
    75     9     7   ar
    76    78    76   ar
    77    78    77   ar
    78    76    74   ar
    79    10     8   ar
    80    95    94    1
    81   110   109    1
    82   110   111    1
    83   109   106    1
    84     7     6   ar
    85    77    75   ar
    86     8     6   ar
    87   103   102   ar
    88    74    75   ar
    89    74    73    1
    90     6     5    1
    91    96    94    1
    92   106   107    1
    93   106   105    1
    94    94    93    1
    95    93    90    1
    96   107   108    2
    97   104   102   ar
    98    73    70    1
    99    90    89    1
   100    90    91    1
   101     2     5    1
   102     2     3    1
   103     2     1    1
   104   102   101    1
   105     3     4    2
   106    69    70    1
   107   136   137    1
   108   136   135    1
   109    70    71    1
   110    92    91    2
   111   100    99    2
   112   101    98    1
   113    99    98    1
   114    98    97    1
   115    71    72    2
   116    87    85   ar
   117    87    88   ar
   118   135   134    1
   119    85    84   ar
   120    88    86   ar
   121   134   131    1
   122   130   131    1
   123    84    86   ar
   124    84    83    1
   125   131   132    1
   126   132   133    2
   127    83    80    1
   128    80    81    1
   129    80    79    1
   130    81    82    2
