@<TRIPOS>MOLECULE
tmp/6fqhA00.pdb
 125 119 0 0 0
SMALL
GASTEIGER

@<TRIPOS>ATOM
      1  N         -1.9010   40.1400  -13.7920 N.3    10  GLU10      -0.1245
      2  CA        -1.0800   41.2160  -13.2370 C.3    10  GLU10       0.1567
      3  C          0.2270   41.1890  -14.0000 C.2    10  GLU10       0.2260
      4  O          0.8820   40.1720  -13.9580 O.2    10  GLU10      -0.2867
      5  CB        -0.8040   40.9790  -11.7530 C.3    10  GLU10       0.0388
      6  CG        -0.1500   42.1580  -11.0290 C.3    10  GLU10       0.1160
      7  CD        -1.1950   43.1690  -10.6060 C.2    10  GLU10       0.3649
      8  OE1       -2.0150   42.8430   -9.6980 O.co2  10  GLU10      -0.2457
      9  OE2       -1.1910   44.2740  -11.1830 O.co2  10  GLU10      -0.2457
     10  N          3.4820   39.1080  -14.3260 N.3    13  TYR13      -0.1241
     11  CA         3.2990   37.7680  -13.7750 C.3    13  TYR13       0.1605
     12  C          2.4370   36.9100  -14.6800 C.2    13  TYR13       0.2264
     13  O          2.7710   35.7520  -14.9630 O.2    13  TYR13      -0.2867
     14  CB         2.6650   37.8470  -12.3850 C.3    13  TYR13       0.0534
     15  CG         3.5070   38.7070  -11.4590 C.ar   13  TYR13      -0.0201
     16  CD1        4.6340   38.1850  -10.8600 C.ar   13  TYR13      -0.0009
     17  CD2        3.2120   40.0490  -11.2650 C.ar   13  TYR13      -0.0009
     18  CE1        5.4190   38.9490  -10.0310 C.ar   13  TYR13       0.0417
     19  CE2        4.0250   40.8630  -10.4320 C.ar   13  TYR13       0.0417
     20  CZ         5.1440   40.2620   -9.8190 C.ar   13  TYR13       0.1957
     21  OH         5.9640   40.9280   -8.9610 O.3    13  TYR13      -0.2866
     22  N         -6.7680   39.2900   -4.7950 N.3    58  TYR58      -0.1241
     23  CA        -5.7430   38.4740   -4.1710 C.3    58  TYR58       0.1605
     24  C         -6.3290   37.6280   -3.0460 C.2    58  TYR58       0.2264
     25  O         -6.1390   36.4170   -3.0210 O.2    58  TYR58      -0.2867
     26  CB        -4.5800   39.3610   -3.6740 C.3    58  TYR58       0.0534
     27  CG        -3.7350   39.8500   -4.8170 C.ar   58  TYR58      -0.0201
     28  CD1       -3.9650   41.1030   -5.4040 C.ar   58  TYR58      -0.0009
     29  CD2       -2.7600   39.0400   -5.3620 C.ar   58  TYR58      -0.0009
     30  CE1       -3.2160   41.5140   -6.5040 C.ar   58  TYR58       0.0417
     31  CE2       -2.0130   39.4390   -6.4640 C.ar   58  TYR58       0.0417
     32  CZ        -2.2330   40.6550   -7.0170 C.ar   58  TYR58       0.1957
     33  OH        -1.4450   40.9720   -8.1270 O.3    58  TYR58      -0.2866
     34  N          1.5630   36.6600   -7.6380 N.3    86  PRO86      -0.2102
     35  CA         2.2890   37.5100   -6.6560 C.3    86  PRO86       0.1504
     36  C          1.4420   37.7490   -5.4080 C.2    86  PRO86       0.2576
     37  O          0.9200   38.8330   -5.1870 O.2    86  PRO86      -0.2718
     38  CB         2.5580   38.7830   -7.4650 C.3    86  PRO86       0.0282
     39  CG         1.4210   38.8460   -8.4380 C.3    86  PRO86       0.0208
     40  CD         1.1620   37.4150   -8.8590 C.3    86  PRO86       0.0893
     41  N          1.2630   36.6770   -4.6270 N.am   87  LEU87      -0.1966
     42  CA         0.3880   36.6560   -3.4600 C.3    87  LEU87       0.1728
     43  C          1.2360   36.7840   -2.2020 C.2    87  LEU87       0.2616
     44  O          2.0610   35.9020   -1.9060 O.2    87  LEU87      -0.2715
     45  CB        -0.4210   35.3470   -3.4430 C.3    87  LEU87       0.0311
     46  CG        -1.4010   35.1420   -2.3090 C.3    87  LEU87       0.0022
     47  CD1       -2.5400   36.1990   -2.4720 C.3    87  LEU87       0.0001
     48  CD2       -2.0000   33.7060   -2.3000 C.3    87  LEU87       0.0001
     49  N          1.0280   37.8780   -1.4880 N.am   88  THR88      -0.1951
     50  CA         1.8430   38.1980   -0.3410 C.3    88  THR88       0.1897
     51  C          1.5760   37.2230    0.8080 C.2    88  THR88       0.2313
     52  O          0.4330   37.0020    1.1990 O.2    88  THR88      -0.2863
     53  CB         1.5900   39.6510    0.0620 C.3    88  THR88       0.1794
     54  OG1        1.7020   40.4920   -1.1060 O.3    88  THR88      -0.2208
     55  CG2        2.5910   40.1210    1.0990 C.3    88  THR88       0.0378
     56  N         -3.5190   35.5630    6.2230 N.3    93  ARG93      -0.1245
     57  CA        -3.7580   34.5060    5.2470 C.3    93  ARG93       0.1563
     58  C         -3.2480   33.1560    5.7320 C.2    93  ARG93       0.2260
     59  O         -3.8600   32.1140    5.4320 O.2    93  ARG93      -0.2867
     60  CB        -3.1210   34.8850    3.9160 C.3    93  ARG93       0.0307
     61  CG        -3.8480   36.0620    3.2720 C.3    93  ARG93       0.0489
     62  CD        -3.0520   36.5410    2.0230 C.3    93  ARG93       0.2205
     63  NE        -3.7680   37.6050    1.3130 N.pl3  93  ARG93      -0.0865
     64  CZ        -3.2030   38.4830    0.5000 C.cat  93  ARG93       0.5346
     65  NH1       -1.8600   38.4900    0.3250 N.pl3  93  ARG93       0.1354
     66  NH2       -3.9690   39.3950   -0.0990 N.pl3  93  ARG93       0.1354
     67  N         -0.7350   54.1490   -2.0070 N.3   135  LEU135     -0.1245
     68  CA        -2.1200   53.7510   -2.2140 C.3   135  LEU135      0.1561
     69  C         -2.9840   54.2420   -1.0570 C.2   135  LEU135      0.2260
     70  O         -2.5260   54.3510    0.0860 O.2   135  LEU135     -0.2867
     71  CB        -2.1970   52.2160   -2.3270 C.3   135  LEU135      0.0270
     72  CG        -2.6560   51.4040   -3.5370 C.3   135  LEU135      0.0019
     73  CD1       -3.2030   52.2280   -4.6940 C.3   135  LEU135      0.0001
     74  CD2       -1.5280   50.4900   -3.9700 C.3   135  LEU135      0.0001
     75  N         -2.5320   51.7300   -8.2620 N.3   171  THR171     -0.1218
     76  CA        -1.1400   51.8270   -8.6760 C.3   171  THR171      0.1862
     77  C         -0.9950   52.5810   -9.9990 C.2   171  THR171      0.2287
     78  O         -0.0920   53.4190  -10.1470 O.2   171  THR171     -0.2866
     79  CB        -0.5130   50.4330   -8.7810 C.3   171  THR171      0.1770
     80  OG1       -0.4430   49.8510   -7.4730 O.3   171  THR171     -0.2211
     81  CG2        0.9060   50.5200   -9.3500 C.3   171  THR171      0.0375
     82  N          5.6420   52.3020   -3.3870 N.3   189  LEU189     -0.1231
     83  CA         5.0090   51.0720   -3.8610 C.3   189  LEU189      0.1693
     84  C          6.0100   49.9200   -3.7750 C.2   189  LEU189      0.2591
     85  O          7.1950   50.1140   -3.4760 O.2   189  LEU189     -0.2718
     86  CB         4.5090   51.2570   -5.2930 C.3   189  LEU189      0.0284
     87  CG         5.5180   51.1050   -6.4440 C.3   189  LEU189      0.0019
     88  CD1        4.7460   51.0480   -7.7470 C.3   189  LEU189      0.0001
     89  CD2        6.4910   52.2610   -6.4550 C.3   189  LEU189      0.0001
     90  N          5.5090   48.7140   -4.0750 N.am  190  GLU190     -0.1979
     91  CA         6.3210   47.5070   -4.1180 C.3   190  GLU190      0.1602
     92  C          7.5340   47.6430   -5.0300 C.2   190  GLU190      0.2287
     93  O          7.4260   48.0810   -6.1770 O.2   190  GLU190     -0.2864
     94  CB         5.4320   46.3420   -4.5880 C.3   190  GLU190      0.0415
     95  CG         4.3370   45.9730   -3.6000 C.3   190  GLU190      0.1163
     96  CD         3.0200   46.7120   -3.8650 C.2   190  GLU190      0.3649
     97  OE1        3.0560   47.8760   -4.3430 O.co2 190  GLU190     -0.2457
     98  OE2        1.9500   46.1310   -3.5930 O.co2 190  GLU190     -0.2457
     99  N          9.1650   45.3660   -6.5780 N.3   192  THR192     -0.1203
    100  CA         8.9750   44.5770   -7.7950 C.3   192  THR192      0.1994
    101  C          8.2400   45.3650   -8.8720 C.2   192  THR192      0.2617
    102  O          8.6900   45.4200  -10.0300 O.2   192  THR192     -0.2717
    103  CB         8.2020   43.2900   -7.4550 C.3   192  THR192      0.1784
    104  OG1        7.1290   43.6570   -6.5960 O.3   192  THR192     -0.2211
    105  CG2        9.0470   42.2820   -6.7340 C.3   192  THR192      0.0376
    106  N          7.1350   46.0360   -8.5140 N.am  193  MET193     -0.1979
    107  CA         6.4120   46.8180   -9.5040 C.3   193  MET193      0.1605
    108  C          7.1980   48.0700   -9.9140 C.2   193  MET193      0.2287
    109  O          7.1730   48.4750  -11.0730 O.2   193  MET193     -0.2864
    110  CB         5.0380   47.2230   -8.9650 C.3   193  MET193      0.0413
    111  CG         4.1150   47.8230  -10.0130 C.3   193  MET193      0.0598
    112  SD         3.9320   46.8000  -11.5230 S.3   193  MET193     -0.1393
    113  CE         3.1090   45.3300  -10.9110 C.3   193  MET193      0.0692
    114  N          6.3510   37.0370   -1.7330 N.3   217  TYR217     -0.1241
    115  CA         5.3010   36.3280   -2.4500 C.3   217  TYR217      0.1605
    116  C          5.5650   34.8180   -2.3580 C.2   217  TYR217      0.2264
    117  O          6.7120   34.3680   -2.4300 O.2   217  TYR217     -0.2867
    118  CB         5.2450   36.7140   -3.9250 C.3   217  TYR217      0.0534
    119  CG         4.9280   38.1700   -4.2320 C.ar  217  TYR217     -0.0201
    120  CD1        4.0620   38.8850   -3.4350 C.ar  217  TYR217     -0.0009
    121  CD2        5.5100   38.8210   -5.3390 C.ar  217  TYR217     -0.0009
    122  CE1        3.7560   40.2580   -3.7200 C.ar  217  TYR217      0.0417
    123  CE2        5.2090   40.1720   -5.6410 C.ar  217  TYR217      0.0417
    124  CZ         4.3420   40.8770   -4.8270 C.ar  217  TYR217      0.1957
    125  OH         4.0260   42.2170   -5.0560 O.3   217  TYR217     -0.2866
@<TRIPOS>BOND
     1    13    12    2
     2    12    11    1
     3    10    11    1
     4     3     4    2
     5     3     2    1
     6     1     2    1
     7    11    14    1
     8     2     5    1
     9    14    15    1
    10     5     6    1
    11   112   113    1
    12   112   111    1
    13    15    17   ar
    14    15    16   ar
    15    17    19   ar
    16     9     7   ar
    17   109   108    2
    18     6     7    1
    19    16    18   ar
    20     7     8   ar
    21    19    20   ar
    22    78    77    2
    23    18    20   ar
    24   102   101    2
    25   111   110    1
    26    77    76    1
    27   108   107    1
    28    20    21    1
    29   107   110    1
    30   107   106    1
    31    81    79    1
    32   101   106   am
    33   101   100    1
    34    40    39    1
    35    40    34    1
    36    79    76    1
    37    79    80    1
    38    76    75    1
    39    39    38    1
    40    33    32    1
    41   100   103    1
    42   100    99    1
    43    88    87    1
    44    34    35    1
    45    38    35    1
    46   103   105    1
    47   103   104    1
    48    32    30   ar
    49    32    31   ar
    50    35    36    1
    51    30    28   ar
    52    31    29   ar
    53    89    87    1
    54    87    86    1
    55    93    92    2
    56   123   121   ar
    57   123   124   ar
    58    36    37    2
    59    36    41   am
    60    28    27   ar
    61    29    27   ar
    62   121   119   ar
    63    86    83    1
    64   125   124    1
    65    92    91    1
    66   124   122   ar
    67    27    26    1
    68    22    23    1
    69    73    72    1
    70    41    42    1
    71    94    91    1
    72    94    95    1
    73    97    96   ar
    74   119   118    1
    75   119   120   ar
    76    23    26    1
    77    23    24    1
    78    91    90    1
    79    90    84   am
    80    74    72    1
    81   118   115    1
    82    96    95    1
    83    96    98   ar
    84    83    84    1
    85    83    82    1
    86    84    85    2
    87   122   120   ar
    88    72    71    1
    89    42    45    1
    90    42    43    1
    91    45    46    1
    92    24    25    2
    93    47    46    1
    94   115   116    1
    95   115   114    1
    96   117   116    2
    97    71    68    1
    98    46    48    1
    99    68    67    1
   100    68    69    1
   101    43    44    2
   102    43    49   am
   103    49    50    1
   104    54    53    1
   105    69    70    2
   106    50    53    1
   107    50    51    1
   108    66    64    1
   109    53    55    1
   110    65    64    1
   111    64    63    2
   112    51    52    2
   113    63    62    1
   114    62    61    1
   115    61    60    1
   116    60    57    1
   117    57    58    1
   118    57    56    1
   119    59    58    2
