@<TRIPOS>MOLECULE
tmp/6fqkB00.pdb
 169 161 0 0 0
SMALL
GASTEIGER

@<TRIPOS>ATOM
      1  N        -24.6080   31.5380  -23.3450 N.3    10  GLU10      -0.1245
      2  CA       -24.5200   32.8580  -22.7420 C.3    10  GLU10       0.1567
      3  C        -23.4300   33.5990  -23.4950 C.2    10  GLU10       0.2260
      4  O        -22.2490   33.2310  -23.4090 O.2    10  GLU10      -0.2867
      5  CB       -24.1720   32.7520  -21.2560 C.3    10  GLU10       0.0388
      6  CG       -24.2760   34.0620  -20.5080 C.3    10  GLU10       0.1160
      7  CD       -25.6980   34.4110  -20.1390 C.2    10  GLU10       0.3649
      8  OE1      -26.3160   35.2080  -20.8670 O.co2  10  GLU10      -0.2457
      9  OE2      -26.2000   33.8840  -19.1270 O.co2  10  GLU10      -0.2457
     10  N        -19.6950   33.5290  -23.8500 N.3    13  TYR13      -0.1241
     11  CA       -19.0350   32.3550  -23.2980 C.3    13  TYR13       0.1605
     12  C        -19.2210   31.1440  -24.2050 C.2    13  TYR13       0.2264
     13  O        -18.2460   30.4800  -24.5820 O.2    13  TYR13      -0.2867
     14  CB       -19.5730   32.1030  -21.8910 C.3    13  TYR13       0.0534
     15  CG       -19.3130   33.2860  -20.9920 C.ar   13  TYR13      -0.0201
     16  CD1      -18.0580   33.4740  -20.4210 C.ar   13  TYR13      -0.0009
     17  CD2      -20.3050   34.2340  -20.7310 C.ar   13  TYR13      -0.0009
     18  CE1      -17.7920   34.5620  -19.5930 C.ar   13  TYR13       0.0417
     19  CE2      -20.0430   35.3290  -19.8920 C.ar   13  TYR13       0.0417
     20  CZ       -18.7830   35.4810  -19.3350 C.ar   13  TYR13       0.1957
     21  OH       -18.4750   36.5400  -18.5060 O.3    13  TYR13      -0.2866
     22  N        -28.2650   28.0170  -14.3010 N.3    58  TYR58      -0.1241
     23  CA       -26.9150   27.9100  -13.7390 C.3    58  TYR58       0.1605
     24  C        -26.8910   26.9230  -12.5750 C.2    58  TYR58       0.2264
     25  O        -26.0210   26.0450  -12.5060 O.2    58  TYR58      -0.2867
     26  CB       -26.3890   29.2780  -13.2920 C.3    58  TYR58       0.0534
     27  CG       -25.9340   30.1560  -14.4480 C.ar   58  TYR58      -0.0201
     28  CD1      -24.6730   29.9880  -15.0120 C.ar   58  TYR58      -0.0009
     29  CD2      -26.7290   31.1810  -14.9220 C.ar   58  TYR58      -0.0009
     30  CE1      -24.2420   30.7890  -16.0650 C.ar   58  TYR58       0.0417
     31  CE2      -26.3080   32.0050  -15.9920 C.ar   58  TYR58       0.0417
     32  CZ       -25.0660   31.7920  -16.5520 C.ar   58  TYR58       0.1957
     33  OH       -24.6390   32.5880  -17.5940 O.3    58  TYR58      -0.2866
     34  N        -19.6130   30.3620  -17.2240 N.3    86  PRO86      -0.2102
     35  CA       -19.4770   31.4570  -16.2380 C.3    86  PRO86       0.1504
     36  C        -20.3170   31.1740  -15.0000 C.2    86  PRO86       0.2576
     37  O        -21.3700   31.7860  -14.7140 O.2    86  PRO86      -0.2718
     38  CB       -19.9550   32.6760  -17.0350 C.3    86  PRO86       0.0282
     39  CG       -20.9270   32.1200  -17.9940 C.3    86  PRO86       0.0208
     40  CD       -20.3470   30.8010  -18.4240 C.3    86  PRO86       0.0893
     41  N        -19.8520   30.2120  -14.2210 N.am   87  LEU87      -0.1966
     42  CA       -20.5760   29.7520  -13.0450 C.3    87  LEU87       0.1728
     43  C        -19.9770   30.3690  -11.7810 C.2    87  LEU87       0.2616
     44  O        -18.7940   30.1600  -11.4770 O.2    87  LEU87      -0.2715
     45  CB       -20.5670   28.2210  -12.9810 C.3    87  LEU87       0.0311
     46  CG       -21.3520   27.5950  -11.8220 C.3    87  LEU87       0.0022
     47  CD1      -22.8440   27.9330  -11.9310 C.3    87  LEU87       0.0001
     48  CD2      -21.1690   26.0890  -11.8850 C.3    87  LEU87       0.0001
     49  N        -20.7950   31.1190  -11.0450 N.am   88  THR88      -0.1951
     50  CA       -20.2880   31.8730   -9.9030 C.3    88  THR88       0.1897
     51  C        -19.9090   30.9540   -8.7330 C.2    88  THR88       0.2313
     52  O        -20.6690   30.0610   -8.3430 O.2    88  THR88      -0.2863
     53  CB       -21.3310   32.8840   -9.4360 C.3    88  THR88       0.1794
     54  OG1      -21.9200   33.5380  -10.5680 O.3    88  THR88      -0.2208
     55  CG2      -20.6910   33.9360   -8.4820 C.3    88  THR88       0.0378
     56  N        -23.0900   26.6820   -3.3170 N.3    93  ARG93      -0.1245
     57  CA       -22.7710   25.6960   -4.3420 C.3    93  ARG93       0.1563
     58  C        -21.5950   24.8090   -3.9470 C.2    93  ARG93       0.2260
     59  O        -21.6190   23.6040   -4.2470 O.2    93  ARG93      -0.2867
     60  CB       -22.5000   26.3630   -5.6910 C.3    93  ARG93       0.0307
     61  CG       -23.7580   26.9890   -6.3260 C.3    93  ARG93       0.0489
     62  CD       -23.3850   27.8400   -7.5160 C.3    93  ARG93       0.2205
     63  NE       -24.5740   28.3380   -8.1960 N.pl3  93  ARG93      -0.0865
     64  CZ       -24.5660   29.3650   -9.0280 C.cat  93  ARG93       0.5346
     65  NH1      -23.4150   30.0090   -9.2550 N.pl3  93  ARG93       0.1354
     66  NH2      -25.7010   29.7550   -9.6200 N.pl3  93  ARG93       0.1354
     67  N        -31.9090   43.1050  -11.7870 N.3   135  LEU135     -0.1245
     68  CA       -32.7810   41.9760  -12.0610 C.3   135  LEU135      0.1561
     69  C        -33.7200   41.7710  -10.8790 C.2   135  LEU135      0.2260
     70  O        -33.3920   42.1060   -9.7360 O.2   135  LEU135     -0.2867
     71  CB       -31.9420   40.7180  -12.2980 C.3   135  LEU135      0.0270
     72  CG       -32.4300   39.6800  -13.3050 C.3   135  LEU135      0.0019
     73  CD1      -33.1950   40.3270  -14.4520 C.3   135  LEU135      0.0001
     74  CD2      -31.2370   38.8830  -13.8150 C.3   135  LEU135      0.0001
     75  N        -34.8720   39.2100   -9.3580 N.3   137  SER137     -0.1202
     76  CA       -34.4540   38.2850   -8.3280 C.3   137  SER137      0.2020
     77  C        -33.1010   37.7640   -8.7620 C.2   137  SER137      0.2619
     78  O        -32.8230   37.6440   -9.9590 O.2   137  SER137     -0.2717
     79  CB       -35.4620   37.1550   -8.1420 C.3   137  SER137      0.2103
     80  OG       -35.2520   36.1560   -9.1150 O.3   137  SER137     -0.2182
     81  N        -32.2730   37.4440   -7.7860 N.am  138  GLY138     -0.1942
     82  CA       -30.9210   37.0280   -8.0520 C.3   138  GLY138      0.2014
     83  C        -29.9510   37.7490   -7.1540 C.2   138  GLY138      0.2640
     84  O        -30.3210   38.5670   -6.3130 O.2   138  GLY138     -0.2714
     85  N        -28.6740   37.4830   -7.3950 N.am  139  SER139     -0.1935
     86  CA       -27.6510   37.8780   -6.4350 C.3   139  SER139      0.2055
     87  C        -27.5270   39.3960   -6.2800 C.2   139  SER139      0.2643
     88  O        -27.2080   39.8670   -5.1810 O.2   139  SER139     -0.2714
     89  CB       -26.3170   37.2350   -6.8360 C.3   139  SER139      0.2130
     90  OG       -25.9950   37.5350   -8.1870 O.3   139  SER139     -0.2179
     91  N        -27.8200   40.1860   -7.3280 N.am  140  THR140     -0.1950
     92  CA       -27.4980   41.6080   -7.2480 C.3   140  THR140      0.1897
     93  C        -28.4850   42.3470   -6.3450 C.2   140  THR140      0.2313
     94  O        -28.0790   43.0560   -5.4150 O.2   140  THR140     -0.2863
     95  CB       -27.5140   42.2510   -8.6380 C.3   140  THR140      0.1794
     96  OG1      -26.4190   41.7710   -9.4120 O.3   140  THR140     -0.2208
     97  CG2      -27.3270   43.7790   -8.4850 C.3   140  THR140      0.0378
     98  N        -32.3330   40.3130  -18.2640 N.3   171  THR171     -0.1218
     99  CA       -31.2730   41.2680  -18.6110 C.3   171  THR171      0.1862
    100  C        -31.5810   42.0070  -19.9130 C.2   171  THR171      0.2287
    101  O        -31.2160   43.1810  -20.0680 O.2   171  THR171     -0.2866
    102  CB       -29.9270   40.5540  -18.7130 C.3   171  THR171      0.1770
    103  OG1      -29.8710   39.8330  -19.9480 O.3   171  THR171     -0.2211
    104  CG2      -29.8080   39.5620  -17.5920 C.3   171  THR171      0.0375
    105  N        -28.8620   50.5450  -14.9200 N.3   187  TYR187     -0.1241
    106  CA       -29.0630   49.1180  -14.6770 C.3   187  TYR187      0.1605
    107  C        -27.8370   48.5370  -13.9840 C.2   187  TYR187      0.2264
    108  O        -26.7090   48.7080  -14.4580 O.2   187  TYR187     -0.2867
    109  CB       -29.3290   48.3680  -15.9890 C.3   187  TYR187      0.0534
    110  CG       -29.6970   46.9070  -15.8270 C.ar  187  TYR187     -0.0201
    111  CD1      -30.6080   46.5100  -14.8560 C.ar  187  TYR187     -0.0009
    112  CD2      -29.1330   45.9260  -16.6410 C.ar  187  TYR187     -0.0009
    113  CE1      -30.9600   45.1610  -14.7020 C.ar  187  TYR187      0.0417
    114  CE2      -29.4710   44.5860  -16.4980 C.ar  187  TYR187      0.0417
    115  CZ       -30.3810   44.2070  -15.5250 C.ar  187  TYR187      0.1957
    116  OH       -30.7240   42.8790  -15.3740 O.3   187  TYR187     -0.2866
    117  N        -25.6950   45.3190  -12.9700 N.3   189  LEU189     -0.1231
    118  CA       -25.5190   43.9640  -13.4810 C.3   189  LEU189      0.1693
    119  C        -24.0420   43.6060  -13.4020 C.2   189  LEU189      0.2591
    120  O        -23.1950   44.4370  -13.0580 O.2   189  LEU189     -0.2718
    121  CB       -26.0580   43.8240  -14.9190 C.3   189  LEU189      0.0284
    122  CG       -25.1640   44.2730  -16.0940 C.3   189  LEU189      0.0019
    123  CD1      -25.6410   43.6950  -17.4200 C.3   189  LEU189      0.0001
    124  CD2      -25.0090   45.8010  -16.2030 C.3   189  LEU189      0.0001
    125  N        -23.7480   42.3450  -13.7160 N.am  190  GLU190     -0.1979
    126  CA       -22.3800   41.8420  -13.6110 C.3   190  GLU190      0.1602
    127  C        -21.4370   42.6090  -14.5360 C.2   190  GLU190      0.2287
    128  O        -21.7800   42.9340  -15.6740 O.2   190  GLU190     -0.2864
    129  CB       -22.3500   40.3500  -13.9390 C.3   190  GLU190      0.0415
    130  CG       -22.7220   39.4520  -12.7670 C.3   190  GLU190      0.1163
    131  CD       -24.2220   39.2250  -12.6260 C.2   190  GLU190      0.3649
    132  OE1      -25.0190   40.0580  -13.1180 O.co2 190  GLU190     -0.2457
    133  OE2      -24.5990   38.2060  -12.0120 O.co2 190  GLU190     -0.2457
    134  N        -18.8440   41.7510  -16.2000 N.3   192  THR192     -0.1203
    135  CA       -18.5230   41.0570  -17.4470 C.3   192  THR192      0.1994
    136  C        -19.5820   41.2770  -18.5150 C.2   192  THR192      0.2617
    137  O        -19.2630   41.5100  -19.6870 O.2   192  THR192     -0.2717
    138  CB       -18.3860   39.5570  -17.1760 C.3   192  THR192      0.1784
    139  OG1      -19.6090   39.0570  -16.6000 O.3   192  THR192     -0.2211
    140  CG2      -17.2480   39.3070  -16.2400 C.3   192  THR192      0.0376
    141  N        -20.8540   41.1230  -18.1460 N.am  193  MET193     -0.1979
    142  CA       -21.9110   41.3330  -19.1240 C.3   193  MET193      0.1605
    143  C        -22.0030   42.8150  -19.4850 C.2   193  MET193      0.2287
    144  O        -22.2340   43.1720  -20.6460 O.2   193  MET193     -0.2864
    145  CB       -23.2340   40.8190  -18.5590 C.3   193  MET193      0.0413
    146  CG       -24.4060   40.7880  -19.5430 C.3   193  MET193      0.0598
    147  SD       -24.0490   40.0030  -21.1500 S.3   193  MET193     -0.1393
    148  CE       -23.9230   38.2930  -20.6640 C.3   193  MET193      0.0692
    149  N        -16.6400   38.9920   -7.0630 N.3   215  LYS215     -0.1245
    150  CA       -17.1110   37.6350   -7.3690 C.3   215  LYS215      0.1561
    151  C        -16.1360   36.9320   -8.2970 C.2   215  LYS215      0.2260
    152  O        -15.2510   37.5470   -8.8900 O.2   215  LYS215     -0.2867
    153  CB       -18.4810   37.6610   -8.0530 C.3   215  LYS215      0.0271
    154  CG       -19.5910   38.2920   -7.2600 C.3   215  LYS215      0.0035
    155  CD       -20.9250   38.0590   -7.9820 C.3   215  LYS215      0.0206
    156  CE       -21.6770   39.3500   -8.1190 C.3   215  LYS215      0.1093
    157  NZ       -22.4560   39.5940   -6.8700 N.3   215  LYS215     -0.1314
    158  N        -15.8890   33.5450  -11.3510 N.3   217  TYR217     -0.1241
    159  CA       -16.3590   32.3850  -12.1010 C.3   217  TYR217      0.1605
    160  C        -15.3370   31.2670  -11.9920 C.2   217  TYR217      0.2264
    161  O        -14.1320   31.5090  -12.0720 O.2   217  TYR217     -0.2867
    162  CB       -16.5780   32.7220  -13.5750 C.3   217  TYR217      0.0534
    163  CG       -17.6560   33.7420  -13.8430 C.ar  217  TYR217     -0.0201
    164  CD1      -18.7830   33.7970  -13.0530 C.ar  217  TYR217     -0.0009
    165  CD2      -17.5630   34.6150  -14.9300 C.ar  217  TYR217     -0.0009
    166  CE1      -19.8020   34.7370  -13.3120 C.ar  217  TYR217      0.0417
    167  CE2      -18.5600   35.5490  -15.2020 C.ar  217  TYR217      0.0417
    168  CZ       -19.6740   35.6090  -14.3940 C.ar  217  TYR217      0.1957
    169  OH       -20.6510   36.5400  -14.6810 O.3   217  TYR217     -0.2866
@<TRIPOS>BOND
     1    13    12    2
     2    12    11    1
     3    10    11    1
     4     3     4    2
     5     3     2    1
     6     1     2    1
     7    11    14    1
     8     2     5    1
     9    14    15    1
    10     5     6    1
    11   147   148    1
    12   147   146    1
    13    15    17   ar
    14    15    16   ar
    15     8     7   ar
    16    17    19   ar
    17   144   143    2
    18     6     7    1
    19    16    18   ar
    20     7     9   ar
    21   101   100    2
    22   103   102    1
    23   100    99    1
    24    19    20   ar
    25   137   136    2
    26    18    20   ar
    27   146   145    1
    28   143   142    1
    29    20    21    1
    30   142   145    1
    31   142   141    1
    32   102    99    1
    33   102   104    1
    34    99    98    1
    35   136   141   am
    36   136   135    1
    37    40    39    1
    38    40    34    1
    39    39    38    1
    40    33    32    1
    41   135   138    1
    42   135   134    1
    43   123   122    1
    44    34    35    1
    45   138   139    1
    46   138   140    1
    47    38    35    1
    48   112   114   ar
    49   112   110   ar
    50    32    30   ar
    51    32    31   ar
    52   114   115   ar
    53    35    36    1
    54   124   122    1
    55   122   121    1
    56    30    28   ar
    57    31    29   ar
    58   109   110    1
    59   109   106    1
    60   110   111   ar
    61   128   127    2
    62   115   116    1
    63   115   113   ar
    64   167   165   ar
    65   167   168   ar
    66    28    27   ar
    67    36    37    2
    68    36    41   am
    69   165   163   ar
    70    29    27   ar
    71   105   106    1
    72   121   118    1
    73   111   113   ar
    74   169   168    1
    75   106   107    1
    76   127   126    1
    77   108   107    2
    78    73    72    1
    79    27    26    1
    80   168   166   ar
    81    22    23    1
    82    41    42    1
    83   129   126    1
    84   129   130    1
    85   163   162    1
    86   163   164   ar
    87    74    72    1
    88    23    26    1
    89    23    24    1
    90   125   126    1
    91   125   119   am
    92   162   159    1
    93   118   119    1
    94   118   117    1
    95   119   120    2
    96   166   164   ar
    97    72    71    1
    98   132   131   ar
    99    42    45    1
   100    42    43    1
   101    45    46    1
   102   130   131    1
   103   131   133   ar
   104    24    25    2
   105    71    68    1
   106   159   160    1
   107   159   158    1
   108   161   160    2
   109    68    67    1
   110    68    69    1
   111    47    46    1
   112    48    46    1
   113    43    44    2
   114    43    49   am
   115    49    50    1
   116    69    70    2
   117    54    53    1
   118    78    77    2
   119    50    53    1
   120    50    51    1
   121    66    64    1
   122    53    55    1
   123    96    95    1
   124    75    76    1
   125    65    64    1
   126    80    79    1
   127    64    63    2
   128   152   151    2
   129    77    76    1
   130    77    81   am
   131    51    52    2
   132    95    97    1
   133    95    92    1
   134    76    79    1
   135   151   150    1
   136    63    62    1
   137    90    89    1
   138   156   155    1
   139   156   157    1
   140   153   150    1
   141   153   154    1
   142    82    81    1
   143    82    83    1
   144   155   154    1
   145    62    61    1
   146    85    83   am
   147    85    86    1
   148   150   149    1
   149    91    92    1
   150    91    87   am
   151    92    93    1
   152    83    84    2
   153    89    86    1
   154    86    87    1
   155    93    94    2
   156    61    60    1
   157    87    88    2
   158    60    57    1
   159    57    58    1
   160    57    56    1
   161    59    58    2
