@<TRIPOS>MOLECULE
tmp/6fqnA01.pdb
 160 157 0 0 0
SMALL
GASTEIGER

@<TRIPOS>ATOM
      1  N         62.1690  -31.2930   24.5630 N.3    69  ASP69      -0.1239
      2  CA        61.7630  -32.1870   25.6370 C.3    69  ASP69       0.1674
      3  C         62.8790  -32.2940   26.6680 C.2    69  ASP69       0.2266
      4  O         64.0060  -32.6740   26.3290 O.2    69  ASP69      -0.2867
      5  CB        61.4460  -33.5640   25.0680 C.3    69  ASP69       0.1410
      6  CG        60.8740  -34.5220   26.1040 C.2    69  ASP69       0.3668
      7  OD1       59.9950  -35.3200   25.7450 O.co2  69  ASP69      -0.2456
      8  OD2       61.2760  -34.4910   27.2790 O.co2  69  ASP69      -0.2456
      9  N         64.0400  -40.4150   24.9600 N.3    78  SER78      -0.1217
     10  CA        63.3940  -39.1550   24.6270 C.3    78  SER78       0.1889
     11  C         64.3080  -38.2270   23.8450 C.2    78  SER78       0.2288
     12  O         63.8220  -37.4020   23.0510 O.2    78  SER78      -0.2866
     13  CB        62.9230  -38.4480   25.9030 C.3    78  SER78       0.2089
     14  OG        64.0430  -38.0790   26.6850 O.3    78  SER78      -0.2183
     15  N         64.9490  -37.7750   19.8480 N.3    81  TRP81      -0.1241
     16  CA        63.9810  -36.9930   19.0960 C.3    81  TRP81       0.1605
     17  C         64.2190  -35.4910   19.1830 C.2    81  TRP81       0.2264
     18  O         63.5900  -34.7360   18.4310 O.2    81  TRP81      -0.2867
     19  CB        62.5670  -37.3220   19.5870 C.3    81  TRP81       0.0550
     20  CG        62.2730  -38.8000   19.5350 C.ar   81  TRP81       0.0003
     21  CD1       62.1830  -39.6620   20.5900 C.ar   81  TRP81       0.0946
     22  CD2       62.0240  -39.5790   18.3610 C.ar   81  TRP81       0.0152
     23  NE1       61.9060  -40.9350   20.1470 N.ar   81  TRP81      -0.2442
     24  CE2       61.7950  -40.9070   18.7780 C.ar   81  TRP81       0.0810
     25  CE3       61.9850  -39.2830   16.9900 C.ar   81  TRP81       0.0012
     26  CZ2       61.5300  -41.9420   17.8720 C.ar   81  TRP81       0.0191
     27  CZ3       61.7210  -40.3160   16.0890 C.ar   81  TRP81       0.0001
     28  CH2       61.5060  -41.6270   16.5360 C.ar   81  TRP81       0.0015
     29  N         57.8610  -35.8410   11.5880 N.3   114  GLY114     -0.1210
     30  CA        56.7780  -35.5150   12.4930 C.3   114  GLY114      0.1956
     31  C         57.2420  -34.7620   13.7250 C.2   114  GLY114      0.2612
     32  O         58.3690  -34.2570   13.7950 O.2   114  GLY114     -0.2717
     33  N         56.3560  -34.7110   14.7310 N.am  115  GLY115     -0.1942
     34  CA        56.5640  -33.8860   15.9030 C.3   115  GLY115      0.2014
     35  C         55.4150  -32.9360   16.2100 C.2   115  GLY115      0.2639
     36  O         55.6300  -31.8220   16.7140 O.2   115  GLY115     -0.2714
     37  N         54.1890  -33.3630   15.9060 N.am  116  GLY116     -0.1954
     38  CA        53.0160  -32.5760   16.2350 C.3   116  GLY116      0.1869
     39  C         53.0060  -31.1650   15.6980 C.2   116  GLY116      0.2309
     40  O         52.2680  -30.3290   16.2160 O.2   116  GLY116     -0.2863
     41  N         54.8460  -28.9700   16.2870 N.3   118  TYR118     -0.1241
     42  CA        55.5590  -28.1220   17.2360 C.3   118  TYR118      0.1605
     43  C         57.0420  -28.4690   17.3610 C.2   118  TYR118      0.2264
     44  O         57.7830  -27.6920   17.9780 O.2   118  TYR118     -0.2867
     45  CB        54.8980  -28.1690   18.6430 C.3   118  TYR118      0.0534
     46  CG        55.1140  -29.4720   19.3960 C.ar  118  TYR118     -0.0201
     47  CD1       56.2820  -29.7000   20.1260 C.ar  118  TYR118     -0.0009
     48  CD2       54.1590  -30.4760   19.3640 C.ar  118  TYR118     -0.0009
     49  CE1       56.4930  -30.9010   20.7840 C.ar  118  TYR118      0.0417
     50  CE2       54.3610  -31.6730   20.0090 C.ar  118  TYR118      0.0417
     51  CZ        55.5230  -31.8830   20.7240 C.ar  118  TYR118      0.1957
     52  OH        55.6990  -33.0880   21.3770 O.3   118  TYR118     -0.2866
     53  N         66.7770  -40.6970   11.1750 N.3   127  TYR127     -0.1241
     54  CA        66.3620  -40.2110    9.8650 C.3   127  TYR127      0.1605
     55  C         67.4910  -40.2490    8.8410 C.2   127  TYR127      0.2264
     56  O         67.3310  -39.7120    7.7400 O.2   127  TYR127     -0.2867
     57  CB        65.8190  -38.7830    9.9650 C.3   127  TYR127      0.0534
     58  CG        64.5800  -38.6230   10.7970 C.ar  127  TYR127     -0.0201
     59  CD1       63.7480  -39.7000   11.0700 C.ar  127  TYR127     -0.0009
     60  CD2       64.2380  -37.3860   11.3170 C.ar  127  TYR127     -0.0009
     61  CE1       62.6000  -39.5380   11.8520 C.ar  127  TYR127      0.0417
     62  CE2       63.1060  -37.2140   12.0770 C.ar  127  TYR127      0.0417
     63  CZ        62.2860  -38.2910   12.3460 C.ar  127  TYR127      0.1957
     64  OH        61.1550  -38.1040   13.1230 O.3   127  TYR127     -0.2866
     65  N         55.8810  -39.4380    8.9400 N.3   196  GLU196     -0.1245
     66  CA        55.2820  -40.0960   10.0900 C.3   196  GLU196      0.1567
     67  C         54.6440  -39.0650   11.0160 C.2   196  GLU196      0.2260
     68  O         55.1930  -37.9710   11.2180 O.2   196  GLU196     -0.2867
     69  CB        56.3390  -40.9200   10.8280 C.3   196  GLU196      0.0388
     70  CG        55.8180  -41.8670   11.9330 C.3   196  GLU196      0.1160
     71  CD        55.8590  -41.2390   13.3330 C.2   196  GLU196      0.3649
     72  OE1       56.5380  -40.2030   13.5170 O.co2 196  GLU196     -0.2457
     73  OE2       55.1900  -41.7720   14.2460 O.co2 196  GLU196     -0.2457
     74  N         52.9710  -36.1600   12.3170 N.3   197  ALA197     -0.1245
     75  CA        52.6300  -34.8730   11.7260 C.3   197  ALA197      0.1562
     76  C         53.0690  -34.8630   10.2540 C.2   197  ALA197      0.2260
     77  O         52.4390  -34.2310    9.4060 O.2   197  ALA197     -0.2867
     78  CB        53.2780  -33.7340   12.4990 C.3   197  ALA197      0.0290
     79  N         48.1160  -29.5930   20.1610 N.3   286  PHE286     -0.1241
     80  CA        49.3020  -28.7680   20.0540 C.3   286  PHE286      0.1605
     81  C         48.8910  -27.3950   19.5480 C.2   286  PHE286      0.2264
     82  O         47.8300  -27.2260   18.9390 O.2   286  PHE286     -0.2867
     83  CB        50.3420  -29.4370   19.1650 C.3   286  PHE286      0.0534
     84  CG        50.3560  -30.9410   19.2970 C.ar  286  PHE286     -0.0203
     85  CD1       51.0380  -31.5560   20.3390 C.ar  286  PHE286     -0.0042
     86  CD2       49.6620  -31.7350   18.3970 C.ar  286  PHE286     -0.0042
     87  CE1       51.0460  -32.9400   20.4850 C.ar  286  PHE286     -0.0003
     88  CE2       49.6690  -33.1150   18.5120 C.ar  286  PHE286     -0.0003
     89  CZ        50.3630  -33.7220   19.5760 C.ar  286  PHE286     -0.0000
     90  N         49.3170  -46.4780   19.8010 N.3   323  GLU323     -0.1245
     91  CA        49.5300  -45.0850   19.4440 C.3   323  GLU323      0.1567
     92  C         49.3000  -44.1150   20.5930 C.2   323  GLU323      0.2260
     93  O         49.7050  -42.9550   20.4830 O.2   323  GLU323     -0.2867
     94  CB        48.6140  -44.6860   18.2800 C.3   323  GLU323      0.0388
     95  CG        48.8600  -45.4290   16.9650 C.3   323  GLU323      0.1160
     96  CD        50.0800  -44.9360   16.2040 C.2   323  GLU323      0.3649
     97  OE1       50.4690  -45.6200   15.2390 O.co2 323  GLU323     -0.2457
     98  OE2       50.6520  -43.8770   16.5480 O.co2 323  GLU323     -0.2457
     99  N         52.5350  -42.3180   24.3670 N.3   326  PHE326     -0.1227
    100  CA        53.2520  -41.0950   24.7100 C.3   326  PHE326      0.1736
    101  C         52.3030  -40.0190   25.2160 C.2   326  PHE326      0.2595
    102  O         52.6400  -39.2810   26.1500 O.2   326  PHE326     -0.2718
    103  CB        54.0280  -40.5660   23.5110 C.3   326  PHE326      0.0547
    104  CG        55.3670  -41.1970   23.3160 C.ar  326  PHE326     -0.0202
    105  CD1       56.3330  -41.1090   24.2950 C.ar  326  PHE326     -0.0042
    106  CD2       55.6840  -41.8220   22.1150 C.ar  326  PHE326     -0.0042
    107  CE1       57.5850  -41.6700   24.1140 C.ar  326  PHE326     -0.0003
    108  CE2       56.9410  -42.3750   21.9080 C.ar  326  PHE326     -0.0003
    109  CZ        57.8910  -42.3100   22.9130 C.ar  326  PHE326     -0.0000
    110  N         51.1340  -39.8840   24.5800 N.am  327  PHE327     -0.1976
    111  CA        50.1240  -38.9440   25.0580 C.3   327  PHE327      0.1639
    112  C         49.9010  -39.1200   26.5590 C.2   327  PHE327      0.2290
    113  O         49.8230  -38.1410   27.3080 O.2   327  PHE327     -0.2864
    114  CB        48.7890  -39.1580   24.3290 C.3   327  PHE327      0.0560
    115  CG        48.6110  -38.4020   22.9990 C.ar  327  PHE327     -0.0200
    116  CD1       48.6590  -37.0130   22.9310 C.ar  327  PHE327     -0.0042
    117  CD2       48.2740  -39.1010   21.8350 C.ar  327  PHE327     -0.0042
    118  CE1       48.4340  -36.3490   21.7160 C.ar  327  PHE327     -0.0003
    119  CE2       48.0530  -38.4430   20.6230 C.ar  327  PHE327     -0.0003
    120  CZ        48.1320  -37.0710   20.5660 C.ar  327  PHE327     -0.0000
    121  N         53.2330  -38.5840   29.0990 N.3   330  TYR330     -0.1241
    122  CA        53.6030  -37.1910   29.3270 C.3   330  TYR330      0.1605
    123  C         52.4920  -36.3890   29.9830 C.2   330  TYR330      0.2264
    124  O         52.7810  -35.4430   30.7210 O.2   330  TYR330     -0.2867
    125  CB        54.0130  -36.5270   28.0110 C.3   330  TYR330      0.0534
    126  CG        55.4440  -36.8020   27.6740 C.ar  330  TYR330     -0.0201
    127  CD1       55.8480  -38.0730   27.2920 C.ar  330  TYR330     -0.0009
    128  CD2       56.4050  -35.8060   27.7690 C.ar  330  TYR330     -0.0009
    129  CE1       57.1670  -38.3480   27.0090 C.ar  330  TYR330      0.0417
    130  CE2       57.7280  -36.0740   27.4800 C.ar  330  TYR330      0.0417
    131  CZ        58.1010  -37.3500   27.0970 C.ar  330  TYR330      0.1957
    132  OH        59.4160  -37.6380   26.7960 O.3   330  TYR330     -0.2866
    133  N         62.1350  -47.5810   26.4290 N.3   428  TRP428     -0.1241
    134  CA        60.9400  -47.1910   27.1410 C.3   428  TRP428      0.1605
    135  C         60.3360  -48.4170   27.8320 C.2   428  TRP428      0.2264
    136  O         60.5960  -49.5530   27.4310 O.2   428  TRP428     -0.2867
    137  CB        59.9350  -46.5640   26.1720 C.3   428  TRP428      0.0550
    138  CG        60.3770  -45.2630   25.5150 C.ar  428  TRP428      0.0003
    139  CD1       60.8770  -45.0950   24.2330 C.ar  428  TRP428      0.0946
    140  CD2       60.3280  -43.9540   26.0950 C.ar  428  TRP428      0.0152
    141  NE1       61.1510  -43.7600   24.0020 N.ar  428  TRP428     -0.2442
    142  CE2       60.8140  -43.0400   25.1210 C.ar  428  TRP428      0.0810
    143  CE3       59.9160  -43.4610   27.3440 C.ar  428  TRP428      0.0012
    144  CZ2       60.9000  -41.6660   25.3650 C.ar  428  TRP428      0.0191
    145  CZ3       60.0050  -42.0970   27.5860 C.ar  428  TRP428      0.0001
    146  CH2       60.4960  -41.2130   26.5960 C.ar  428  TRP428      0.0015
    147  N         54.1340  -45.5990   19.0900 N.3   436  HIS436     -0.1226
    148  CA        54.2190  -44.5100   18.1300 C.3   436  HIS436      0.1752
    149  C         55.6660  -44.1350   17.8610 C.2   436  HIS436      0.2596
    150  O         56.4100  -43.8390   18.7960 O.2   436  HIS436     -0.2718
    151  CB        53.4540  -43.3020   18.6720 C.3   436  HIS436      0.0759
    152  CG        53.5560  -42.0810   17.8130 C.ar  436  HIS436      0.0818
    153  ND1       54.4560  -41.0670   18.0630 N.ar  436  HIS436     -0.2268
    154  CD2       52.8580  -41.7030   16.7160 C.ar  436  HIS436      0.1154
    155  CE1       54.3150  -40.1180   17.1540 C.ar  436  HIS436      0.1986
    156  NE2       53.3490  -40.4790   16.3260 N.ar  436  HIS436     -0.2212
    157  N         56.0860  -44.1700   16.6030 N.am  437  GLY437     -0.1957
    158  CA        57.3920  -43.6890   16.2180 C.3   437  GLY437      0.1869
    159  C         58.4600  -44.7490   16.0780 C.2   437  GLY437      0.2309
    160  O         59.5400  -44.4520   15.5490 O.2   437  GLY437     -0.2863
@<TRIPOS>BOND
     1    56    55    2
     2    55    54    1
     3    65    66    1
     4    77    76    2
     5    54    57    1
     6    54    53    1
     7    57    58    1
     8    66    69    1
     9    66    67    1
    10    76    75    1
    11    58    59   ar
    12    58    60   ar
    13    69    70    1
    14    67    68    2
    15    59    61   ar
    16    60    62   ar
    17    29    30    1
    18    75    74    1
    19    75    78    1
    20    61    63   ar
    21    70    71    1
    22    62    63   ar
    23    63    64    1
    24    30    31    1
    25    71    72   ar
    26    71    73   ar
    27    31    32    2
    28    31    33   am
    29    33    34    1
    30    97    96   ar
    31   160   159    2
    32    39    40    2
    33    39    38    1
    34    34    35    1
    35    37    35   am
    36    37    38    1
    37   159   158    1
    38    27    28   ar
    39    27    25   ar
    40    96    98   ar
    41    96    95    1
    42    35    36    2
    43   158   157    1
    44    41    42    1
    45   156   154   ar
    46   156   155   ar
    47    28    26   ar
    48   157   149   am
    49   154   152   ar
    50    95    94    1
    51    25    22   ar
    52   155   153   ar
    53    42    43    1
    54    42    45    1
    55    43    44    2
    56   152   153   ar
    57   152   151    1
    58   149   148    1
    59   149   150    2
    60    26    24   ar
    61   148   151    1
    62   148   147    1
    63    94    91    1
    64    22    24   ar
    65    22    20   ar
    66    86    88   ar
    67    86    84   ar
    68    18    17    2
    69    88    89   ar
    70    45    46    1
    71    24    23   ar
    72    82    81    2
    73    16    17    1
    74    16    19    1
    75    16    15    1
    76    83    84    1
    77    83    80    1
    78    84    85   ar
    79    48    46   ar
    80    48    50   ar
    81    46    47   ar
    82    91    90    1
    83    91    92    1
    84    20    19    1
    85    20    21   ar
    86    81    80    1
    87    89    87   ar
    88    50    51   ar
    89    80    79    1
    90    47    49   ar
    91    23    21   ar
    92    85    87   ar
    93    93    92    2
    94   120   119   ar
    95   120   118   ar
    96   119   117   ar
    97    51    49   ar
    98    51    52    1
    99   118   116   ar
   100   117   115   ar
   101   108   106   ar
   102   108   109   ar
   103   106   104   ar
   104   109   107   ar
   105   116   115   ar
   106   115   114    1
   107    12    11    2
   108   104   103    1
   109   104   105   ar
   110   103   100    1
   111    11    10    1
   112   141   139   ar
   113   141   142   ar
   114   107   105   ar
   115   139   138   ar
   116   114   111    1
   117    99   100    1
   118     1     2    1
   119   110   111    1
   120   110   101   am
   121    10     9    1
   122    10    13    1
   123   100   101    1
   124   111   112    1
   125     5     2    1
   126     5     6    1
   127   142   144   ar
   128   142   140   ar
   129   101   102    2
   130   144   146   ar
   131   138   140   ar
   132   138   137    1
   133     2     3    1
   134     7     6   ar
   135    13    14    1
   136   140   143   ar
   137     6     8   ar
   138   137   134    1
   139     4     3    2
   140   133   134    1
   141   112   113    2
   142   146   145   ar
   143   132   131    1
   144   129   131   ar
   145   129   127   ar
   146   131   130   ar
   147   134   135    1
   148   127   126   ar
   149   143   145   ar
   150   136   135    2
   151   130   128   ar
   152   126   128   ar
   153   126   125    1
   154   125   122    1
   155   121   122    1
   156   122   123    1
   157   123   124    2
