@<TRIPOS>MOLECULE
tmp/6fqtA00.pdb
 154 151 0 0 0
SMALL
GASTEIGER

@<TRIPOS>ATOM
      1  N         -3.3370  -10.5130   14.0570 N.3    24  PRO24      -0.2116
      2  CA        -3.8990   -9.5960   15.0630 C.3    24  PRO24       0.1372
      3  C         -2.9320   -8.5970   15.7070 C.2    24  PRO24       0.2244
      4  O         -3.3430   -7.9050   16.6570 O.2    24  PRO24      -0.2868
      5  CB        -4.4050  -10.5600   16.1360 C.3    24  PRO24       0.0268
      6  CG        -3.3900  -11.6980   16.0910 C.3    24  PRO24       0.0207
      7  CD        -2.8950  -11.7860   14.6630 C.3    24  PRO24       0.0892
      8  N         -4.0000   -5.0430   16.3850 N.3    27  LEU27      -0.1231
      9  CA        -5.2530   -4.7910   17.0950 C.3    27  LEU27       0.1678
     10  C         -5.0720   -4.0190   18.4010 C.2    27  LEU27       0.2434
     11  O         -5.9020   -3.1370   18.6770 O.2    27  LEU27      -0.2733
     12  CB        -6.0040   -6.1120   17.3410 C.3    27  LEU27       0.0284
     13  CG        -6.3790   -6.8410   16.0470 C.3    27  LEU27       0.0019
     14  CD1       -7.1500   -8.1570   16.3080 C.3    27  LEU27       0.0001
     15  CD2       -7.1710   -5.9250   15.1480 C.3    27  LEU27       0.0001
     16  N         -4.0550   -4.2750   19.2350 N.am   28  PRO28      -0.2718
     17  CA        -3.9340   -3.4850   20.4630 C.3    28  PRO28       0.1535
     18  C         -3.6410   -2.0240   20.2200 C.2    28  PRO28       0.2598
     19  O         -3.7730   -1.2350   21.1570 O.2    28  PRO28      -0.2715
     20  CB        -2.7750   -4.1450   21.2040 C.3    28  PRO28       0.0310
     21  CG        -2.7830   -5.5750   20.6810 C.3    28  PRO28       0.0237
     22  CD        -3.1290   -5.4380   19.2450 C.3    28  PRO28       0.0939
     23  N         -3.2690   -1.6440   18.9990 N.am   29  PHE29      -0.1974
     24  CA        -2.6890   -0.3320   18.7380 C.3    29  PHE29       0.1639
     25  C         -3.5450    0.5390   17.8350 C.2    29  PHE29       0.2290
     26  O         -3.1520    1.6670   17.5310 O.2    29  PHE29      -0.2864
     27  CB        -1.3070   -0.5160   18.1100 C.3    29  PHE29       0.0560
     28  CG        -0.3800   -1.3390   18.9580 C.ar   29  PHE29      -0.0200
     29  CD1        0.3510   -0.7460   19.9660 C.ar   29  PHE29      -0.0042
     30  CD2       -0.2500   -2.7020   18.7550 C.ar   29  PHE29      -0.0042
     31  CE1        1.1990   -1.4910   20.7570 C.ar   29  PHE29      -0.0003
     32  CE2        0.5760   -3.4470   19.5440 C.ar   29  PHE29      -0.0003
     33  CZ         1.3170   -2.8410   20.5410 C.ar   29  PHE29      -0.0000
     34  N         -6.4050    1.9720   18.3340 N.3    31  GLN31      -0.1231
     35  CA        -7.1780    2.9880   19.0330 C.3    31  GLN31       0.1683
     36  C         -6.4370    3.3180   20.3130 C.2    31  GLN31       0.2434
     37  O         -5.6280    2.5090   20.7910 O.2    31  GLN31      -0.2733
     38  CB        -8.6050    2.5080   19.3350 C.3    31  GLN31       0.0380
     39  CG        -8.6600    1.2760   20.2350 C.3    31  GLN31       0.0905
     40  CD        -8.1840    0.0110   19.5360 C.2    31  GLN31       0.2608
     41  OE1       -8.6100   -0.2780   18.4210 O.2    31  GLN31      -0.2717
     42  NE2       -7.2920   -0.7490   20.1880 N.am   31  GLN31      -0.0878
     43  N         -6.6470    4.5090   20.8750 N.am   32  PRO32      -0.2718
     44  CA        -5.9490    4.8680   22.1100 C.3    32  PRO32       0.1535
     45  C         -6.3020    3.8990   23.2230 C.2    32  PRO32       0.2598
     46  O         -7.4040    3.3480   23.2720 O.2    32  PRO32      -0.2715
     47  CB        -6.4570    6.2860   22.4190 C.3    32  PRO32       0.0310
     48  CG        -6.9920    6.8030   21.1390 C.3    32  PRO32       0.0237
     49  CD        -7.5190    5.5950   20.3920 C.3    32  PRO32       0.0939
     50  N         -5.3330    3.6730   24.1040 N.am   33  VAL33      -0.1964
     51  CA        -5.5510    2.8230   25.2610 C.3    33  VAL33       0.1727
     52  C         -6.5500    3.4930   26.1930 C.2    33  VAL33       0.2616
     53  O         -6.3420    4.6280   26.6400 O.2    33  VAL33      -0.2715
     54  CB        -4.2300    2.5280   25.9770 C.3    33  VAL33       0.0290
     55  CG1       -4.5140    1.9000   27.3470 C.3    33  VAL33       0.0023
     56  CG2       -3.3930    1.6020   25.1020 C.3    33  VAL33       0.0023
     57  N         -7.6590    2.7990   26.4610 N.am   34  ASP34      -0.1971
     58  CA        -8.6710    3.2330   27.4220 C.3    34  ASP34       0.1709
     59  C         -8.5360    2.3630   28.6670 C.2    34  ASP34       0.2293
     60  O         -9.0500    1.2360   28.6950 O.2    34  ASP34      -0.2864
     61  CB       -10.0680    3.0960   26.8110 C.3    34  ASP34       0.1436
     62  CG       -11.2010    3.6100   27.7210 C.2    34  ASP34       0.3671
     63  OD1      -11.1170    3.5470   28.9740 O.co2  34  ASP34      -0.2456
     64  OD2      -12.2170    4.0440   27.1370 O.co2  34  ASP34      -0.2456
     65  N        -11.8980    0.9500   30.1350 N.3    37  LEU37      -0.1231
     66  CA       -12.4940   -0.0550   29.2530 C.3    37  LEU37       0.1693
     67  C        -11.7280   -1.3680   29.3080 C.2    37  LEU37       0.2591
     68  O        -12.3300   -2.4470   29.2610 O.2    37  LEU37      -0.2718
     69  CB       -12.5300    0.4740   27.8130 C.3    37  LEU37       0.0284
     70  CG       -13.4460   -0.1460   26.7610 C.3    37  LEU37       0.0019
     71  CD1      -13.5240    0.7870   25.5800 C.3    37  LEU37       0.0001
     72  CD2      -12.9650   -1.5130   26.2930 C.3    37  LEU37       0.0001
     73  N        -10.4000   -1.2970   29.3820 N.am   38  LEU38      -0.1980
     74  CA        -9.5390   -2.4580   29.2400 C.3    38  LEU38       0.1596
     75  C         -9.2380   -3.1500   30.5590 C.2    38  LEU38       0.2287
     76  O         -8.6370   -4.2280   30.5490 O.2    38  LEU38      -0.2864
     77  CB        -8.2160   -2.0570   28.5740 C.3    38  LEU38       0.0297
     78  CG        -8.2880   -1.6370   27.1060 C.3    38  LEU38       0.0022
     79  CD1       -6.9590   -1.0650   26.5890 C.3    38  LEU38       0.0001
     80  CD2       -8.7460   -2.8030   26.2590 C.3    38  LEU38       0.0001
     81  N         -7.1860   -2.0570   32.9580 N.3    40  ILE40      -0.1245
     82  CA        -5.7960   -1.8620   33.3590 C.3    40  ILE40       0.1561
     83  C         -5.6750   -0.4640   33.9600 C.2    40  ILE40       0.2260
     84  O         -5.0360    0.4210   33.3670 O.2    40  ILE40      -0.2867
     85  CB        -4.8370   -2.0820   32.1780 C.3    40  ILE40       0.0252
     86  CG1       -5.3340   -1.3730   30.9110 C.3    40  ILE40       0.0019
     87  CG2       -4.6780   -3.5760   31.8980 C.3    40  ILE40       0.0019
     88  CD1       -4.2390   -1.2590   29.8400 C.3    40  ILE40       0.0001
     89  N         -2.4990    2.2550   33.9400 N.3    43  TYR43      -0.1241
     90  CA        -1.7380    2.4920   32.7170 C.3    43  TYR43       0.1605
     91  C         -1.0810    3.8730   32.7210 C.2    43  TYR43       0.2264
     92  O          0.1100    4.0110   32.4090 O.2    43  TYR43      -0.2867
     93  CB        -2.6590    2.3160   31.5060 C.3    43  TYR43       0.0534
     94  CG        -1.9830    2.4750   30.1540 C.ar   43  TYR43      -0.0201
     95  CD1       -1.1970    1.4500   29.6160 C.ar   43  TYR43      -0.0009
     96  CD2       -2.1370    3.6420   29.4110 C.ar   43  TYR43      -0.0009
     97  CE1       -0.5800    1.5970   28.3770 C.ar   43  TYR43       0.0417
     98  CE2       -1.5350    3.7980   28.1640 C.ar   43  TYR43       0.0417
     99  CZ        -0.7490    2.7860   27.6530 C.ar   43  TYR43       0.1957
    100  OH        -0.1300    2.9300   26.4250 O.3    43  TYR43      -0.2866
    101  N          4.2850    0.5700   24.7700 N.3    82  ALA82      -0.1245
    102  CA         3.8040   -0.8020   24.8820 C.3    82  ALA82       0.1562
    103  C          4.8620   -1.7100   25.4900 C.2    82  ALA82       0.2260
    104  O          4.5390   -2.5880   26.3060 O.2    82  ALA82      -0.2867
    105  CB         3.3920   -1.3110   23.5000 C.3    82  ALA82       0.0290
    106  N          4.9000   -0.7790   29.3070 N.3    85  TYR85      -0.1227
    107  CA         3.7530   -1.1100   30.1470 C.3    85  TYR85       0.1736
    108  C          3.5460   -2.6180   30.2520 C.2    85  TYR85       0.2595
    109  O          3.2320   -3.1370   31.3370 O.2    85  TYR85      -0.2718
    110  CB         2.4700   -0.4650   29.6120 C.3    85  TYR85       0.0548
    111  CG         1.3230   -0.8520   30.5080 C.ar   85  TYR85      -0.0200
    112  CD1        1.2030   -0.2980   31.7770 C.ar   85  TYR85      -0.0009
    113  CD2        0.4310   -1.8550   30.1350 C.ar   85  TYR85      -0.0009
    114  CE1        0.1830   -0.6770   32.6270 C.ar   85  TYR85       0.0417
    115  CE2       -0.5830   -2.2590   30.9800 C.ar   85  TYR85       0.0417
    116  CZ        -0.6940   -1.6870   32.2250 C.ar   85  TYR85       0.1957
    117  OH        -1.7110   -2.1080   33.0460 O.3    85  TYR85      -0.2866
    118  N          3.6910   -3.3230   29.1380 N.am   86  ASN86      -0.1974
    119  CA         3.3500   -4.7360   29.0610 C.3    86  ASN86       0.1688
    120  C          4.5700   -5.5980   29.3980 C.2    86  ASN86       0.2292
    121  O          5.7100   -5.2160   29.1230 O.2    86  ASN86      -0.2864
    122  CB         2.8210   -5.0430   27.6620 C.3    86  ASN86       0.1181
    123  CG         1.5390   -4.2770   27.3490 C.2    86  ASN86       0.2629
    124  OD1        0.4510   -4.6450   27.8070 O.2    86  ASN86      -0.2716
    125  ND2        1.6680   -3.1840   26.5910 N.am   86  ASN86      -0.0877
    126  N          1.2790  -11.0700   25.4450 N.3    91  ARG91      -0.1231
    127  CA         0.8850  -11.0750   24.0450 C.3    91  ARG91       0.1694
    128  C          1.0840   -9.6970   23.4130 C.2    91  ARG91       0.2591
    129  O          1.6350   -9.5820   22.3130 O.2    91  ARG91      -0.2718
    130  CB        -0.5740  -11.5300   23.9560 C.3    91  ARG91       0.0321
    131  CG        -1.2590  -11.2840   22.6500 C.3    91  ARG91       0.0489
    132  CD        -2.7420  -11.6190   22.7700 C.3    91  ARG91       0.2205
    133  NE        -3.4920  -10.5310   23.3820 N.pl3  91  ARG91      -0.0865
    134  CZ        -3.8850  -10.5210   24.6520 C.cat  91  ARG91       0.5346
    135  NH1       -3.6020  -11.5510   25.4470 N.pl3  91  ARG91       0.1354
    136  NH2       -4.5580   -9.4810   25.1240 N.pl3  91  ARG91       0.1354
    137  N          0.6930   -8.6440   24.1220 N.am   92  VAL92      -0.1980
    138  CA         0.7600   -7.2930   23.5440 C.3    92  VAL92       0.1595
    139  C          2.2170   -6.8830   23.3230 C.2    92  VAL92       0.2287
    140  O          2.5670   -6.2910   22.2920 O.2    92  VAL92      -0.2864
    141  CB        -0.0140   -6.3090   24.4430 C.3    92  VAL92       0.0276
    142  CG1        0.1140   -4.8480   23.9490 C.3    92  VAL92       0.0022
    143  CG2       -1.5150   -6.6680   24.5170 C.3    92  VAL92       0.0022
    144  N          3.2550   -8.6710   20.2310 N.3    95  PHE95      -0.1241
    145  CA         2.6170   -7.9880   19.1070 C.3    95  PHE95       0.1605
    146  C          3.3650   -6.7100   18.7540 C.2    95  PHE95       0.2264
    147  O          3.6410   -6.4320   17.5810 O.2    95  PHE95      -0.2867
    148  CB         1.1660   -7.6540   19.4530 C.3    95  PHE95       0.0534
    149  CG         0.2220   -8.8370   19.3970 C.ar   95  PHE95      -0.0203
    150  CD1        0.6860  -10.1250   19.1790 C.ar   95  PHE95      -0.0042
    151  CD2       -1.1240   -8.6410   19.5680 C.ar   95  PHE95      -0.0042
    152  CE1       -0.1980  -11.2020   19.1320 C.ar   95  PHE95      -0.0003
    153  CE2       -2.0270   -9.7310   19.5200 C.ar   95  PHE95      -0.0003
    154  CZ        -1.5430  -10.9980   19.2880 C.ar   95  PHE95      -0.0000
@<TRIPOS>BOND
     1     1     7    1
     2     1     2    1
     3     7     6    1
     4     2     3    1
     5     2     5    1
     6    15    13    1
     7     3     4    2
     8    13    14    1
     9    13    12    1
    10     6     5    1
    11     8     9    1
    12     9    12    1
    13     9    10    1
    14    26    25    2
    15   147   146    2
    16    25    24    1
    17    27    24    1
    18    27    28    1
    19    34    35    1
    20    10    11    2
    21    10    16   am
    22    41    40    2
    23    24    23    1
    24   146   145    1
    25    30    28   ar
    26    30    32   ar
    27    28    29   ar
    28    23    18   am
    29    35    38    1
    30    35    36    1
    31   145   148    1
    32   145   144    1
    33   152   150   ar
    34   152   154   ar
    35   150   149   ar
    36    16    22    1
    37    16    17    1
    38    22    21    1
    39   154   153   ar
    40    38    39    1
    41   149   148    1
    42   149   151   ar
    43   153   151   ar
    44    40    42   am
    45    40    39    1
    46    32    33   ar
    47    29    31   ar
    48    18    17    1
    49    18    19    2
    50    36    37    2
    51    36    43   am
    52    49    43    1
    53    49    48    1
    54    17    20    1
    55    33    31   ar
    56    21    20    1
    57    43    44    1
    58    48    47    1
    59    44    47    1
    60    44    45    1
    61   140   139    2
    62   129   128    2
    63   131   132    1
    64   131   130    1
    65   132   133    1
    66    45    46    2
    67    45    50   am
    68   139   138    1
    69   133   134    2
    70   128   127    1
    71   128   137   am
    72   105   102    1
    73   138   137    1
    74   138   141    1
    75   142   141    1
    76   130   127    1
    77   127   126    1
    78    50    51    1
    79   141   143    1
    80   134   136    1
    81   134   135    1
    82   101   102    1
    83   102   103    1
    84    56    54    1
    85    51    54    1
    86    51    52    1
    87   103   104    2
    88    71    70    1
    89    54    55    1
    90    52    57   am
    91    52    53    2
    92    80    78    1
    93    72    70    1
    94   100    99    1
    95    57    58    1
    96    79    78    1
    97   125   123   am
    98    70    69    1
    99    61    58    1
   100    61    62    1
   101    78    77    1
   102    64    62   ar
   103   123   122    1
   104   123   124    2
   105    58    59    1
   106    99    98   ar
   107    99    97   ar
   108   122   119    1
   109    62    63   ar
   110    69    66    1
   111    98    96   ar
   112    97    95   ar
   113    77    74    1
   114    59    60    2
   115   119   118    1
   116   119   120    1
   117   121   120    2
   118   118   108   am
   119    74    73    1
   120    74    75    1
   121    66    67    1
   122    66    65    1
   123    68    67    2
   124   106   107    1
   125    67    73   am
   126    96    94   ar
   127   110   107    1
   128   110   111    1
   129    95    94   ar
   130    88    86    1
   131   113   111   ar
   132   113   115   ar
   133   107   108    1
   134    94    93    1
   135   108   109    2
   136   111   112   ar
   137    76    75    2
   138    86    85    1
   139   115   116   ar
   140    93    90    1
   141   112   114   ar
   142    87    85    1
   143    85    82    1
   144   116   114   ar
   145   116   117    1
   146    92    91    2
   147    90    91    1
   148    90    89    1
   149    81    82    1
   150    82    83    1
   151    84    83    2
