@<TRIPOS>MOLECULE
tmp/6fquA00.pdb
 131 126 0 0 0
SMALL
GASTEIGER

@<TRIPOS>ATOM
      1  N          1.0430  -11.2100    5.9540 N.3    25  PRO25      -0.2116
      2  CA         0.9650   -9.9620    5.1840 C.3    25  PRO25       0.1372
      3  C         -0.4320   -9.4760    4.8050 C.2    25  PRO25       0.2244
      4  O         -0.5300   -8.4320    4.1630 O.2    25  PRO25      -0.2868
      5  CB         1.7080  -10.3290    3.8920 C.3    25  PRO25       0.0268
      6  CG         1.3880  -11.7770    3.6960 C.3    25  PRO25       0.0207
      7  CD         1.4050  -12.3590    5.0990 C.3    25  PRO25       0.0892
      8  N         -1.7790   -5.7790    5.1000 N.3    28  LEU28      -0.1231
      9  CA        -0.9430   -4.6590    4.6680 C.3    28  LEU28       0.1678
     10  C         -1.6170   -3.7280    3.6650 C.2    28  LEU28       0.2434
     11  O         -1.5160   -2.5010    3.8430 O.2    28  LEU28      -0.2733
     12  CB         0.4180   -5.1730    4.1710 C.3    28  LEU28       0.0284
     13  CG         1.2700   -5.8810    5.2260 C.3    28  LEU28       0.0019
     14  CD1        2.5780   -6.3740    4.6160 C.3    28  LEU28       0.0001
     15  CD2        1.5380   -4.9830    6.4230 C.3    28  LEU28       0.0001
     16  N         -2.3310   -4.2080    2.6410 N.am   29  PRO29      -0.2718
     17  CA        -2.9780   -3.2800    1.6940 C.3    29  PRO29       0.1535
     18  C         -4.1330   -2.4890    2.2810 C.2    29  PRO29       0.2598
     19  O         -4.6130   -1.5620    1.6100 O.2    29  PRO29      -0.2715
     20  CB        -3.4930   -4.2040    0.5770 C.3    29  PRO29       0.0310
     21  CG        -2.7920   -5.5060    0.7670 C.3    29  PRO29       0.0237
     22  CD        -2.4950   -5.6150    2.2350 C.3    29  PRO29       0.0939
     23  N         -4.6040   -2.8330    3.4870 N.am   30  PHE30      -0.1974
     24  CA        -5.8400   -2.3030    4.0450 C.3    30  PHE30       0.1639
     25  C         -5.6140   -1.4080    5.2490 C.2    30  PHE30       0.2290
     26  O         -6.5880   -0.8760    5.7950 O.2    30  PHE30      -0.2864
     27  CB        -6.7730   -3.4630    4.4170 C.3    30  PHE30       0.0560
     28  CG        -7.0270   -4.3970    3.2720 C.ar   30  PHE30      -0.0200
     29  CD1       -7.9720   -4.0860    2.3140 C.ar   30  PHE30      -0.0042
     30  CD2       -6.2990   -5.5600    3.1350 C.ar   30  PHE30      -0.0042
     31  CE1       -8.1890   -4.9390    1.2300 C.ar   30  PHE30      -0.0003
     32  CE2       -6.5100   -6.4080    2.0770 C.ar   30  PHE30      -0.0003
     33  CZ        -7.4550   -6.0980    1.1170 C.ar   30  PHE30      -0.0000
     34  N         -4.1660    1.5540    5.5590 N.3    32  GLN32      -0.1245
     35  CA        -4.2670    2.9820    5.3170 C.3    32  GLN32       0.1566
     36  C         -5.1160    3.1910    4.0760 C.2    32  GLN32       0.2260
     37  O         -5.2660    2.2730    3.2620 O.2    32  GLN32      -0.2867
     38  CB        -2.8740    3.5980    5.1170 C.3    32  GLN32       0.0367
     39  CG        -2.0600    3.7190    6.3970 C.3    32  GLN32       0.0905
     40  CD        -2.6830    4.6700    7.4030 C.2    32  GLN32       0.2608
     41  OE1       -3.0530    5.7940    7.0630 O.2    32  GLN32      -0.2717
     42  NE2       -2.7990    4.2240    8.6510 N.am   32  GLN32      -0.0878
     43  N         -6.2500    3.8360    0.4100 N.3    34  VAL34      -0.1245
     44  CA        -5.5790    3.6970   -0.8810 C.3    34  VAL34       0.1561
     45  C         -5.1650    5.0720   -1.3890 C.2    34  VAL34       0.2260
     46  O         -5.9790    6.0030   -1.4480 O.2    34  VAL34      -0.2867
     47  CB        -6.5050    2.9990   -1.8860 C.3    34  VAL34       0.0252
     48  CG1       -5.8600    2.9600   -3.2610 C.3    34  VAL34       0.0019
     49  CG2       -6.8630    1.5950   -1.4240 C.3    34  VAL34       0.0019
     50  N          0.4600    4.6420   -5.5180 N.3    39  LEU39      -0.1245
     51  CA         0.4550    3.2510   -5.9430 C.3    39  LEU39       0.1561
     52  C          0.4920    3.0850   -7.4560 C.2    39  LEU39       0.2260
     53  O          0.6290    1.9520   -7.9280 O.2    39  LEU39      -0.2867
     54  CB        -0.7750    2.5390   -5.3800 C.3    39  LEU39       0.0270
     55  CG        -0.8200    2.3870   -3.8600 C.3    39  LEU39       0.0019
     56  CD1       -2.2130    1.9470   -3.4080 C.3    39  LEU39       0.0001
     57  CD2        0.2370    1.4040   -3.3870 C.3    39  LEU39       0.0001
     58  N         -2.0220    3.6740   -9.5900 N.3    41  ILE41      -0.1245
     59  CA        -3.3080    3.1610  -10.0720 C.3    41  ILE41       0.1561
     60  C         -4.3080    4.3070  -10.1990 C.2    41  ILE41       0.2260
     61  O         -5.3070    4.3590   -9.4620 O.2    41  ILE41      -0.2867
     62  CB        -3.8240    1.9990   -9.2040 C.3    41  ILE41       0.0252
     63  CG1       -3.7890    2.3610   -7.7110 C.3    41  ILE41       0.0019
     64  CG2       -3.0020    0.7390   -9.4740 C.3    41  ILE41       0.0019
     65  CD1       -4.6080    1.4100   -6.8170 C.3    41  ILE41       0.0001
     66  N         -8.2910    4.2380   -9.8360 N.3    44  TYR44      -0.1241
     67  CA        -8.9230    3.6550   -8.6500 C.3    44  TYR44       0.1605
     68  C        -10.2370    4.3460   -8.2930 C.2    44  TYR44       0.2264
     69  O        -11.2600    3.6800   -8.0950 O.2    44  TYR44      -0.2867
     70  CB        -7.9530    3.6600   -7.4650 C.3    44  TYR44       0.0534
     71  CG        -8.5330    2.9860   -6.2290 C.ar   44  TYR44      -0.0201
     72  CD1       -8.5470    1.5950   -6.1090 C.ar   44  TYR44      -0.0009
     73  CD2       -9.1050    3.7360   -5.2030 C.ar   44  TYR44      -0.0009
     74  CE1       -9.0910    0.9640   -4.9920 C.ar   44  TYR44       0.0417
     75  CE2       -9.6480    3.1120   -4.0740 C.ar   44  TYR44       0.0417
     76  CZ        -9.6320    1.7300   -3.9820 C.ar   44  TYR44       0.1957
     77  OH       -10.1810    1.0980   -2.8860 O.3    44  TYR44      -0.2866
     78  N        -12.2250   -4.0840   -2.5770 N.3    83  ALA83      -0.1245
     79  CA       -11.0160   -4.7750   -3.0140 C.3    83  ALA83       0.1562
     80  C        -11.3240   -5.8900   -4.0050 C.2    83  ALA83       0.2260
     81  O        -10.5720   -6.0890   -4.9660 O.2    83  ALA83      -0.2867
     82  CB       -10.2520   -5.3070   -1.8000 C.3    83  ALA83       0.0290
     83  N        -12.1470   -3.9810   -7.3780 N.3    86  TYR86      -0.1227
     84  CA       -11.0630   -3.2980   -8.0760 C.3    86  TYR86       0.1736
     85  C         -9.9940   -4.2700   -8.5690 C.2    86  TYR86       0.2595
     86  O         -9.5220   -4.1510   -9.7080 O.2    86  TYR86      -0.2718
     87  CB       -10.4240   -2.2050   -7.1990 C.3    86  TYR86       0.0548
     88  CG        -9.3280   -1.5410   -7.9860 C.ar   86  TYR86      -0.0200
     89  CD1       -9.6320   -0.6230   -8.9870 C.ar   86  TYR86      -0.0009
     90  CD2       -7.9980   -1.9090   -7.8120 C.ar   86  TYR86      -0.0009
     91  CE1       -8.6420   -0.0650   -9.7710 C.ar   86  TYR86       0.0417
     92  CE2       -6.9950   -1.3510   -8.5940 C.ar   86  TYR86       0.0417
     93  CZ        -7.3300   -0.4340   -9.5720 C.ar   86  TYR86       0.1957
     94  OH        -6.3490    0.1200  -10.3700 O.3    86  TYR86      -0.2866
     95  N         -9.5910   -5.2220   -7.7420 N.am   87  ASN87      -0.1974
     96  CA        -8.3990   -6.0140   -8.0030 C.3    87  ASN87       0.1688
     97  C         -8.7440   -7.2890   -8.7650 C.2    87  ASN87       0.2292
     98  O         -9.8570   -7.8160   -8.6750 O.2    87  ASN87      -0.2864
     99  CB        -7.7150   -6.3360   -6.6680 C.3    87  ASN87       0.1181
    100  CG        -7.2440   -5.0870   -5.9580 C.2    87  ASN87       0.2629
    101  OD1       -6.1810   -4.5440   -6.2750 O.2    87  ASN87      -0.2716
    102  ND2       -8.0460   -4.5990   -5.0070 N.am   87  ASN87      -0.0877
    103  N         -2.3930  -10.2280   -5.3380 N.3    92  ARG92      -0.1231
    104  CA        -2.1680  -10.3230   -3.8990 C.3    92  ARG92       0.1694
    105  C         -3.2990   -9.6630   -3.1230 C.2    92  ARG92       0.2591
    106  O         -3.8060  -10.2290   -2.1510 O.2    92  ARG92      -0.2718
    107  CB        -0.8390   -9.6690   -3.5210 C.3    92  ARG92       0.0321
    108  CG         0.3850  -10.4120   -4.0060 C.3    92  ARG92       0.0489
    109  CD         1.6480   -9.5700   -3.8330 C.3    92  ARG92       0.2205
    110  NE         1.5750   -8.3660   -4.6520 N.pl3  92  ARG92      -0.0865
    111  CZ         2.3990   -7.3290   -4.5400 C.cat  92  ARG92       0.5346
    112  NH1        2.2440   -6.2770   -5.3350 N.pl3  92  ARG92       0.1354
    113  NH2        3.3830   -7.3490   -3.6500 N.pl3  92  ARG92       0.1354
    114  N         -3.7030   -8.4550   -3.5200 N.am   93  VAL93      -0.1980
    115  CA        -4.7020   -7.7390   -2.7290 C.3    93  VAL93       0.1595
    116  C         -6.0230   -8.5020   -2.6970 C.2    93  VAL93       0.2287
    117  O         -6.6930   -8.5630   -1.6550 O.2    93  VAL93      -0.2864
    118  CB        -4.8670   -6.2800   -3.2000 C.3    93  VAL93       0.0276
    119  CG1       -6.0030   -5.6110   -2.4380 C.3    93  VAL93       0.0022
    120  CG2       -3.5760   -5.4880   -2.9750 C.3    93  VAL93       0.0022
    121  N         -5.5500  -11.5730   -0.4210 N.3    96  PHE96      -0.1241
    122  CA        -5.4370  -11.1080    0.9600 C.3    96  PHE96       0.1605
    123  C         -6.8020  -10.6800    1.4980 C.2    96  PHE96       0.2264
    124  O         -7.1470  -10.9740    2.6530 O.2    96  PHE96      -0.2867
    125  CB        -4.4310   -9.9550    1.0510 C.3    96  PHE96       0.0534
    126  CG        -2.9830  -10.3590    0.8520 C.ar   96  PHE96      -0.0203
    127  CD1       -2.5990  -11.6890    0.7310 C.ar   96  PHE96      -0.0042
    128  CD2       -2.0050   -9.3820    0.8010 C.ar   96  PHE96      -0.0042
    129  CE1       -1.2530  -12.0260    0.5530 C.ar   96  PHE96      -0.0003
    130  CE2       -0.6610   -9.7120    0.6340 C.ar   96  PHE96      -0.0003
    131  CZ        -0.2880  -11.0380    0.5050 C.ar   96  PHE96      -0.0000
@<TRIPOS>BOND
     1    94    93    1
     2    60    59    1
     3    60    61    2
     4    59    58    1
     5    59    62    1
     6    66    67    1
     7    91    93   ar
     8    91    89   ar
     9    86    85    2
    10    93    92   ar
    11    64    62    1
    12    62    63    1
    13    89    88   ar
    14    97    98    2
    15    97    96    1
    16    67    68    1
    17    67    70    1
    18    92    90   ar
    19    85    84    1
    20    85    95   am
    21    68    69    2
    22    84    83    1
    23    84    87    1
    24    96    95    1
    25    96    99    1
    26    88    90   ar
    27    88    87    1
    28    53    52    2
    29    63    65    1
    30    70    71    1
    31    52    51    1
    32    99   100    1
    33   101   100    2
    34    71    72   ar
    35    71    73   ar
    36    72    74   ar
    37   100   102   am
    38    51    50    1
    39    51    54    1
    40    54    55    1
    41   103   104    1
    42   112   111    1
    43    73    75   ar
    44    74    76   ar
    45    81    80    2
    46   110   111    2
    47   110   109    1
    48   111   113    1
    49    75    76   ar
    50   108   109    1
    51   108   107    1
    52    80    79    1
    53    76    77    1
    54   104   107    1
    55   104   105    1
    56    55    56    1
    57    55    57    1
    58   114   105   am
    59   114   115    1
    60    48    47    1
    61   118   120    1
    62   118   115    1
    63   118   119    1
    64   105   106    2
    65    79    78    1
    66    79    82    1
    67   115   116    1
    68   116   117    2
    69    47    49    1
    70    47    44    1
    71    46    45    2
    72    45    44    1
    73    44    43    1
    74   121   122    1
    75   131   129   ar
    76   131   130   ar
    77   129   127   ar
    78    20    21    1
    79    20    17    1
    80   130   128   ar
    81   127   126   ar
    82    21    22    1
    83   128   126   ar
    84   126   125    1
    85   122   125    1
    86   122   123    1
    87    33    31   ar
    88    33    32   ar
    89    31    29   ar
    90   123   124    2
    91    19    18    2
    92    17    18    1
    93    17    16    1
    94    32    30   ar
    95    22    16    1
    96    18    23   am
    97    29    28   ar
    98    16    10   am
    99    30    28   ar
   100    37    36    2
   101    28    27    1
   102    23    24    1
   103    10    11    2
   104    10     9    1
   105     6     5    1
   106     6     7    1
   107     5     2    1
   108    24    27    1
   109    24    25    1
   110    36    35    1
   111     4     3    2
   112    12     9    1
   113    12    13    1
   114    14    13    1
   115     9     8    1
   116     3     2    1
   117     7     1    1
   118    38    35    1
   119    38    39    1
   120     2     1    1
   121    13    15    1
   122    25    26    2
   123    35    34    1
   124    39    40    1
   125    41    40    2
   126    40    42   am
