@<TRIPOS>MOLECULE
tmp/6fqxC00.pdb
 105 98 0 0 0
SMALL
GASTEIGER

@<TRIPOS>ATOM
      1  N        -18.3980   35.1090   45.4020 N.3   102  ASN102     -0.1240
      2  CA       -17.3090   36.0900   45.4270 C.3   102  ASN102      0.1653
      3  C        -16.0270   35.3920   45.8380 C.2   102  ASN102      0.2266
      4  O        -15.7830   35.1570   47.0230 O.2   102  ASN102     -0.2867
      5  CB       -17.6010   37.2530   46.3640 C.3   102  ASN102      0.1155
      6  CG       -18.6720   38.1570   45.8450 C.2   102  ASN102      0.2627
      7  OD1      -19.4540   37.7720   44.9680 O.2   102  ASN102     -0.2716
      8  ND2      -18.7010   39.3950   46.3540 N.am  102  ASN102     -0.0877
      9  N        -23.5900   40.5030   40.5060 N.3   128  SER128     -0.1202
     10  CA       -23.9180   41.6300   41.3620 C.3   128  SER128      0.2020
     11  C        -25.3870   41.9740   41.1920 C.2   128  SER128      0.2619
     12  O        -25.9310   41.8820   40.0870 O.2   128  SER128     -0.2717
     13  CB       -23.0500   42.8510   41.0670 C.3   128  SER128      0.2103
     14  OG       -23.4820   43.9170   41.8840 O.3   128  SER128     -0.2182
     15  N        -26.0290   42.3660   42.2840 N.am  129  GLY129     -0.1956
     16  CA       -27.4180   42.7650   42.1960 C.3   129  GLY129      0.1869
     17  C        -28.2310   42.4580   43.4340 C.2   129  GLY129      0.2309
     18  O        -29.4180   42.7850   43.4850 O.2   129  GLY129     -0.2863
     19  N        -15.3410   41.6770   39.5530 N.3   182  LYS182     -0.1245
     20  CA       -16.3200   41.7780   40.6320 C.3   182  LYS182      0.1561
     21  C        -15.6970   42.3260   41.9090 C.2   182  LYS182      0.2260
     22  O        -16.3460   43.0870   42.6400 O.2   182  LYS182     -0.2867
     23  CB       -16.9830   40.4290   40.8870 C.3   182  LYS182      0.0271
     24  CG       -17.8240   40.4180   42.1520 C.3   182  LYS182      0.0035
     25  CD       -19.0660   41.2320   41.9740 C.3   182  LYS182      0.0206
     26  CE       -19.7950   41.4840   43.3020 C.3   182  LYS182      0.1093
     27  NZ       -20.2890   40.2890   44.0140 N.3   182  LYS182     -0.1314
     28  N        -15.4680   45.9900   41.4360 N.3   185  HIS185     -0.1226
     29  CA       -16.8320   46.4910   41.5820 C.3   185  HIS185      0.1752
     30  C        -17.1410   46.7910   43.0470 C.2   185  HIS185      0.2596
     31  O        -17.5800   47.8940   43.3930 O.2   185  HIS185     -0.2718
     32  CB       -17.8390   45.4760   41.0340 C.3   185  HIS185      0.0759
     33  CG       -19.2570   45.7610   41.4450 C.ar  185  HIS185      0.0818
     34  ND1      -19.7610   45.4250   42.6840 N.ar  185  HIS185     -0.2268
     35  CD2      -20.2720   46.3690   40.7830 C.ar  185  HIS185      0.1154
     36  CE1      -21.0210   45.8120   42.7690 C.ar  185  HIS185      0.1986
     37  NE2      -21.3580   46.3840   41.6270 N.ar  185  HIS185     -0.2212
     38  N        -16.8810   45.8140   43.9280 N.am  186  ASN186     -0.1974
     39  CA       -17.1300   46.0050   45.3510 C.3   186  ASN186      0.1688
     40  C        -16.2460   47.1020   45.9480 C.2   186  ASN186      0.2292
     41  O        -16.6820   47.8170   46.8580 O.2   186  ASN186     -0.2864
     42  CB       -16.9000   44.6770   46.0860 C.3   186  ASN186      0.1181
     43  CG       -18.0370   43.6700   45.8910 C.2   186  ASN186      0.2629
     44  OD1      -19.0210   43.9380   45.2100 O.2   186  ASN186     -0.2716
     45  ND2      -17.8830   42.4870   46.4830 N.am  186  ASN186     -0.0877
     46  N        -17.8670   50.2120   45.0490 N.3   189  GLU189     -0.1182
     47  CA       -19.0880   50.2280   45.8520 C.3   189  GLU189      0.1915
     48  C        -18.8080   50.7420   47.2590 C.2   189  GLU189      0.2634
     49  O        -19.5780   51.5520   47.7940 O.2   189  GLU189     -0.2714
     50  CB       -19.7160   48.8220   45.8890 C.2   189  GLU189      0.0085
     51  CG       -20.6690   48.5370   47.0770 C.2   189  GLU189      0.0835
     52  CD       -21.0630   47.0370   47.2690 C.2   189  GLU189      0.3877
     53  OE1      -21.3020   46.2710   46.2840 O.co2 189  GLU189     -0.2406
     54  OE2      -21.1140   46.6190   48.4560 O.co2 189  GLU189     -0.2406
     55  N        -17.7190   50.2710   47.8820 N.am  190  TYR190     -0.1973
     56  CA       -17.3550   50.7400   49.2210 C.3   190  TYR190      0.1639
     57  C        -17.0870   52.2420   49.2200 C.2   190  TYR190      0.2290
     58  O        -17.4490   52.9450   50.1750 O.2   190  TYR190     -0.2864
     59  CB       -16.1240   49.9830   49.7400 C.3   190  TYR190      0.0560
     60  CG       -16.3980   48.6550   50.4580 C.ar  190  TYR190     -0.0198
     61  CD1      -17.2720   47.7200   49.9320 C.ar  190  TYR190     -0.0009
     62  CD2      -15.7210   48.3210   51.6350 C.ar  190  TYR190     -0.0009
     63  CE1      -17.4840   46.5210   50.5650 C.ar  190  TYR190      0.0417
     64  CE2      -15.9450   47.1180   52.2820 C.ar  190  TYR190      0.0417
     65  CZ       -16.8220   46.2200   51.7460 C.ar  190  TYR190      0.1957
     66  OH       -17.0470   45.0090   52.3790 O.3   190  TYR190     -0.2866
     67  N        -15.9740   43.4460   55.5460 N.3   260  LYS260     -0.1245
     68  CA       -16.3860   42.0560   55.3540 C.3   260  LYS260      0.1561
     69  C        -16.0110   41.5990   53.9500 C.2   260  LYS260      0.2260
     70  O        -16.4580   42.1850   52.9540 O.2   260  LYS260     -0.2867
     71  CB       -17.8950   41.8870   55.5770 C.3   260  LYS260      0.0271
     72  CG       -18.5540   40.7530   54.7570 C.3   260  LYS260      0.0035
     73  CD       -20.0850   40.9210   54.6500 C.3   260  LYS260      0.0206
     74  CE       -20.6920   40.1350   53.4660 C.3   260  LYS260      0.1093
     75  NZ       -20.9600   40.9840   52.2570 N.3   260  LYS260     -0.1314
     76  N        -14.9080   40.7600   50.3940 N.3   262  THR262     -0.1203
     77  CA       -14.2240   41.2350   49.1950 C.3   262  THR262      0.1994
     78  C        -13.7250   42.6780   49.3080 C.2   262  THR262      0.2618
     79  O        -12.8490   43.0710   48.5210 O.2   262  THR262     -0.2717
     80  CB       -15.1790   41.0720   47.9860 C.3   262  THR262      0.1784
     81  OG1      -15.6830   39.7260   47.9350 O.3   262  THR262     -0.2211
     82  CG2      -14.4950   41.3900   46.6500 C.3   262  THR262      0.0376
     83  N        -14.1920   43.4460   50.3080 N.am  263  GLY263     -0.1956
     84  CA       -13.7400   44.8300   50.4550 C.3   263  GLY263      0.1869
     85  C        -12.2390   44.9440   50.6610 C.2   263  GLY263      0.2309
     86  O        -11.5520   45.6980   49.9590 O.2   263  GLY263     -0.2863
     87  N        -14.9690   51.7650   58.2190 N.3   287  ARG287     -0.1245
     88  CA       -15.6200   50.5380   58.6480 C.3   287  ARG287      0.1563
     89  C        -14.8440   49.8920   59.7900 C.2   287  ARG287      0.2260
     90  O        -15.4460   49.4260   60.7670 O.2   287  ARG287     -0.2867
     91  CB       -15.7960   49.5700   57.4650 C.3   287  ARG287      0.0307
     92  CG       -16.8760   50.0110   56.4220 C.3   287  ARG287      0.0489
     93  CD       -17.2540   48.9110   55.4630 C.3   287  ARG287      0.2205
     94  NE       -18.0610   49.3560   54.3200 N.pl3 287  ARG287     -0.0865
     95  CZ       -18.9300   48.5720   53.6680 C.cat 287  ARG287      0.5346
     96  NH1      -19.1180   47.3140   54.0620 N.pl3 287  ARG287      0.1354
     97  NH2      -19.6080   49.0270   52.6130 N.pl3 287  ARG287      0.1354
     98  N        -24.9380   47.0690   41.9560 N.3   367  ILE367     -0.1245
     99  CA       -25.1510   48.0330   43.0310 C.3   367  ILE367      0.1561
    100  C        -24.6500   49.4140   42.6420 C.2   367  ILE367      0.2260
    101  O        -25.1400   50.4240   43.1530 O.2   367  ILE367     -0.2867
    102  CB       -24.4580   47.5370   44.3140 C.3   367  ILE367      0.0252
    103  CG1      -24.9590   46.1430   44.7000 C.3   367  ILE367      0.0019
    104  CG2      -24.6140   48.5250   45.4430 C.3   367  ILE367      0.0019
    105  CD1      -26.3750   46.0810   45.1240 C.3   367  ILE367      0.0001
@<TRIPOS>BOND
     1    19    20    1
     2    12    11    2
     3     9    10    1
     4    20    23    1
     5    20    21    1
     6    35    33   ar
     7    35    37   ar
     8    23    24    1
     9    32    33    1
    10    32    29    1
    11    13    10    1
    12    13    14    1
    13    11    10    1
    14    11    15   am
    15    28    29    1
    16    33    34   ar
    17    29    30    1
    18    37    36   ar
    19    21    22    2
    20    98    99    1
    21    25    24    1
    22    25    26    1
    23    16    15    1
    24    16    17    1
    25   100    99    1
    26   100   101    2
    27    34    36   ar
    28    99   102    1
    29    30    31    2
    30    30    38   am
    31    26    27    1
    32    17    18    2
    33    38    39    1
    34   102   103    1
    35   102   104    1
    36   103   105    1
    37     7     6    2
    38    46    47    1
    39    44    43    2
    40    39    40    1
    41    39    42    1
    42     1     2    1
    43     2     3    1
    44     2     5    1
    45     3     4    2
    46     6     8   am
    47     6     5    1
    48    47    50    1
    49    47    48    1
    50    50    51    2
    51    43    42    1
    52    43    45   am
    53    40    41    2
    54    53    52   ar
    55    82    80    1
    56    51    52    1
    57    48    49    2
    58    48    55   am
    59    52    54   ar
    60    55    56    1
    61    81    80    1
    62    80    77    1
    63    79    78    2
    64    77    78    1
    65    77    76    1
    66    57    56    1
    67    57    58    2
    68    56    59    1
    69    78    83   am
    70    59    60    1
    71    61    60   ar
    72    61    63   ar
    73    86    85    2
    74    83    84    1
    75    84    85    1
    76    60    62   ar
    77    63    65   ar
    78    62    64   ar
    79    65    64   ar
    80    65    66    1
    81    75    74    1
    82    97    95    1
    83    70    69    2
    84    74    73    1
    85    95    96    1
    86    95    94    2
    87    69    68    1
    88    94    93    1
    89    73    72    1
    90    72    71    1
    91    68    67    1
    92    68    71    1
    93    93    92    1
    94    92    91    1
    95    91    88    1
    96    87    88    1
    97    88    89    1
    98    89    90    2
