@<TRIPOS>MOLECULE
tmp/6fqxB01.pdb
 111 102 0 0 0
SMALL
GASTEIGER

@<TRIPOS>ATOM
      1  N         23.0270   51.1530   30.7470 N.3    12  MET12      -0.1245
      2  CA        23.3780   50.7360   29.3910 C.3    12  MET12       0.1570
      3  C         22.1330   50.5480   28.5200 C.2    12  MET12       0.2261
      4  O         22.0980   51.0050   27.3710 O.2    12  MET12      -0.2867
      5  CB        24.2310   49.4650   29.4620 C.3    12  MET12       0.0387
      6  CG        25.0020   49.1230   28.1900 C.3    12  MET12       0.0595
      7  SD        24.2120   47.9650   27.0710 S.3    12  MET12      -0.1393
      8  CE        24.1620   46.4980   28.0920 C.3    12  MET12       0.0692
      9  N         26.0530   39.3720   27.6840 N.3   102  ASN102     -0.1240
     10  CA        27.3090   38.6350   27.5610 C.3   102  ASN102      0.1653
     11  C         27.0290   37.2180   28.0360 C.2   102  ASN102      0.2266
     12  O         26.9930   36.9450   29.2410 O.2   102  ASN102     -0.2867
     13  CB        28.4230   39.2990   28.3640 C.3   102  ASN102      0.1155
     14  CG        28.7410   40.7060   27.8650 C.2   102  ASN102      0.2627
     15  OD1       28.7200   40.9860   26.6500 O.2   102  ASN102     -0.2716
     16  ND2       29.0230   41.6030   28.7990 N.am  102  ASN102     -0.0877
     17  N         27.6630   42.9760   22.3760 N.3   127  VAL127     -0.1231
     18  CA        27.7670   44.4260   22.2210 C.3   127  VAL127      0.1692
     19  C         28.8520   44.9310   23.1670 C.2   127  VAL127      0.2593
     20  O         28.9350   44.4900   24.3200 O.2   127  VAL127     -0.2718
     21  CB        26.4160   45.1610   22.4670 C.3   127  VAL127      0.0266
     22  CG1       25.2650   44.4290   21.8070 C.3   127  VAL127      0.0020
     23  CG2       26.1280   45.3700   23.9330 C.3   127  VAL127      0.0020
     24  N         29.7130   45.8190   22.6770 N.am  128  SER128     -0.1938
     25  CA        30.7550   46.3790   23.5210 C.3   128  SER128      0.2055
     26  C         30.7740   47.8930   23.3950 C.2   128  SER128      0.2644
     27  O         30.5800   48.4320   22.3030 O.2   128  SER128     -0.2714
     28  CB        32.1190   45.8350   23.1600 C.3   128  SER128      0.2130
     29  OG        33.0950   46.4770   23.9690 O.3   128  SER128     -0.2179
     30  N         31.0570   48.5830   24.4990 N.am  129  GLY129     -0.1939
     31  CA        31.1220   50.0230   24.3920 C.3   129  GLY129      0.2014
     32  C         30.8500   50.8270   25.6430 C.2   129  GLY129      0.2639
     33  O         30.8250   52.0690   25.5990 O.2   129  GLY129     -0.2714
     34  N         30.6280   50.1350   26.7580 N.am  130  GLY130     -0.1954
     35  CA        30.3170   50.8210   27.9950 C.3   130  GLY130      0.1869
     36  C         28.9940   51.5410   27.8360 C.2   130  GLY130      0.2309
     37  O         28.2410   51.2960   26.8910 O.2   130  GLY130     -0.2863
     38  N         32.4200   38.1190   21.1340 N.3   182  LYS182     -0.1245
     39  CA        32.4290   39.0890   22.2300 C.3   182  LYS182      0.1561
     40  C         33.2790   38.5680   23.3790 C.2   182  LYS182      0.2260
     41  O         34.0000   39.3410   24.0240 O.2   182  LYS182     -0.2867
     42  CB        31.0070   39.4130   22.7020 C.3   182  LYS182      0.0271
     43  CG        30.9560   40.2250   24.0090 C.3   182  LYS182      0.0035
     44  CD        31.4060   41.6640   23.8110 C.3   182  LYS182      0.0206
     45  CE        31.6110   42.4160   25.1280 C.3   182  LYS182      0.1093
     46  NZ        30.4290   42.6010   25.9930 N.3   182  LYS182     -0.1314
     47  N         36.6120   40.4590   25.0780 N.3   186  ASN186     -0.1240
     48  CA        36.9240   40.6680   26.4820 C.3   186  ASN186      0.1653
     49  C         38.2200   39.9720   26.8830 C.2   186  ASN186      0.2266
     50  O         38.9450   40.4810   27.7430 O.2   186  ASN186     -0.2867
     51  CB        35.7460   40.1810   27.3360 C.3   186  ASN186      0.1155
     52  CG        34.5590   41.1570   27.3090 C.2   186  ASN186      0.2627
     53  OD1       34.6040   42.2110   26.6630 O.2   186  ASN186     -0.2716
     54  ND2       33.4810   40.7860   27.9810 N.am  186  ASN186     -0.0877
     55  N         40.7190   42.3000   25.6740 N.3   189  GLU189     -0.1231
     56  CA        40.6240   43.5050   26.5020 C.3   189  GLU189      0.1699
     57  C         41.4040   43.3290   27.8070 C.2   189  GLU189      0.2592
     58  O         42.1400   44.2370   28.2380 O.2   189  GLU189     -0.2718
     59  CB        39.1500   43.8410   26.7760 C.3   189  GLU189      0.0402
     60  CG        38.9090   44.7530   27.9760 C.3   189  GLU189      0.1161
     61  CD        37.4530   44.7930   28.4420 C.2   189  GLU189      0.3649
     62  OE1       36.5090   44.7700   27.6080 O.co2 189  GLU189     -0.2457
     63  OE2       37.2670   44.8170   29.6830 O.co2 189  GLU189     -0.2457
     64  N         41.2660   42.1490   28.4400 N.am  190  TYR190     -0.1976
     65  CA        41.9740   41.8790   29.6910 C.3   190  TYR190      0.1639
     66  C         43.4820   42.0030   29.5270 C.2   190  TYR190      0.2290
     67  O         44.1520   42.5770   30.3920 O.2   190  TYR190     -0.2864
     68  CB        41.6400   40.4860   30.2040 C.3   190  TYR190      0.0560
     69  CG        40.4530   40.3750   31.1180 C.ar  190  TYR190     -0.0198
     70  CD1       39.2580   41.0060   30.8240 C.ar  190  TYR190     -0.0009
     71  CD2       40.5130   39.5860   32.2740 C.ar  190  TYR190     -0.0009
     72  CE1       38.1580   40.8790   31.6590 C.ar  190  TYR190      0.0417
     73  CE2       39.4030   39.4420   33.1180 C.ar  190  TYR190      0.0417
     74  CZ        38.2330   40.0950   32.8010 C.ar  190  TYR190      0.1957
     75  OH        37.1360   39.9770   33.6250 O.3   190  TYR190     -0.2866
     76  N         44.6870   45.6660   29.2180 N.3   193  MET193     -0.1245
     77  CA        44.7080   46.2970   30.5290 C.3   193  MET193      0.1570
     78  C         45.9160   45.8550   31.3490 C.2   193  MET193      0.2261
     79  O         46.5500   46.6800   32.0230 O.2   193  MET193     -0.2867
     80  CB        43.3920   46.0090   31.2400 C.3   193  MET193      0.0387
     81  CG        42.2120   46.6560   30.5200 C.3   193  MET193      0.0595
     82  SD        40.5890   46.2140   31.1550 S.3   193  MET193     -0.1393
     83  CE        40.7190   46.7750   32.8380 C.3   193  MET193      0.0692
     84  N         36.0510   37.9090   36.8950 N.3   260  LYS260     -0.1245
     85  CA        34.6460   37.5180   36.9980 C.3   260  LYS260      0.1561
     86  C         33.9990   37.4960   35.6230 C.2   260  LYS260      0.2260
     87  O         33.9710   38.5210   34.9300 O.2   260  LYS260     -0.2867
     88  CB        33.8750   38.4530   37.9420 C.3   260  LYS260      0.0271
     89  CG        33.4500   37.7660   39.2400 C.3   260  LYS260      0.0035
     90  CD        33.0390   38.7620   40.2990 C.3   260  LYS260      0.0206
     91  CE        32.1340   38.1090   41.3200 C.3   260  LYS260      0.1093
     92  NZ        31.1090   39.0680   41.8020 N.3   260  LYS260     -0.1314
     93  N         44.8440   39.2340   38.1100 N.3   287  ARG287     -0.1245
     94  CA        43.5740   39.5730   38.7340 C.3   287  ARG287      0.1563
     95  C         43.2230   38.5780   39.8280 C.2   287  ARG287      0.2260
     96  O         42.7170   38.9610   40.8920 O.2   287  ARG287     -0.2867
     97  CB        42.4660   39.6370   37.6890 C.3   287  ARG287      0.0307
     98  CG        42.5250   40.8430   36.7720 C.3   287  ARG287      0.0489
     99  CD        41.2340   40.9630   36.0080 C.3   287  ARG287      0.2205
    100  NE        41.2870   41.9560   34.9390 N.pl3 287  ARG287     -0.0865
    101  CZ        40.2200   42.6120   34.5020 C.cat 287  ARG287      0.5346
    102  NH1       39.0270   42.3970   35.0520 N.pl3 287  ARG287      0.1354
    103  NH2       40.3430   43.4680   33.5040 N.pl3 287  ARG287      0.1354
    104  N         35.6730   48.4930   23.5320 N.3   367  ILE367     -0.1245
    105  CA        36.6590   48.9260   24.5190 C.3   367  ILE367      0.1561
    106  C         38.1010   48.8030   23.9940 C.2   367  ILE367      0.2260
    107  O         38.9670   49.6040   24.3790 O.2   367  ILE367     -0.2867
    108  CB        36.4450   48.1480   25.8330 C.3   367  ILE367      0.0252
    109  CG1       34.9890   48.3070   26.3270 C.3   367  ILE367      0.0019
    110  CG2       37.4150   48.5890   26.8850 C.3   367  ILE367      0.0019
    111  CD1       34.5650   49.7070   26.7700 C.3   367  ILE367      0.0001
@<TRIPOS>BOND
     1    38    39    1
     2    22    21    1
     3    18    17    1
     4    18    21    1
     5    18    19    1
     6    39    42    1
     7    39    40    1
     8    27    26    2
     9    21    23    1
    10    24    19   am
    11    24    25    1
    12    42    43    1
    13    28    25    1
    14    28    29    1
    15    19    20    2
    16    40    41    2
    17    26    25    1
    18    26    30   am
    19   104   105    1
    20    44    43    1
    21    44    45    1
    22   106   107    2
    23   106   105    1
    24    31    30    1
    25    31    32    1
    26   105   108    1
    27    47    48    1
    28    45    46    1
    29    33    32    2
    30    32    34   am
    31    55    56    1
    32   108   109    1
    33   108   110    1
    34   109   111    1
    35    48    49    1
    36    48    51    1
    37    56    59    1
    38    56    57    1
    39    15    14    2
    40    53    52    2
    41    34    35    1
    42    59    60    1
    43    49    50    2
    44    37    36    2
    45     7     8    1
    46     7     6    1
    47    52    51    1
    48    52    54   am
    49     4     3    2
    50    10     9    1
    51    10    11    1
    52    10    13    1
    53    62    61   ar
    54    57    58    2
    55    57    64   am
    56    36    35    1
    57    14    13    1
    58    14    16   am
    59    60    61    1
    60    11    12    2
    61     6     5    1
    62    64    65    1
    63    61    63   ar
    64     3     2    1
    65    76    77    1
    66     2     5    1
    67     2     1    1
    68    66    65    1
    69    66    67    2
    70    65    68    1
    71    68    69    1
    72    81    82    1
    73    81    80    1
    74    77    80    1
    75    77    78    1
    76    70    69   ar
    77    70    72   ar
    78    69    71   ar
    79    82    83    1
    80    78    79    2
    81    72    74   ar
    82    71    73   ar
    83    74    73   ar
    84    74    75    1
    85   103   101    1
    86   101   100    2
    87   101   102    1
    88    87    86    2
    89   100    99    1
    90    86    85    1
    91    99    98    1
    92    98    97    1
    93    84    85    1
    94    85    88    1
    95    97    94    1
    96    88    89    1
    97    93    94    1
    98    94    95    1
    99    89    90    1
   100    95    96    2
   101    90    91    1
   102    91    92    1
