@<TRIPOS>MOLECULE
tmp/6fqyA00.pdb
 106 101 0 0 0
SMALL
GASTEIGER

@<TRIPOS>ATOM
      1  N         84.5620   35.1200   23.6450 N.3     8  GLY8       -0.1210
      2  CA        85.0080   35.5970   22.3490 C.3     8  GLY8        0.1956
      3  C         86.2830   34.9430   21.8570 C.2     8  GLY8        0.2612
      4  O         87.3890   35.3430   22.2330 O.2     8  GLY8       -0.2717
      5  N         86.1280   33.9200   21.0220 N.am    9  LEU9       -0.1965
      6  CA        87.2340   33.1150   20.5050 C.3     9  LEU9        0.1728
      7  C         87.5020   33.4480   19.0410 C.2     9  LEU9        0.2616
      8  O         87.0930   32.7180   18.1370 O.2     9  LEU9       -0.2715
      9  CB        86.9310   31.6550   20.6740 C.3     9  LEU9        0.0311
     10  CG        86.9980   31.0590   22.0710 C.3     9  LEU9        0.0022
     11  CD1       85.8730   31.5540   22.9430 C.3     9  LEU9        0.0001
     12  CD2       86.9000   29.5790   21.8910 C.3     9  LEU9        0.0001
     13  N         88.2130   34.5440   18.8040 N.am   10  ALA10      -0.1963
     14  CA        88.6920   34.7980   17.4530 C.3    10  ALA10       0.1728
     15  C         90.0780   34.1890   17.3080 C.2    10  ALA10       0.2616
     16  O         90.3960   33.2000   17.9740 O.2    10  ALA10      -0.2715
     17  CB        88.7150   36.2960   17.1500 C.3    10  ALA10       0.0334
     18  N         90.9260   34.7800   16.4630 N.am   11  VAL11      -0.1977
     19  CA        92.3160   34.3380   16.3990 C.3    11  VAL11       0.1596
     20  C         93.1000   34.8580   17.5900 C.2    11  VAL11       0.2287
     21  O         94.2320   34.4200   17.8260 O.2    11  VAL11      -0.2864
     22  CB        92.9800   34.7790   15.0800 C.3    11  VAL11       0.0276
     23  CG1       93.3050   36.2650   15.1140 C.3    11  VAL11       0.0022
     24  CG2       94.2240   33.9410   14.7850 C.3    11  VAL11       0.0022
     25  N         81.7200   30.7790   23.0890 N.3    31  ASN31      -0.1225
     26  CA        81.5750   31.5810   21.8820 C.3    31  ASN31       0.1785
     27  C         80.1200   31.5460   21.4410 C.2    31  ASN31       0.2597
     28  O         79.3980   30.5840   21.7200 O.2    31  ASN31      -0.2718
     29  CB        82.4800   31.0750   20.7490 C.3    31  ASN31       0.1169
     30  CG        82.9710   32.1950   19.8440 C.2    31  ASN31       0.2627
     31  OD1       83.6500   33.1190   20.2920 O.2    31  ASN31      -0.2716
     32  ND2       82.6350   32.1110   18.5600 N.am   31  ASN31      -0.0877
     33  N         79.6890   32.6140   20.7620 N.am   32  ARG32      -0.1966
     34  CA        78.3410   32.6360   20.2000 C.3    32  ARG32       0.1729
     35  C         78.1260   31.4720   19.2410 C.2    32  ARG32       0.2616
     36  O         77.0830   30.8090   19.2760 O.2    32  ARG32      -0.2715
     37  CB        78.0550   33.9810   19.5280 C.3    32  ARG32       0.0348
     38  CG        76.7150   34.0070   18.7990 C.3    32  ARG32       0.0492
     39  CD        76.4480   35.3440   18.1180 C.3    32  ARG32       0.2205
     40  NE        77.0910   35.4650   16.8140 N.pl3  32  ARG32      -0.0865
     41  CZ        76.9720   36.5240   16.0170 C.cat  32  ARG32       0.5346
     42  NH1       76.2210   37.5540   16.3840 N.pl3  32  ARG32       0.1354
     43  NH2       77.6080   36.5580   14.8540 N.pl3  32  ARG32       0.1354
     44  N         79.0900   31.2230   18.3610 N.am   33  THR33      -0.1951
     45  CA        79.0710   30.0650   17.4770 C.3    33  THR33       0.1897
     46  C         80.0320   29.0250   18.0370 C.2    33  THR33       0.2313
     47  O         81.1520   29.3620   18.4350 O.2    33  THR33      -0.2863
     48  CB        79.4640   30.4360   16.0440 C.3    33  THR33       0.1794
     49  OG1       80.8530   30.7810   16.0000 O.3    33  THR33      -0.2208
     50  CG2       78.6300   31.6060   15.5350 C.3    33  THR33       0.0378
     51  N         84.0120   27.3990   16.7490 N.3    36  ARG36      -0.1245
     52  CA        85.2910   27.9070   17.2340 C.3    36  ARG36       0.1563
     53  C         85.5560   27.4910   18.6750 C.2    36  ARG36       0.2260
     54  O         86.7180   27.3320   19.0650 O.2    36  ARG36      -0.2867
     55  CB        85.3500   29.4270   17.0830 C.3    36  ARG36       0.0307
     56  CG        85.3790   29.8700   15.6260 C.3    36  ARG36       0.0489
     57  CD        86.2270   31.1180   15.4190 C.3    36  ARG36       0.2205
     58  NE        85.4360   32.3450   15.4410 N.pl3  36  ARG36      -0.0865
     59  CZ        85.6220   33.3700   14.6140 C.cat  36  ARG36       0.5346
     60  NH1       86.5760   33.3180   13.6940 N.pl3  36  ARG36       0.1354
     61  NH2       84.8550   34.4470   14.7070 N.pl3  36  ARG36       0.1354
     62  N         86.9650   39.3770   24.5130 N.3    73  LEU73      -0.1231
     63  CA        87.7600   39.6940   23.3320 C.3    73  LEU73       0.1693
     64  C         86.8750   39.6740   22.0970 C.2    73  LEU73       0.2592
     65  O         87.1940   39.0700   21.0710 O.2    73  LEU73      -0.2718
     66  CB        88.9330   38.7280   23.1960 C.3    73  LEU73       0.0284
     67  CG        89.9780   38.8690   24.3050 C.3    73  LEU73       0.0019
     68  CD1       90.9500   37.7160   24.3010 C.3    73  LEU73       0.0001
     69  CD2       90.7230   40.1780   24.1360 C.3    73  LEU73       0.0001
     70  N         85.7350   40.3410   22.1950 N.am   74  ILE74      -0.1966
     71  CA        84.7910   40.4660   21.0940 C.3    74  ILE74       0.1727
     72  C         84.9240   41.8510   20.4790 C.2    74  ILE74       0.2616
     73  O         85.3470   42.8110   21.1350 O.2    74  ILE74      -0.2715
     74  CB        83.3550   40.1870   21.5810 C.3    74  ILE74       0.0290
     75  CG1       82.8640   41.3130   22.4840 C.3    74  ILE74       0.0022
     76  CG2       83.3010   38.8710   22.3380 C.3    74  ILE74       0.0023
     77  CD1       81.3880   41.2810   22.6770 C.3    74  ILE74       0.0001
     78  N         84.5670   41.9540   19.2020 N.am   75  LYS75      -0.1977
     79  CA        84.7730   43.1850   18.4560 C.3    75  LYS75       0.1596
     80  C         83.8480   44.2930   18.9600 C.2    75  LYS75       0.2287
     81  O         82.7860   44.0470   19.5410 O.2    75  LYS75      -0.2864
     82  CB        84.5480   42.9510   16.9630 C.3    75  LYS75       0.0298
     83  CG        83.0900   42.9320   16.5390 C.3    75  LYS75       0.0038
     84  CD        82.9580   42.8500   15.0290 C.3    75  LYS75       0.0206
     85  CE        82.6160   44.2030   14.4270 C.3    75  LYS75       0.1093
     86  NZ        82.3840   44.0910   12.9620 N.3    75  LYS75      -0.1314
     87  N         77.4780   46.8470   19.4420 N.3    78  PRO78      -0.2102
     88  CA        76.4320   46.5130   20.4210 C.3    78  PRO78       0.1504
     89  C         76.6310   45.1390   21.0280 C.2    78  PRO78       0.2575
     90  O         76.0740   44.8560   22.0960 O.2    78  PRO78      -0.2718
     91  CB        75.1370   46.5920   19.6010 C.3    78  PRO78       0.0282
     92  CG        75.5730   46.3970   18.1870 C.3    78  PRO78       0.0208
     93  CD        76.9300   47.0320   18.0880 C.3    78  PRO78       0.0893
     94  N         77.4100   44.2750   20.3720 N.am   79  ALA79      -0.1980
     95  CA        77.6920   42.9540   20.9170 C.3    79  ALA79       0.1597
     96  C         78.4220   43.0580   22.2440 C.2    79  ALA79       0.2287
     97  O         78.2730   42.1870   23.1060 O.2    79  ALA79      -0.2864
     98  CB        78.5100   42.1360   19.9200 C.3    79  ALA79       0.0319
     99  N         76.7480   41.2660   25.5030 N.3    83  ASN83      -0.1240
    100  CA        77.4780   40.3580   26.3810 C.3    83  ASN83       0.1653
    101  C         77.5480   40.8970   27.8050 C.2    83  ASN83       0.2266
    102  O         77.1930   40.1970   28.7600 O.2    83  ASN83      -0.2867
    103  CB        78.8770   40.0880   25.8210 C.3    83  ASN83       0.1155
    104  CG        78.8600   39.0810   24.6840 C.2    83  ASN83       0.2627
    105  OD1       78.9080   37.8690   24.9050 O.2    83  ASN83      -0.2716
    106  ND2       78.7550   39.5790   23.4610 N.am   83  ASN83      -0.0877
@<TRIPOS>BOND
     1    86    85    1
     2    60    59    1
     3    85    84    1
     4    59    61    1
     5    59    58    2
     6    24    22    1
     7    43    41    1
     8    84    83    1
     9    22    23    1
    10    22    19    1
    11    57    58    1
    12    57    56    1
    13    50    48    1
    14    56    55    1
    15    49    48    1
    16    41    42    1
    17    41    40    2
    18    48    45    1
    19    19    18    1
    20    19    20    1
    21    18    15   am
    22    83    82    1
    23    51    52    1
    24    40    39    1
    25    82    79    1
    26    55    52    1
    27    17    14    1
    28    52    53    1
    29    15    14    1
    30    15    16    2
    31    14    13    1
    32    45    46    1
    33    45    44    1
    34    20    21    2
    35    46    47    2
    36    93    92    1
    37    93    87    1
    38    39    38    1
    39     8     7    2
    40    92    91    1
    41    44    35   am
    42    79    80    1
    43    79    78    1
    44    32    30   am
    45    53    54    2
    46    38    37    1
    47    13     7   am
    48    80    81    2
    49     7     6    1
    50    78    72   am
    51    35    36    2
    52    35    34    1
    53    87    88    1
    54    37    34    1
    55    91    88    1
    56    30    31    2
    57    30    29    1
    58    98    95    1
    59    34    33    1
    60    94    95    1
    61    94    89   am
    62    88    89    1
    63    72    71    1
    64    72    73    2
    65     6     9    1
    66     6     5    1
    67     9    10    1
    68    29    26    1
    69    33    27   am
    70    95    96    1
    71     5     3   am
    72    89    90    2
    73    65    64    2
    74    71    74    1
    75    71    70    1
    76    27    28    2
    77    27    26    1
    78    74    76    1
    79    74    75    1
    80     3     4    2
    81     3     2    1
    82    26    25    1
    83    12    10    1
    84    10    11    1
    85    64    70   am
    86    64    63    1
    87    96    97    2
    88     2     1    1
    89    75    77    1
    90    66    63    1
    91    66    67    1
    92    63    62    1
    93   106   104   am
    94    69    67    1
    95    68    67    1
    96   104   105    2
    97   104   103    1
    98    99   100    1
    99   103   100    1
   100   100   101    1
   101   101   102    2
