@<TRIPOS>MOLECULE
tmp/6fqzB04.pdb
 133 126 0 0 0
SMALL
GASTEIGER

@<TRIPOS>ATOM
      1  N         78.3350   80.6660   13.5920 N.3   102  ASN102     -0.1240
      2  CA        79.3310   79.6530   13.2680 C.3   102  ASN102      0.1653
      3  C         79.0070   78.3690   14.0180 C.2   102  ASN102      0.2266
      4  O         79.5060   78.1510   15.1270 O.2   102  ASN102     -0.2867
      5  CB        80.7420   80.1350   13.6230 C.3   102  ASN102      0.1155
      6  CG        81.4220   80.8630   12.4730 C.2   102  ASN102      0.2627
      7  OD1       80.9930   80.7720   11.3220 O.2   102  ASN102     -0.2716
      8  ND2       82.4880   81.5960   12.7850 N.am  102  ASN102     -0.0877
      9  N         77.9690   82.6180    7.5910 N.3   127  VAL127     -0.1231
     10  CA        78.1620   84.0390    7.3290 C.3   127  VAL127      0.1692
     11  C         79.6370   84.3670    7.5120 C.2   127  VAL127      0.2593
     12  O         80.2170   84.0700    8.5620 O.2   127  VAL127     -0.2718
     13  CB        77.2980   84.9210    8.2520 C.3   127  VAL127      0.0266
     14  CG1       77.4440   86.3870    7.8690 C.3   127  VAL127      0.0020
     15  CG2       75.8360   84.4910    8.1990 C.3   127  VAL127      0.0020
     16  N         80.2420   84.9790    6.4940 N.am  128  SER128     -0.1938
     17  CA        81.6400   85.3830    6.5410 C.3   128  SER128      0.2055
     18  C         81.7660   86.8360    6.1080 C.2   128  SER128      0.2644
     19  O         81.0680   87.2790    5.1920 O.2   128  SER128     -0.2714
     20  CB        82.5070   84.4950    5.6400 C.3   128  SER128      0.2130
     21  OG        83.8700   84.8840    5.7020 O.3   128  SER128     -0.2179
     22  N         82.6600   87.5740    6.7640 N.am  129  GLY129     -0.1939
     23  CA        82.8750   88.9650    6.4150 C.3   129  GLY129      0.2014
     24  C         83.1130   89.8740    7.6040 C.2   129  GLY129      0.2639
     25  O         83.5250   91.0260    7.4380 O.2   129  GLY129     -0.2714
     26  N         82.8480   89.3730    8.8070 N.am  130  GLY130     -0.1954
     27  CA        83.0630   90.1840    9.9860 C.3   130  GLY130      0.1869
     28  C         82.0820   91.3440   10.0870 C.2   130  GLY130      0.2309
     29  O         81.0230   91.3760    9.4500 O.2   130  GLY130     -0.2863
     30  N         80.8950   76.9080    5.3420 N.3   182  LYS182     -0.1245
     31  CA        81.4990   77.9950    6.1070 C.3   182  LYS182      0.1561
     32  C         82.6570   77.4900    6.9600 C.2   182  LYS182      0.2260
     33  O         83.6880   78.1620    7.0850 O.2   182  LYS182     -0.2867
     34  CB        80.4430   78.6730    6.9810 C.3   182  LYS182      0.0271
     35  CG        81.0030   79.7100    7.9470 C.3   182  LYS182      0.0035
     36  CD        81.6590   80.8600    7.1830 C.3   182  LYS182      0.0206
     37  CE        82.6810   81.5920    8.0350 C.3   182  LYS182      0.1093
     38  NZ        82.0710   82.2110    9.2370 N.3   182  LYS182     -0.1314
     39  N         85.5600   77.0990    4.7030 N.3   185  HIS185     -0.1226
     40  CA        86.0950   78.4260    4.4100 C.3   185  HIS185      0.1752
     41  C         87.1150   78.8410    5.4630 C.2   185  HIS185      0.2596
     42  O         88.2140   79.3020    5.1320 O.2   185  HIS185     -0.2718
     43  CB        84.9680   79.4600    4.3330 C.3   185  HIS185      0.0759
     44  CG        85.4440   80.8740    4.4800 C.ar  185  HIS185      0.0818
     45  ND1       85.7260   81.6820    3.3990 N.ar  185  HIS185     -0.2268
     46  CD2       85.7140   81.6150    5.5820 C.ar  185  HIS185      0.1154
     47  CE1       86.1370   82.8620    3.8290 C.ar  185  HIS185      0.1986
     48  NE2       86.1430   82.8460    5.1490 N.ar  185  HIS185     -0.2212
     49  N         86.7650   78.6810    6.7460 N.am  186  ASN186     -0.1974
     50  CA        87.6800   79.0530    7.8210 C.3   186  ASN186      0.1688
     51  C         88.9090   78.1540    7.8380 C.2   186  ASN186      0.2292
     52  O         90.0180   78.6170    8.1320 O.2   186  ASN186     -0.2864
     53  CB        86.9650   79.0020    9.1750 C.3   186  ASN186      0.1181
     54  CG        86.1630   80.2630    9.4660 C.2   186  ASN186      0.2629
     55  OD1       85.6330   80.4390   10.5700 O.2   186  ASN186     -0.2716
     56  ND2       86.0670   81.1440    8.4790 N.am  186  ASN186     -0.0877
     57  N         90.9720   79.5380    5.2390 N.3   189  GLU189     -0.1231
     58  CA        91.4770   80.7940    5.7810 C.3   189  GLU189      0.1699
     59  C         92.6490   80.5630    6.7310 C.2   189  GLU189      0.2592
     60  O         93.6560   81.2790    6.6650 O.2   189  GLU189     -0.2718
     61  CB        90.3400   81.5390    6.4790 C.3   189  GLU189      0.0402
     62  CG        90.7750   82.5980    7.4670 C.3   189  GLU189      0.1161
     63  CD        89.6450   83.0070    8.3880 C.2   189  GLU189      0.3649
     64  OE1       88.6610   83.6020    7.8970 O.co2 189  GLU189     -0.2457
     65  OE2       89.7310   82.7140    9.5990 O.co2 189  GLU189     -0.2457
     66  N         92.5380   79.5690    7.6200 N.am  190  TYR190     -0.1976
     67  CA        93.6560   79.2120    8.4920 C.3   190  TYR190      0.1639
     68  C         94.9130   78.9310    7.6780 C.2   190  TYR190      0.2290
     69  O         96.0110   79.3800    8.0240 O.2   190  TYR190     -0.2864
     70  CB        93.3090   77.9800    9.3300 C.3   190  TYR190      0.0560
     71  CG        92.5900   78.2020   10.6510 C.ar  190  TYR190     -0.0198
     72  CD1       91.4650   79.0090   10.7360 C.ar  190  TYR190     -0.0009
     73  CD2       93.0070   77.5430   11.8030 C.ar  190  TYR190     -0.0009
     74  CE1       90.7900   79.1780   11.9360 C.ar  190  TYR190      0.0417
     75  CE2       92.3430   77.7110   13.0070 C.ar  190  TYR190      0.0417
     76  CZ        91.2340   78.5260   13.0660 C.ar  190  TYR190      0.1957
     77  OH        90.5690   78.6820   14.2630 O.3   190  TYR190     -0.2866
     78  N         96.4420   82.1610    6.1270 N.3   193  MET193     -0.1245
     79  CA        97.1350   82.9780    7.1170 C.3   193  MET193      0.1570
     80  C         98.4750   82.3630    7.5040 C.2   193  MET193      0.2261
     81  O         99.4620   83.0840    7.6840 O.2   193  MET193     -0.2867
     82  CB        96.2430   83.1680    8.3420 C.3   193  MET193      0.0387
     83  CG        94.9550   83.9140    8.0140 C.3   193  MET193      0.0595
     84  SD        93.6910   83.6970    9.2800 S.3   193  MET193     -0.1393
     85  CE        94.5080   84.4230   10.6950 C.3   193  MET193      0.0692
     86  N         94.9780   82.8020   19.0120 N.3   258  GLY258     -0.1210
     87  CA        93.6620   82.3340   19.3810 C.3   258  GLY258      0.1956
     88  C         93.0580   81.4610   18.2950 C.2   258  GLY258      0.2612
     89  O         93.5650   81.3700   17.1750 O.2   258  GLY258     -0.2717
     90  N         91.9570   80.8030   18.6510 N.am  259  ALA259     -0.1965
     91  CA        91.2270   79.9230   17.7470 C.3   259  ALA259      0.1728
     92  C         89.9090   79.5650   18.4110 C.2   259  ALA259      0.2616
     93  O         89.8820   79.2560   19.6020 O.2   259  ALA259     -0.2715
     94  CB        92.0220   78.6500   17.4250 C.3   259  ALA259      0.0334
     95  N         88.8210   79.6040   17.6420 N.am  260  LYS260     -0.1963
     96  CA        87.4950   79.4340   18.2220 C.3   260  LYS260      0.1728
     97  C         86.7580   78.2170   17.6720 C.2   260  LYS260      0.2617
     98  O         85.5390   78.1130   17.8360 O.2   260  LYS260     -0.2715
     99  CB        86.6790   80.7150   18.0380 C.3   260  LYS260      0.0311
    100  CG        87.2980   81.8820   18.8100 C.3   260  LYS260      0.0038
    101  CD        86.4840   83.1570   18.7610 C.3   260  LYS260      0.0206
    102  CE        87.1270   84.2150   19.6640 C.3   260  LYS260      0.1093
    103  NZ        86.3990   85.5170   19.6590 N.3   260  LYS260     -0.1314
    104  N         87.4670   77.2830   17.0390 N.am  261  GLY261     -0.1940
    105  CA        86.8720   75.9890   16.7620 C.3   261  GLY261      0.2014
    106  C         86.7760   75.5320   15.3190 C.2   261  GLY261      0.2639
    107  O         86.9630   74.3420   15.0440 O.2   261  GLY261     -0.2714
    108  N         86.4820   76.4430   14.3840 N.am  262  THR262     -0.1950
    109  CA        86.1480   76.0090   13.0260 C.3   262  THR262      0.1897
    110  C         87.3400   75.3630   12.3300 C.2   262  THR262      0.2313
    111  O         87.1750   74.3980   11.5720 O.2   262  THR262     -0.2863
    112  CB        85.6200   77.1850   12.2040 C.3   262  THR262      0.1794
    113  OG1       86.5880   78.2420   12.1900 O.3   262  THR262     -0.2208
    114  CG2       84.3190   77.7060   12.8060 C.3   262  THR262      0.0378
    115  N         99.4130   77.1880   15.4170 N.3   287  ARG287     -0.1245
    116  CA        98.6260   77.8550   16.4520 C.3   287  ARG287      0.1563
    117  C         98.7290   77.1200   17.7830 C.2   287  ARG287      0.2260
    118  O         98.8680   77.7480   18.8400 O.2   287  ARG287     -0.2867
    119  CB        97.1640   77.9710   16.0180 C.3   287  ARG287      0.0307
    120  CG        96.9290   78.8620   14.8100 C.3   287  ARG287      0.0489
    121  CD        95.5200   79.4340   14.8270 C.3   287  ARG287      0.2205
    122  NE        95.1710   80.0670   13.5610 N.pl3 287  ARG287     -0.0865
    123  CZ        94.0840   80.8080   13.3690 C.cat 287  ARG287      0.5346
    124  NH1       93.2360   81.0160   14.3700 N.pl3 287  ARG287      0.1354
    125  NH2       93.8490   81.3470   12.1770 N.pl3 287  ARG287      0.1354
    126  N         86.4670   86.3140    4.0500 N.3   367  ILE367     -0.1245
    127  CA        87.8300   86.6970    4.4080 C.3   367  ILE367      0.1561
    128  C         88.8410   86.2280    3.3650 C.2   367  ILE367      0.2260
    129  O         89.8410   86.9120    3.1150 O.2   367  ILE367     -0.2867
    130  CB        88.1760   86.1620    5.8110 C.3   367  ILE367      0.0252
    131  CG1       87.1660   86.6740    6.8370 C.3   367  ILE367      0.0019
    132  CG2       89.5870   86.5730    6.2210 C.3   367  ILE367      0.0019
    133  CD1       87.0420   88.1840    6.8720 C.3   367  ILE367      0.0001
@<TRIPOS>BOND
     1   129   128    2
     2   128   127    1
     3    45    47   ar
     4    45    44   ar
     5    47    48   ar
     6   126   127    1
     7    43    40    1
     8    43    44    1
     9   127   130    1
    10    40    39    1
    11    40    41    1
    12    44    46   ar
    13    42    41    2
    14    48    46   ar
    15    19    18    2
    16    57    58    1
    17    30    31    1
    18    41    49   am
    19    20    21    1
    20    20    17    1
    21    58    61    1
    22    58    59    1
    23   130   132    1
    24   130   131    1
    25    31    32    1
    26    31    34    1
    27    18    17    1
    28    18    22   am
    29    78    79    1
    30    23    22    1
    31    23    24    1
    32    61    62    1
    33    16    17    1
    34    16    11   am
    35    60    59    2
    36    59    66   am
    37    49    50    1
    38   131   133    1
    39    32    33    2
    40    34    35    1
    41    79    80    1
    42    79    82    1
    43    36    35    1
    44    36    37    1
    45    10    11    1
    46    10     9    1
    47    10    13    1
    48    25    24    2
    49    62    63    1
    50    80    81    2
    51    11    12    2
    52    24    26   am
    53    66    67    1
    54    68    69    2
    55    68    67    1
    56    50    51    1
    57    50    53    1
    58    51    52    2
    59    14    13    1
    60    64    63   ar
    61    83    82    1
    62    83    84    1
    63    37    38    1
    64    15    13    1
    65    63    65   ar
    66    56    54   am
    67    67    70    1
    68    26    27    1
    69    53    54    1
    70    84    85    1
    71    70    71    1
    72    29    28    2
    73    54    55    2
    74    27    28    1
    75    71    72   ar
    76    71    73   ar
    77    72    74   ar
    78     7     6    2
    79   111   110    2
    80    73    75   ar
    81    74    76   ar
    82   125   123    1
    83   113   112    1
    84   112   114    1
    85   112   109    1
    86   110   109    1
    87     6     8   am
    88     6     5    1
    89    75    76   ar
    90   109   108    1
    91    76    77    1
    92     2     1    1
    93     2     5    1
    94     2     3    1
    95   123   122    2
    96   123   124    1
    97   122   121    1
    98     3     4    2
    99   108   106   am
   100   120   121    1
   101   120   119    1
   102   107   106    2
   103   106   105    1
   104   115   116    1
   105   119   116    1
   106   116   117    1
   107   105   104    1
   108   104    97   am
   109    89    88    2
   110    94    91    1
   111    95    96    1
   112    95    92   am
   113    97    98    2
   114    97    96    1
   115    91    92    1
   116    91    90    1
   117   117   118    2
   118    99    96    1
   119    99   100    1
   120    88    90   am
   121    88    87    1
   122    92    93    2
   123   101   100    1
   124   101   102    1
   125    86    87    1
   126   103   102    1
