@<TRIPOS>MOLECULE
tmp/6fr0B00.pdb
 157 155 0 0 0
SMALL
GASTEIGER

@<TRIPOS>ATOM
      1  N        -37.1910  -22.4740  -11.7320 N.3    27  PRO27      -0.2116
      2  CA       -37.8510  -21.5930  -10.7630 C.3    27  PRO27       0.1372
      3  C        -36.9790  -20.5270  -10.1220 C.2    27  PRO27       0.2244
      4  O        -37.4690  -19.8140   -9.2460 O.2    27  PRO27      -0.2868
      5  CB       -38.3100  -22.5770   -9.6870 C.3    27  PRO27       0.0268
      6  CG       -37.2230  -23.6070   -9.6790 C.3    27  PRO27       0.0207
      7  CD       -36.7620  -23.7430  -11.1090 C.3    27  PRO27       0.0892
      8  N        -38.1320  -16.9340   -9.3360 N.3    30  LEU30      -0.1231
      9  CA       -39.4090  -16.6830   -8.6680 C.3    30  LEU30       0.1678
     10  C        -39.2790  -15.9030   -7.3580 C.2    30  LEU30       0.2434
     11  O        -40.1410  -15.0460   -7.1000 O.2    30  LEU30      -0.2733
     12  CB       -40.1510  -18.0140   -8.4660 C.3    30  LEU30       0.0284
     13  CG       -40.5910  -18.7170   -9.7580 C.3    30  LEU30       0.0019
     14  CD1      -41.2360  -20.0710   -9.4630 C.3    30  LEU30       0.0001
     15  CD2      -41.5360  -17.8380  -10.5380 C.3    30  LEU30       0.0001
     16  N        -38.2620  -16.1010   -6.5120 N.am   31  PRO31      -0.2718
     17  CA       -38.1840  -15.2900   -5.2810 C.3    31  PRO31       0.1535
     18  C        -37.8950  -13.8300   -5.5150 C.2    31  PRO31       0.2599
     19  O        -37.9470  -13.0620   -4.5460 O.2    31  PRO31      -0.2715
     20  CB       -37.0300  -15.9300   -4.4960 C.3    31  PRO31       0.0310
     21  CG       -36.9650  -17.3440   -5.0170 C.3    31  PRO31       0.0237
     22  CD       -37.2860  -17.2120   -6.4860 C.3    31  PRO31       0.0939
     23  N        -37.5470  -13.4420   -6.7410 N.am   32  PHE32      -0.1960
     24  CA       -36.9650  -12.1400   -7.0170 C.3    32  PHE32       0.1771
     25  C        -37.8100  -11.2830   -7.9400 C.2    32  PHE32       0.2619
     26  O        -37.4140  -10.1500   -8.2360 O.2    32  PHE32      -0.2715
     27  CB       -35.5530  -12.3350   -7.6080 C.3    32  PHE32       0.0574
     28  CG       -34.6610  -13.1880   -6.7520 C.ar   32  PHE32      -0.0200
     29  CD1      -34.0980  -12.6550   -5.6030 C.ar   32  PHE32      -0.0042
     30  CD2      -34.4250  -14.5120   -7.0640 C.ar   32  PHE32      -0.0042
     31  CE1      -33.2840  -13.4260   -4.7960 C.ar   32  PHE32      -0.0003
     32  CE2      -33.6210  -15.2900   -6.2510 C.ar   32  PHE32      -0.0003
     33  CZ       -33.0450  -14.7430   -5.1240 C.ar   32  PHE32      -0.0000
     34  N        -38.9750  -11.7710   -8.3690 N.am   33  ARG33      -0.1963
     35  CA       -39.7530  -11.0950   -9.4020 C.3    33  ARG33       0.1729
     36  C        -40.5680   -9.9160   -8.8850 C.2    33  ARG33       0.2616
     37  O        -40.9870   -9.0750   -9.6900 O.2    33  ARG33      -0.2715
     38  CB       -40.6880  -12.0950  -10.0850 C.3    33  ARG33       0.0348
     39  CG       -39.9620  -13.0570  -11.0010 C.3    33  ARG33       0.0492
     40  CD       -40.9060  -14.0200  -11.7020 C.3    33  ARG33       0.2205
     41  NE       -40.1940  -14.7790  -12.7240 N.pl3  33  ARG33      -0.0865
     42  CZ       -40.7740  -15.5880  -13.6020 C.cat  33  ARG33       0.5346
     43  NH1      -42.0930  -15.7490  -13.5950 N.pl3  33  ARG33       0.1354
     44  NH2      -40.0340  -16.2340  -14.4880 N.pl3  33  ARG33       0.1354
     45  N        -40.8170   -9.8350   -7.5850 N.am   34  GLN34      -0.1964
     46  CA       -41.5170   -8.7210   -6.9660 C.3    34  GLN34       0.1718
     47  C        -40.8220   -8.3850   -5.6570 C.2    34  GLN34       0.2458
     48  O        -40.0220   -9.1840   -5.1500 O.2    34  GLN34      -0.2730
     49  CB       -42.9970   -9.0520   -6.7180 C.3    34  GLN34       0.0407
     50  CG       -43.7800   -9.4530   -7.9780 C.3    34  GLN34       0.0908
     51  CD       -44.0810   -8.2670   -8.8970 C.2    34  GLN34       0.2608
     52  OE1      -44.3790   -8.4430  -10.0790 O.2    34  GLN34      -0.2717
     53  NE2      -43.9940   -7.0570   -8.3550 N.am   34  GLN34      -0.0878
     54  N        -41.0870   -7.2080   -5.0870 N.am   35  PRO35      -0.2716
     55  CA       -40.4580   -6.8560   -3.8100 C.3    35  PRO35       0.1536
     56  C        -40.8730   -7.8180   -2.7070 C.2    35  PRO35       0.2598
     57  O        -41.9960   -8.3200   -2.6780 O.2    35  PRO35      -0.2715
     58  CB       -40.9660   -5.4330   -3.5400 C.3    35  PRO35       0.0310
     59  CG       -41.2730   -4.8940   -4.8990 C.3    35  PRO35       0.0237
     60  CD       -41.8220   -6.0660   -5.6670 C.3    35  PRO35       0.0939
     61  N        -39.9300   -8.0850   -1.8060 N.am   36  VAL36      -0.1978
     62  CA       -40.2130   -8.9220   -0.6480 C.3    36  VAL36       0.1596
     63  C        -41.2500   -8.2440    0.2320 C.2    36  VAL36       0.2287
     64  O        -41.0740   -7.0910    0.6490 O.2    36  VAL36      -0.2864
     65  CB       -38.9190   -9.1820    0.1380 C.3    36  VAL36       0.0276
     66  CG1      -39.2450   -9.7350    1.5280 C.3    36  VAL36       0.0022
     67  CG2      -38.0140  -10.1420   -0.6250 C.3    36  VAL36       0.0022
     68  N        -46.4740  -11.1950    4.0620 N.3    40  LEU40      -0.1231
     69  CA       -47.0560  -12.2320    3.2080 C.3    40  LEU40       0.1693
     70  C        -46.1770  -13.4730    3.1280 C.2    40  LEU40       0.2591
     71  O        -46.6900  -14.5780    2.9030 O.2    40  LEU40      -0.2718
     72  CB       -47.3120  -11.6870    1.8010 C.3    40  LEU40       0.0284
     73  CG       -48.3980  -10.6210    1.6470 C.3    40  LEU40       0.0019
     74  CD1      -48.6830  -10.2990    0.1660 C.3    40  LEU40       0.0001
     75  CD2      -49.6690  -11.0370    2.3640 C.3    40  LEU40       0.0001
     76  N        -44.8620  -13.3200    3.2910 N.am   41  LEU41      -0.1980
     77  CA       -43.9270  -14.4260    3.1580 C.3    41  LEU41       0.1596
     78  C        -43.5960  -15.0850    4.4900 C.2    41  LEU41       0.2287
     79  O        -42.8660  -16.0850    4.5060 O.2    41  LEU41      -0.2864
     80  CB       -42.6370  -13.9430    2.4920 C.3    41  LEU41       0.0297
     81  CG       -42.7680  -13.4290    1.0580 C.3    41  LEU41       0.0022
     82  CD1      -41.4300  -12.8530    0.6050 C.3    41  LEU41       0.0001
     83  CD2      -43.2120  -14.5410    0.1160 C.3    41  LEU41       0.0001
     84  N        -41.7570  -13.9050    7.0100 N.3    43  ILE43      -0.1245
     85  CA       -40.3800  -13.6170    7.4120 C.3    43  ILE43       0.1561
     86  C        -40.3830  -12.2170    8.0340 C.2    43  ILE43       0.2260
     87  O        -39.7710  -11.2810    7.4920 O.2    43  ILE43      -0.2867
     88  CB       -39.4060  -13.7640    6.2240 C.3    43  ILE43       0.0252
     89  CG1      -39.8930  -13.0060    4.9800 C.3    43  ILE43       0.0019
     90  CG2      -39.1970  -15.2420    5.8730 C.3    43  ILE43       0.0019
     91  CD1      -38.8580  -12.9770    3.8420 C.3    43  ILE43       0.0001
     92  N        -37.3970   -9.5170    8.1850 N.3    46  TYR46      -0.1241
     93  CA       -36.6250   -9.2370    6.9740 C.3    46  TYR46       0.1605
     94  C        -36.0000   -7.8380    6.9880 C.2    46  TYR46       0.2264
     95  O        -34.7990   -7.6850    6.7230 O.2    46  TYR46      -0.2867
     96  CB       -37.5210   -9.4250    5.7510 C.3    46  TYR46       0.0534
     97  CG       -36.7940   -9.2520    4.4380 C.ar   46  TYR46      -0.0201
     98  CD1      -35.9980  -10.2560    3.9220 C.ar   46  TYR46      -0.0009
     99  CD2      -36.9090   -8.0800    3.7160 C.ar   46  TYR46      -0.0009
    100  CE1      -35.3340  -10.1030    2.7240 C.ar   46  TYR46       0.0417
    101  CE2      -36.2400   -7.9060    2.5270 C.ar   46  TYR46       0.0417
    102  CZ       -35.4650   -8.9210    2.0190 C.ar   46  TYR46       0.1957
    103  OH       -34.8000   -8.7330    0.8300 O.3    46  TYR46      -0.2866
    104  N        -30.1900  -11.2190   -0.7220 N.3    85  ALA85      -0.1245
    105  CA       -30.6810  -12.5800   -0.5840 C.3    85  ALA85       0.1562
    106  C        -29.6440  -13.4870    0.0700 C.2    85  ALA85       0.2260
    107  O        -29.9960  -14.3770    0.8570 O.2    85  ALA85      -0.2867
    108  CB       -31.0940  -13.1100   -1.9610 C.3    85  ALA85       0.0290
    109  N        -29.7440  -12.4940    3.9240 N.3    88  TYR88      -0.1227
    110  CA       -30.9140  -12.8550    4.7140 C.3    88  TYR88       0.1736
    111  C        -31.0960  -14.3660    4.7980 C.2    88  TYR88       0.2595
    112  O        -31.4500  -14.8960    5.8610 O.2    88  TYR88      -0.2718
    113  CB       -32.1940  -12.2230    4.1350 C.3    88  TYR88       0.0548
    114  CG       -33.3770  -12.6190    4.9920 C.ar   88  TYR88      -0.0200
    115  CD1      -33.5840  -12.0220    6.2360 C.ar   88  TYR88      -0.0009
    116  CD2      -34.2240  -13.6720    4.6170 C.ar   88  TYR88      -0.0009
    117  CE1      -34.6210  -12.4150    7.0630 C.ar   88  TYR88       0.0417
    118  CE2      -35.2610  -14.0710    5.4400 C.ar   88  TYR88       0.0417
    119  CZ       -35.4430  -13.4560    6.6640 C.ar   88  TYR88       0.1957
    120  OH       -36.4630  -13.8650    7.4970 O.3    88  TYR88      -0.2866
    121  N        -30.9150  -15.0670    3.6870 N.am   89  ASN89      -0.1974
    122  CA       -31.2350  -16.4850    3.6140 C.3    89  ASN89       0.1688
    123  C        -30.0330  -17.3310    4.0140 C.2    89  ASN89       0.2292
    124  O        -28.8770  -16.9430    3.8120 O.2    89  ASN89      -0.2864
    125  CB       -31.7050  -16.8210    2.2000 C.3    89  ASN89       0.1181
    126  CG       -32.9740  -16.0820    1.8320 C.2    89  ASN89       0.2629
    127  OD1      -34.0770  -16.4480    2.2650 O.2    89  ASN89      -0.2716
    128  ND2      -32.8280  -15.0110    1.0530 N.am   89  ASN89      -0.0877
    129  N        -33.1230  -22.9730   -0.0710 N.3    94  ARG94      -0.1231
    130  CA       -33.5330  -22.9040   -1.4710 C.3    94  ARG94       0.1694
    131  C        -33.3070  -21.5120   -2.0750 C.2    94  ARG94       0.2591
    132  O        -32.7530  -21.3830   -3.1700 O.2    94  ARG94      -0.2718
    133  CB       -35.0030  -23.3050   -1.5500 C.3    94  ARG94       0.0321
    134  CG       -35.6590  -23.1590   -2.8790 C.3    94  ARG94       0.0489
    135  CD       -37.1670  -23.4230   -2.7330 C.3    94  ARG94       0.2205
    136  NE       -37.9050  -22.2830   -2.1900 N.pl3  94  ARG94      -0.0865
    137  CZ       -38.3550  -22.1880   -0.9450 C.cat  94  ARG94       0.5346
    138  NH1      -39.0000  -21.0940   -0.5530 N.pl3  94  ARG94       0.1354
    139  NH2      -38.1220  -23.1650   -0.0780 N.pl3  94  ARG94       0.1354
    140  N        -33.7330  -20.4520   -1.3850 N.am   95  VAL95      -0.1980
    141  CA       -33.6350  -19.1250   -1.9920 C.3    95  VAL95       0.1595
    142  C        -32.1720  -18.7110   -2.1600 C.2    95  VAL95       0.2287
    143  O        -31.8050  -18.0710   -3.1560 O.2    95  VAL95      -0.2864
    144  CB       -34.4380  -18.1050   -1.1610 C.3    95  VAL95       0.0276
    145  CG1      -34.1630  -16.6810   -1.6450 C.3    95  VAL95       0.0022
    146  CG2      -35.9300  -18.4340   -1.2460 C.3    95  VAL95       0.0022
    147  N        -30.9830  -20.5200   -5.2410 N.3    98  PHE98      -0.1241
    148  CA       -31.5750  -19.8840   -6.4210 C.3    98  PHE98       0.1605
    149  C        -30.8380  -18.5900   -6.7670 C.2    98  PHE98       0.2264
    150  O        -30.5610  -18.3110   -7.9420 O.2    98  PHE98      -0.2867
    151  CB       -33.0560  -19.5710   -6.1630 C.3    98  PHE98       0.0534
    152  CG       -33.9880  -20.7620   -6.2350 C.ar   98  PHE98      -0.0203
    153  CD1      -33.5190  -22.0640   -6.3850 C.ar   98  PHE98      -0.0042
    154  CD2      -35.3520  -20.5580   -6.1390 C.ar   98  PHE98      -0.0042
    155  CE1      -34.4180  -23.1460   -6.4550 C.ar   98  PHE98      -0.0003
    156  CE2      -36.2610  -21.6260   -6.2100 C.ar   98  PHE98      -0.0003
    157  CZ       -35.7830  -22.9220   -6.3580 C.ar   98  PHE98      -0.0000
@<TRIPOS>BOND
     1    44    42    1
     2    42    43    1
     3    42    41    2
     4    41    40    1
     5     1     7    1
     6     1     2    1
     7    40    39    1
     8     7     6    1
     9    39    38    1
    10     2     3    1
    11     2     5    1
    12    15    13    1
    13     3     4    2
    14    38    35    1
    15    52    51    2
    16    13    14    1
    17    13    12    1
    18    37    36    2
    19     5     6    1
    20    35    36    1
    21    35    34    1
    22     8     9    1
    23    51    53   am
    24    51    50    1
    25    36    45   am
    26     9    12    1
    27     9    10    1
    28    34    25   am
    29    26    25    2
    30    50    49    1
    31   150   149    2
    32    25    24    1
    33    27    24    1
    34    27    28    1
    35    45    46    1
    36    10    11    2
    37    10    16   am
    38    30    28   ar
    39    30    32   ar
    40    24    23    1
    41    46    49    1
    42    46    47    1
    43   149   148    1
    44    28    29   ar
    45    23    18   am
    46    16    22    1
    47    16    17    1
    48    22    21    1
    49   155   153   ar
    50   155   157   ar
    51   148   151    1
    52   148   147    1
    53   153   152   ar
    54   157   156   ar
    55    32    33   ar
    56   152   151    1
    57   152   154   ar
    58   156   154   ar
    59    60    54    1
    60    60    59    1
    61    47    48    2
    62    47    54   am
    63    29    31   ar
    64    18    17    1
    65    18    19    2
    66    17    20    1
    67    33    31   ar
    68    54    55    1
    69    21    20    1
    70    59    58    1
    71    55    58    1
    72    55    56    1
    73   132   131    2
    74   143   142    2
    75   134   135    1
    76   134   133    1
    77   135   136    1
    78    56    57    2
    79    56    61   am
    80   136   137    2
    81   142   141    1
    82   131   130    1
    83   131   140   am
    84   141   140    1
    85   141   144    1
    86   108   105    1
    87    61    62    1
    88   145   144    1
    89   133   130    1
    90   130   129    1
    91   146   144    1
    92   137   138    1
    93   137   139    1
    94   104   105    1
    95    62    65    1
    96    62    63    1
    97    67    65    1
    98   105   106    1
    99   106   107    2
   100    83    81    1
   101    65    66    1
   102    74    73    1
   103    63    64    2
   104    82    81    1
   105   103   102    1
   106   128   126   am
   107    81    80    1
   108    73    72    1
   109    73    75    1
   110    72    69    1
   111   126   125    1
   112   126   127    2
   113   102   101   ar
   114   102   100   ar
   115   125   122    1
   116    80    77    1
   117   101    99   ar
   118   100    98   ar
   119    71    70    2
   120    70    69    1
   121    70    76   am
   122    77    76    1
   123    77    78    1
   124    69    68    1
   125   122   121    1
   126   122   123    1
   127   121   111   am
   128    99    97   ar
   129   124   123    2
   130    91    89    1
   131    98    97   ar
   132   109   110    1
   133   113   110    1
   134   113   114    1
   135    97    96    1
   136    78    79    2
   137   116   114   ar
   138   116   118   ar
   139   110   111    1
   140   111   112    2
   141    89    88    1
   142   114   115   ar
   143   118   119   ar
   144    96    93    1
   145    90    88    1
   146    88    85    1
   147   115   117   ar
   148   119   117   ar
   149   119   120    1
   150    95    94    2
   151    93    94    1
   152    93    92    1
   153    84    85    1
   154    85    86    1
   155    87    86    2
