@<TRIPOS>MOLECULE
tmp/6fr1A00.pdb
 168 155 0 0 0
SMALL
GASTEIGER

@<TRIPOS>ATOM
      1  N        -19.0580   20.5620   38.4370 N.3    21  ILE21      -0.1231
      2  CA       -18.7140   20.0140   39.7440 C.3    21  ILE21       0.1692
      3  C        -17.4000   20.5900   40.2620 C.2    21  ILE21       0.2593
      4  O        -17.3220   21.0600   41.4020 O.2    21  ILE21      -0.2718
      5  CB       -18.6600   18.4680   39.7140 C.3    21  ILE21       0.0266
      6  CG1      -20.0580   17.8840   39.4970 C.3    21  ILE21       0.0019
      7  CG2      -18.0370   17.9210   40.9990 C.3    21  ILE21       0.0020
      8  CD1      -20.1040   16.3730   39.5420 C.3    21  ILE21       0.0001
      9  N        -16.3590   20.5710   39.4360 N.am   22  GLY22      -0.1942
     10  CA       -15.0480   21.0300   39.8640 C.3    22  GLY22       0.2014
     11  C        -14.1550   21.2830   38.6700 C.2    22  GLY22       0.2639
     12  O        -14.5320   21.0410   37.5210 O.2    22  GLY22      -0.2714
     13  N        -12.9470   21.7640   38.9600 N.am   23  GLU23      -0.1963
     14  CA       -12.0430   22.2180   37.9110 C.3    23  GLU23       0.1733
     15  C        -10.5980   22.0060   38.3450 C.2    23  GLU23       0.2616
     16  O        -10.2900   21.9380   39.5370 O.2    23  GLU23      -0.2715
     17  CB       -12.3030   23.6910   37.5800 C.3    23  GLU23       0.0429
     18  CG       -11.6730   24.1910   36.2990 C.3    23  GLU23       0.1163
     19  CD       -12.2090   25.5490   35.9030 C.2    23  GLU23       0.3649
     20  OE1      -13.1560   26.0270   36.5630 O.co2  23  GLU23      -0.2457
     21  OE2      -11.6890   26.1360   34.9330 O.co2  23  GLU23      -0.2457
     22  N         -9.7100   21.9070   37.3530 N.am   24  GLY24      -0.1955
     23  CA        -8.2980   21.6690   37.5980 C.3    24  GLY24       0.1869
     24  C         -7.3690   22.3960   36.6450 C.2    24  GLY24       0.2309
     25  O         -7.8140   23.2380   35.8580 O.2    24  GLY24      -0.2863
     26  N         -8.1890   20.3250   33.4880 N.3    27  GLY27      -0.1225
     27  CA        -9.3240   19.4290   33.5340 C.3    27  GLY27       0.1811
     28  C        -10.4880   20.0250   34.2950 C.2    27  GLY27       0.2280
     29  O        -10.3030   20.7690   35.2590 O.2    27  GLY27      -0.2866
     30  N        -14.5110   18.8280   35.8300 N.3    29  VAL29      -0.1245
     31  CA       -15.3770   17.7080   36.1840 C.3    29  VAL29       0.1561
     32  C        -16.8260   18.1750   36.1810 C.2    29  VAL29       0.2260
     33  O        -17.1470   19.2270   36.7460 O.2    29  VAL29      -0.2867
     34  CB       -14.9920   17.1220   37.5510 C.3    29  VAL29       0.0252
     35  CG1      -15.9840   16.0540   37.9670 C.3    29  VAL29       0.0019
     36  CG2      -13.6000   16.5490   37.4800 C.3    29  VAL29       0.0019
     37  N        -20.2630   10.9400   36.4270 N.3    42  ALA42      -0.1231
     38  CA       -19.2650   11.9960   36.4890 C.3    42  ALA42       0.1694
     39  C        -18.3750   11.9100   35.2580 C.2    42  ALA42       0.2592
     40  O        -18.0110   10.8110   34.8300 O.2    42  ALA42      -0.2718
     41  CB       -18.4060   11.8860   37.7560 C.3    42  ALA42       0.0304
     42  N        -18.0380   13.0620   34.6760 N.am   43  ILE43      -0.1966
     43  CA       -17.1630   13.1180   33.5060 C.3    43  ILE43       0.1727
     44  C        -16.0870   14.1680   33.7290 C.2    43  ILE43       0.2616
     45  O        -16.3960   15.3150   34.0700 O.2    43  ILE43      -0.2715
     46  CB       -17.9280   13.4440   32.2100 C.3    43  ILE43       0.0290
     47  CG1      -19.0560   12.4420   31.9810 C.3    43  ILE43       0.0022
     48  CG2      -16.9490   13.4380   31.0360 C.3    43  ILE43       0.0023
     49  CD1      -19.8010   12.6640   30.6680 C.3    43  ILE43       0.0001
     50  N        -14.8330   13.7890   33.5070 N.am   44  LYS44      -0.1977
     51  CA       -13.7180   14.7210   33.5870 C.3    44  LYS44       0.1596
     52  C        -13.1660   14.9420   32.1910 C.2    44  LYS44       0.2287
     53  O        -12.7890   13.9840   31.5120 O.2    44  LYS44      -0.2864
     54  CB       -12.6010   14.2190   34.5020 C.3    44  LYS44       0.0298
     55  CG       -11.4270   15.1840   34.5550 C.3    44  LYS44       0.0038
     56  CD       -10.3840   14.7810   35.5790 C.3    44  LYS44       0.0206
     57  CE        -9.6840   13.4900   35.1910 C.3    44  LYS44       0.1093
     58  NZ        -8.5070   13.2030   36.0640 N.3    44  LYS44      -0.1314
     59  N         -2.9250    7.1860   34.9590 N.3    61  GLU61      -0.1245
     60  CA        -4.2760    7.0460   35.4960 C.3    61  GLU61       0.1567
     61  C         -5.0860    6.0590   34.6700 C.2    61  GLU61       0.2260
     62  O         -5.7100    5.1350   35.2070 O.2    61  GLU61      -0.2867
     63  CB        -4.9700    8.4050   35.5310 C.3    61  GLU61       0.0388
     64  CG        -6.4500    8.3170   35.8690 C.3    61  GLU61       0.1160
     65  CD        -6.7300    8.5910   37.3260 C.2    61  GLU61       0.3649
     66  OE1       -7.1480    9.7210   37.6490 O.co2  61  GLU61      -0.2457
     67  OE2       -6.5300    7.6850   38.1540 O.co2  61  GLU61      -0.2457
     68  N        -12.0490    3.4970   42.2080 N.3    74  ILE74      -0.1245
     69  CA       -12.9830    4.0060   41.2090 C.3    74  ILE74       0.1561
     70  C        -12.7160    3.3200   39.8720 C.2    74  ILE74       0.2260
     71  O        -11.5640    3.1010   39.4690 O.2    74  ILE74      -0.2867
     72  CB       -12.8930    5.5390   41.1150 C.3    74  ILE74       0.0252
     73  CG1      -14.1180    6.1190   40.3880 C.3    74  ILE74       0.0019
     74  CG2      -11.5740    5.9910   40.4550 C.3    74  ILE74       0.0019
     75  CD1      -15.4260    6.0530   41.1890 C.3    74  ILE74       0.0001
     76  N        -13.0100   11.1980   30.7170 N.3    93  ILE93      -0.1245
     77  CA       -13.0820    9.9810   31.5070 C.3    93  ILE93       0.1561
     78  C        -14.4100    9.9820   32.2400 C.2    93  ILE93       0.2260
     79  O        -14.7230   10.9380   32.9600 O.2    93  ILE93      -0.2867
     80  CB       -11.9090    9.8850   32.4960 C.3    93  ILE93       0.0252
     81  CG1      -10.5660    9.8520   31.7510 C.3    93  ILE93       0.0019
     82  CG2      -12.0570    8.6480   33.3300 C.3    93  ILE93       0.0019
     83  CD1       -9.3800    9.7850   32.7020 C.3    93  ILE93       0.0001
     84  N        -16.9130    8.1840   35.0090 N.3    95  GLN95      -0.1231
     85  CA       -16.9220    7.3560   36.2020 C.3    95  GLN95       0.1698
     86  C        -18.3050    7.3800   36.8350 C.2    95  GLN95       0.2592
     87  O        -19.1220    8.2580   36.5480 O.2    95  GLN95      -0.2718
     88  CB       -15.8960    7.8450   37.2230 C.3    95  GLN95       0.0381
     89  CG       -14.4620    7.7640   36.7470 C.3    95  GLN95       0.0905
     90  CD       -13.4910    8.3750   37.7530 C.2    95  GLN95       0.2608
     91  OE1      -13.8950    9.1110   38.6520 O.2    95  GLN95      -0.2717
     92  NE2      -12.2130    8.0520   37.6160 N.am   95  GLN95      -0.0878
     93  N        -18.5410    6.4260   37.7390 N.am   96  ASP96      -0.1960
     94  CA       -19.7190    6.5050   38.5950 C.3    96  ASP96       0.1840
     95  C        -19.7560    7.8620   39.2830 C.2    96  ASP96       0.2622
     96  O        -18.7220    8.3810   39.7120 O.2    96  ASP96      -0.2715
     97  CB       -19.6890    5.4070   39.6550 C.3    96  ASP96       0.1450
     98  CG       -19.9270    4.0330   39.0920 C.2    96  ASP96       0.3671
     99  OD1      -20.2930    3.9100   37.9040 O.co2  96  ASP96      -0.2456
    100  OD2      -19.7500    3.0650   39.8600 O.co2  96  ASP96      -0.2456
    101  N        -20.9510    8.4320   39.4060 N.am   97  LEU97      -0.1963
    102  CA       -21.1040    9.6980   40.1090 C.3    97  LEU97       0.1728
    103  C        -21.0380    9.4440   41.6070 C.2    97  LEU97       0.2616
    104  O        -21.8290    8.6620   42.1480 O.2    97  LEU97      -0.2715
    105  CB       -22.4230   10.3770   39.7380 C.3    97  LEU97       0.0311
    106  CG       -22.7060   11.7020   40.4560 C.3    97  LEU97       0.0022
    107  CD1      -21.7000   12.7880   40.0790 C.3    97  LEU97       0.0001
    108  CD2      -24.1320   12.1760   40.1980 C.3    97  LEU97       0.0001
    109  N        -20.0800   10.0800   42.2710 N.am   98  MET98      -0.1977
    110  CA       -19.9360    9.9750   43.7100 C.3    98  MET98       0.1605
    111  C        -20.3910   11.2720   44.3690 C.2    98  MET98       0.2287
    112  O        -20.0630   12.3640   43.9010 O.2    98  MET98      -0.2864
    113  CB       -18.4830    9.6540   44.0580 C.3    98  MET98       0.0413
    114  CG       -17.9500    8.4210   43.3200 C.3    98  MET98       0.0598
    115  SD       -18.6710    6.8510   43.8670 S.3    98  MET98      -0.1393
    116  CE       -17.7010    6.5350   45.3490 C.3    98  MET98       0.0692
    117  N        -19.5850   12.8930   47.0750 N.3   100  THR100     -0.1203
    118  CA       -18.6300   13.8060   47.6810 C.3   100  THR100      0.1994
    119  C        -17.2680   13.1110   47.7480 C.2   100  THR100      0.2617
    120  O        -17.0700   12.0240   47.1900 O.2   100  THR100     -0.2717
    121  CB       -19.1370   14.2430   49.0650 C.3   100  THR100      0.1784
    122  OG1      -18.3450   15.3230   49.5680 O.3   100  THR100     -0.2211
    123  CG2      -19.0740   13.0890   50.0360 C.3   100  THR100      0.0376
    124  N        -16.3110   13.7590   48.4000 N.am  101  ASP101     -0.1973
    125  CA       -15.0570   13.1090   48.7410 C.3   101  ASP101      0.1709
    126  C        -14.7390   13.4240   50.1960 C.2   101  ASP101      0.2293
    127  O        -15.3970   14.2540   50.8300 O.2   101  ASP101     -0.2864
    128  CB       -13.9110   13.5270   47.7940 C.3   101  ASP101      0.1436
    129  CG       -13.6110   15.0170   47.8370 C.2   101  ASP101      0.3671
    130  OD1      -13.3400   15.5440   48.9310 O.co2 101  ASP101     -0.2456
    131  OD2      -13.6200   15.6610   46.7630 O.co2 101  ASP101     -0.2456
    132  N        -14.0420   17.1590   51.1550 N.3   104  LYS104     -0.1245
    133  CA       -15.2300   18.0010   51.2460 C.3   104  LYS104      0.1561
    134  C        -16.0630   17.6150   52.4570 C.2   104  LYS104      0.2260
    135  O        -16.5940   18.4820   53.1680 O.2   104  LYS104     -0.2867
    136  CB       -16.0490   17.8940   49.9530 C.3   104  LYS104      0.0271
    137  CG       -15.2940   18.3840   48.7190 C.3   104  LYS104      0.0035
    138  CD       -16.1600   18.4760   47.4560 C.3   104  LYS104      0.0206
    139  CE       -16.5050   17.1170   46.8850 C.3   104  LYS104      0.1093
    140  NZ       -17.0990   17.2310   45.5140 N.3   104  LYS104     -0.1314
    141  N         -8.9650   14.1510   49.5780 N.3   143  SER143     -0.1217
    142  CA        -9.6330   14.5170   48.3360 C.3   143  SER143      0.1889
    143  C         -9.5260   13.4320   47.2690 C.2   143  SER143      0.2288
    144  O        -10.2100   13.5350   46.2460 O.2   143  SER143     -0.2866
    145  CB        -9.0860   15.8440   47.8060 C.3   143  SER143      0.2089
    146  OG        -7.7290   15.7310   47.4270 O.3   143  SER143     -0.2183
    147  N        -13.2100    9.1300   47.1510 N.3   146  LEU146     -0.1245
    148  CA       -14.5730    9.4690   46.7580 C.3   146  LEU146      0.1561
    149  C        -15.5740    8.6670   47.5750 C.2   146  LEU146      0.2260
    150  O        -15.3150    7.5260   47.9580 O.2   146  LEU146     -0.2867
    151  CB       -14.7760    9.1770   45.2750 C.3   146  LEU146      0.0270
    152  CG       -13.7600    9.8090   44.3270 C.3   146  LEU146      0.0019
    153  CD1      -14.0200    9.3230   42.9310 C.3   146  LEU146      0.0001
    154  CD2      -13.8410   11.3180   44.3840 C.3   146  LEU146      0.0001
    155  N         -9.2440    7.1830   44.2160 N.3   155  CYS155     -0.1221
    156  CA        -9.1070    7.6990   42.8550 C.3   155  CYS155      0.1808
    157  C         -7.7520    8.3770   42.6800 C.2   155  CYS155      0.2601
    158  O         -6.9410    8.4620   43.6080 O.2   155  CYS155     -0.2717
    159  CB       -10.2420    8.6730   42.5170 C.3   155  CYS155      0.0970
    160  SG       -10.1950   10.2350   43.3960 S.3   155  CYS155     -0.0800
    161  N         -7.5250    8.8430   41.4490 N.am  156  ASP156     -0.1973
    162  CA        -6.3670    9.6270   41.0200 C.3   156  ASP156      0.1709
    163  C         -5.0470    8.8870   41.1690 C.2   156  ASP156      0.2293
    164  O         -4.3010    9.0950   42.1360 O.2   156  ASP156     -0.2864
    165  CB        -6.2650   10.9570   41.7610 C.3   156  ASP156      0.1436
    166  CG        -5.2080   11.8740   41.1320 C.2   156  ASP156      0.3671
    167  OD1       -4.5270   11.4430   40.1620 O.co2 156  ASP156     -0.2456
    168  OD2       -5.0560   13.0220   41.5910 O.co2 156  ASP156     -0.2456
@<TRIPOS>BOND
     1    49    47    1
     2    76    77    1
     3    48    46    1
     4    77    78    1
     5    77    80    1
     6    53    52    2
     7    81    80    1
     8    81    83    1
     9    47    46    1
    10    52    51    1
    11    46    43    1
    12    78    79    2
    13    80    82    1
    14    26    27    1
    15    43    44    1
    16    43    42    1
    17    50    51    1
    18    50    44   am
    19    27    28    1
    20    51    54    1
    21    44    45    2
    22    28    29    2
    23    54    55    1
    24    55    56    1
    25    61    62    2
    26    61    60    1
    27    42    39   am
    28    40    39    2
    29    21    19   ar
    30    59    60    1
    31    84    85    1
    32    57    56    1
    33    57    58    1
    34    39    38    1
    35    60    63    1
    36    63    64    1
    37    30    31    1
    38    25    24    2
    39    64    65    1
    40    19    18    1
    41    19    20   ar
    42    32    31    1
    43    32    33    2
    44    31    34    1
    45    85    86    1
    46    85    88    1
    47    18    17    1
    48    37    38    1
    49    38    41    1
    50    87    86    2
    51    24    23    1
    52    89    88    1
    53    89    90    1
    54    86    93   am
    55    65    66   ar
    56    65    67   ar
    57    22    23    1
    58    22    15   am
    59    36    34    1
    60    12    11    2
    61    34    35    1
    62    17    14    1
    63    92    90   am
    64    93    94    1
    65    90    91    2
    66    99    98   ar
    67    14    15    1
    68    14    13    1
    69    15    16    2
    70     1     2    1
    71    94    95    1
    72    94    97    1
    73    11    13   am
    74    11    10    1
    75    98    97    1
    76    98   100   ar
    77    95   101   am
    78    95    96    2
    79   101   102    1
    80     9    10    1
    81     9     3   am
    82    71    70    2
    83     6     8    1
    84     6     5    1
    85     5     2    1
    86     5     7    1
    87   105   102    1
    88   105   106    1
    89     2     3    1
    90    70    69    1
    91   107   106    1
    92   102   103    1
    93   167   166   ar
    94   108   106    1
    95     3     4    2
    96    73    72    1
    97    73    75    1
    98    74    72    1
    99   162   163    1
   100   162   161    1
   101   162   165    1
   102    72    69    1
   103   166   168   ar
   104   166   165    1
   105   163   164    2
   106    69    68    1
   107   161   157   am
   108   103   104    2
   109   103   109   am
   110   109   110    1
   111   159   156    1
   112   159   160    1
   113   157   156    1
   114   157   158    2
   115   156   155    1
   116   153   152    1
   117   114   115    1
   118   114   113    1
   119   110   113    1
   120   110   111    1
   121   115   116    1
   122   112   111    2
   123   152   154    1
   124   152   151    1
   125   151   148    1
   126   140   139    1
   127   144   143    2
   128   148   147    1
   129   148   149    1
   130   131   129   ar
   131   139   138    1
   132   117   118    1
   133   120   119    2
   134   143   142    1
   135   146   145    1
   136   138   137    1
   137   149   150    2
   138   118   119    1
   139   118   121    1
   140   119   124   am
   141   128   129    1
   142   128   125    1
   143   145   142    1
   144   129   130   ar
   145   142   141    1
   146   124   125    1
   147   137   136    1
   148   125   126    1
   149   121   122    1
   150   121   123    1
   151   136   133    1
   152   126   127    2
   153   132   133    1
   154   133   134    1
   155   134   135    2
