@<TRIPOS>MOLECULE
tmp/6fr2A00.pdb
 261 254 0 0 0
SMALL
GASTEIGER

@<TRIPOS>ATOM
      1  N        -12.1860  -19.5870  -38.5960 N.3    39  PHE39      -0.1228
      2  CA       -12.4890  -19.8910  -39.9920 C.3    39  PHE39       0.1721
      3  C        -13.9820  -19.7790  -40.2490 C.2    39  PHE39       0.2437
      4  O        -14.7760  -20.3590  -39.4940 O.2    39  PHE39      -0.2733
      5  CB       -12.0170  -21.3010  -40.3440 C.3    39  PHE39       0.0547
      6  CG       -12.3360  -21.6900  -41.7460 C.ar   39  PHE39      -0.0202
      7  CD1      -13.6140  -22.1690  -42.0860 C.ar   39  PHE39      -0.0042
      8  CD2      -11.3830  -21.5490  -42.7440 C.ar   39  PHE39      -0.0042
      9  CE1      -13.9320  -22.4880  -43.4040 C.ar   39  PHE39      -0.0003
     10  CE2      -11.6760  -21.8770  -44.0510 C.ar   39  PHE39      -0.0003
     11  CZ       -12.9620  -22.3520  -44.3860 C.ar   39  PHE39      -0.0000
     12  N        -14.4200  -19.0730  -41.3100 N.am   40  PRO40      -0.2729
     13  CA       -13.5730  -18.2120  -42.1320 C.3    40  PRO40       0.1401
     14  C        -13.8600  -16.7460  -41.8090 C.2    40  PRO40       0.2269
     15  O        -14.7670  -16.1610  -42.4160 O.2    40  PRO40      -0.2865
     16  CB       -14.0010  -18.5730  -43.5460 C.3    40  PRO40       0.0296
     17  CG       -15.5400  -18.9220  -43.3930 C.3    40  PRO40       0.0237
     18  CD       -15.7630  -19.2130  -41.8980 C.3    40  PRO40       0.0939
     19  N        -12.3770  -20.6360  -32.1690 N.3   107  ASP107     -0.1225
     20  CA       -12.3800  -21.6010  -33.2780 C.3   107  ASP107      0.1805
     21  C        -10.9150  -21.9310  -33.5720 C.2   107  ASP107      0.2597
     22  O        -10.1780  -22.2350  -32.6190 O.2   107  ASP107     -0.2718
     23  CB       -13.2070  -21.0260  -34.4280 C.3   107  ASP107      0.1424
     24  CG       -13.2710  -21.9500  -35.5980 C.2   107  ASP107      0.3668
     25  OD1      -14.1240  -22.8660  -35.5720 O.co2 107  ASP107     -0.2456
     26  OD2      -12.4570  -21.7660  -36.5340 O.co2 107  ASP107     -0.2456
     27  N        -10.4430  -21.8690  -34.8310 N.am  108  TRP108     -0.1976
     28  CA        -9.0300  -22.1430  -35.1140 C.3   108  TRP108      0.1640
     29  C         -8.1030  -21.2210  -34.3140 C.2   108  TRP108      0.2290
     30  O         -7.0500  -21.6520  -33.8390 O.2   108  TRP108     -0.2864
     31  CB        -8.7480  -22.0000  -36.6140 C.3   108  TRP108      0.0576
     32  CG        -8.8360  -23.2970  -37.3640 C.ar  108  TRP108      0.0006
     33  CD1       -9.7500  -23.6270  -38.3250 C.ar  108  TRP108      0.0946
     34  CD2       -7.9870  -24.4470  -37.2070 C.ar  108  TRP108      0.0152
     35  NE1       -9.5170  -24.9060  -38.7840 N.ar  108  TRP108     -0.2442
     36  CE2       -8.4460  -25.4310  -38.1080 C.ar  108  TRP108      0.0810
     37  CE3       -6.8930  -24.7440  -36.3900 C.ar  108  TRP108      0.0012
     38  CZ2       -7.8520  -26.6880  -38.2070 C.ar  108  TRP108      0.0191
     39  CZ3       -6.3050  -26.0000  -36.4960 C.ar  108  TRP108      0.0001
     40  CH2       -6.7920  -26.9510  -37.3930 C.ar  108  TRP108      0.0015
     41  N         -7.6690  -22.7230  -31.0250 N.3   111  MET111     -0.1245
     42  CA        -6.6560  -23.7520  -31.1400 C.3   111  MET111      0.1570
     43  C         -5.2650  -23.1300  -31.0840 C.2   111  MET111      0.2261
     44  O         -4.4160  -23.5600  -30.2990 O.2   111  MET111     -0.2867
     45  CB        -6.8790  -24.5290  -32.4370 C.3   111  MET111      0.0387
     46  CG        -5.9430  -25.7200  -32.6150 C.3   111  MET111      0.0595
     47  SD        -6.4200  -27.0570  -31.5140 S.3   111  MET111     -0.1393
     48  CE        -7.5180  -27.9910  -32.5910 C.3   111  MET111      0.0692
     49  N        -13.4270  -23.4860  -28.6180 N.3   132  THR132     -0.1218
     50  CA       -12.4180  -24.4960  -28.9300 C.3   132  THR132      0.1862
     51  C        -11.8320  -25.0770  -27.6550 C.2   132  THR132      0.2287
     52  O        -11.2370  -24.3360  -26.8650 O.2   132  THR132     -0.2866
     53  CB       -11.3140  -23.9170  -29.7730 C.3   132  THR132      0.1770
     54  OG1      -11.9020  -23.3150  -30.9260 O.3   132  THR132     -0.2211
     55  CG2      -10.3610  -25.0290  -30.2160 C.3   132  THR132      0.0375
     56  N         -4.7050  -38.3890  -36.7550 N.3   143  PRO143     -0.2116
     57  CA        -5.7950  -37.4330  -37.0060 C.3   143  PRO143      0.1372
     58  C         -6.8930  -37.9770  -37.8980 C.2   143  PRO143      0.2244
     59  O         -8.0650  -37.6420  -37.6870 O.2   143  PRO143     -0.2868
     60  CB        -5.0730  -36.2470  -37.6550 C.3   143  PRO143      0.0268
     61  CG        -3.6910  -36.3290  -37.1260 C.3   143  PRO143      0.0207
     62  CD        -3.3800  -37.7870  -36.9720 C.3   143  PRO143      0.0892
     63  N         -9.1270  -40.0480  -35.8340 N.3   146  SER146     -0.1202
     64  CA        -9.8980  -39.2370  -34.8990 C.3   146  SER146      0.2020
     65  C        -11.0240  -38.4800  -35.5850 C.2   146  SER146      0.2618
     66  O        -11.8790  -37.9120  -34.8920 O.2   146  SER146     -0.2717
     67  CB        -8.9900  -38.2670  -34.1530 C.3   146  SER146      0.2103
     68  OG        -9.6050  -37.7940  -32.9640 O.3   146  SER146     -0.2182
     69  N        -11.0230  -38.4200  -36.8970 N.am  147  ILE147     -0.1979
     70  CA       -12.0490  -37.6840  -37.5810 C.3   147  ILE147      0.1595
     71  C        -13.1680  -38.6200  -37.9130 C.2   147  ILE147      0.2287
     72  O        -14.2990  -38.4020  -37.5570 O.2   147  ILE147     -0.2864
     73  CB       -11.5030  -37.0570  -38.8520 C.3   147  ILE147      0.0276
     74  CG1      -10.6360  -35.8940  -38.4750 C.3   147  ILE147      0.0022
     75  CG2      -12.5930  -36.5460  -39.7740 C.3   147  ILE147      0.0022
     76  CD1      -10.0900  -35.1760  -39.6670 C.3   147  ILE147      0.0001
     77  N        -17.0910  -34.0940  -37.6900 N.3   153  PHE153     -0.1241
     78  CA       -15.8660  -33.5920  -38.2950 C.3   153  PHE153      0.1605
     79  C        -15.6870  -34.0560  -39.7340 C.2   153  PHE153      0.2264
     80  O        -14.5780  -33.9610  -40.2780 O.2   153  PHE153     -0.2867
     81  CB       -14.6630  -34.0070  -37.4480 C.3   153  PHE153      0.0534
     82  CG       -14.5930  -33.3030  -36.1240 C.ar  153  PHE153     -0.0203
     83  CD1      -15.2990  -32.1280  -35.9160 C.ar  153  PHE153     -0.0042
     84  CD2      -13.8220  -33.8010  -35.0930 C.ar  153  PHE153     -0.0042
     85  CE1      -15.2430  -31.4760  -34.7020 C.ar  153  PHE153     -0.0003
     86  CE2      -13.7590  -33.1470  -33.8790 C.ar  153  PHE153     -0.0003
     87  CZ       -14.4740  -31.9820  -33.6850 C.ar  153  PHE153     -0.0000
     88  N        -16.7950  -32.7960  -42.5690 N.3   155  TYR155     -0.1227
     89  CA       -16.4880  -31.7170  -43.5070 C.3   155  TYR155      0.1736
     90  C        -14.9870  -31.4660  -43.6590 C.2   155  TYR155      0.2595
     91  O        -14.5620  -30.9270  -44.6850 O.2   155  TYR155     -0.2718
     92  CB       -17.1770  -30.4260  -43.0610 C.3   155  TYR155      0.0548
     93  CG       -16.6300  -29.8610  -41.7640 C.ar  155  TYR155     -0.0200
     94  CD1      -17.0500  -30.3570  -40.5300 C.ar  155  TYR155     -0.0009
     95  CD2      -15.6870  -28.8300  -41.7750 C.ar  155  TYR155     -0.0009
     96  CE1      -16.5550  -29.8450  -39.3460 C.ar  155  TYR155      0.0417
     97  CE2      -15.1810  -28.3060  -40.5870 C.ar  155  TYR155      0.0417
     98  CZ       -15.6210  -28.8150  -39.3830 C.ar  155  TYR155      0.1957
     99  OH       -15.1190  -28.2930  -38.2180 O.3   155  TYR155     -0.2866
    100  N        -14.1710  -31.8400  -42.6720 N.am  156  GLN156     -0.1979
    101  CA       -12.7390  -31.6010  -42.7850 C.3   156  GLN156      0.1601
    102  C        -12.0730  -32.4970  -43.8120 C.2   156  GLN156      0.2287
    103  O        -10.9460  -32.1950  -44.2260 O.2   156  GLN156     -0.2864
    104  CB       -12.0530  -31.7800  -41.4340 C.3   156  GLN156      0.0394
    105  CG       -12.6270  -30.8800  -40.3660 C.3   156  GLN156      0.0908
    106  CD       -12.1310  -31.2370  -38.9890 C.2   156  GLN156      0.2608
    107  OE1      -11.0220  -31.7480  -38.8390 O.2   156  GLN156     -0.2717
    108  NE2      -12.9430  -30.9560  -37.9680 N.am  156  GLN156     -0.0878
    109  N        -12.4810  -30.6610  -47.0560 N.3   159  PHE159     -0.1241
    110  CA       -11.5780  -29.5120  -47.0850 C.3   159  PHE159      0.1605
    111  C        -10.1510  -29.8750  -47.4500 C.2   159  PHE159      0.2264
    112  O         -9.3380  -28.9640  -47.5860 O.2   159  PHE159     -0.2867
    113  CB       -11.5300  -28.7950  -45.7240 C.3   159  PHE159      0.0534
    114  CG       -12.7330  -27.9240  -45.4340 C.ar  159  PHE159     -0.0203
    115  CD1      -13.7620  -27.8100  -46.3560 C.ar  159  PHE159     -0.0042
    116  CD2      -12.8230  -27.2050  -44.2370 C.ar  159  PHE159     -0.0042
    117  CE1      -14.8770  -27.0000  -46.0920 C.ar  159  PHE159     -0.0003
    118  CE2      -13.9310  -26.3940  -43.9620 C.ar  159  PHE159     -0.0003
    119  CZ       -14.9570  -26.2850  -44.8930 C.ar  159  PHE159     -0.0000
    120  N        -23.1910  -19.2740  -43.7850 N.3   180  LEU180     -0.1245
    121  CA       -22.4330  -19.6890  -42.6150 C.3   180  LEU180      0.1561
    122  C        -22.8290  -18.9130  -41.3680 C.2   180  LEU180      0.2260
    123  O        -23.0330  -19.5080  -40.3060 O.2   180  LEU180     -0.2867
    124  CB       -20.9350  -19.5220  -42.8790 C.3   180  LEU180      0.0270
    125  CG       -20.2900  -20.5980  -43.7490 C.3   180  LEU180      0.0019
    126  CD1      -18.9320  -20.1220  -44.2260 C.3   180  LEU180      0.0001
    127  CD2      -20.1650  -21.9210  -42.9890 C.3   180  LEU180      0.0001
    128  N        -24.9600  -17.7160  -39.1710 N.3   182  ARG182     -0.1245
    129  CA       -26.3490  -17.8110  -38.7240 C.3   182  ARG182      0.1563
    130  C        -26.4310  -18.3280  -37.2930 C.2   182  ARG182      0.2260
    131  O        -25.5730  -19.0910  -36.8360 O.2   182  ARG182     -0.2867
    132  CB       -27.1780  -18.7370  -39.6190 C.3   182  ARG182      0.0307
    133  CG       -26.8930  -18.6420  -41.1080 C.3   182  ARG182      0.0489
    134  CD       -27.7950  -19.5990  -41.9120 C.3   182  ARG182      0.2205
    135  NE       -29.1980  -19.1940  -41.8720 N.pl3 182  ARG182     -0.0865
    136  CZ       -29.7300  -18.2310  -42.6250 C.cat 182  ARG182      0.5346
    137  NH1      -28.9740  -17.5500  -43.4860 N.pl3 182  ARG182      0.1354
    138  NH2      -31.0290  -17.9430  -42.5170 N.pl3 182  ARG182      0.1354
    139  N        -28.0040  -20.7190  -34.3420 N.3   184  SER184     -0.1217
    140  CA       -28.1670  -22.1670  -34.4440 C.3   184  SER184      0.1889
    141  C        -29.5560  -22.5400  -34.9450 C.2   184  SER184      0.2288
    142  O        -29.6990  -23.4520  -35.7690 O.2   184  SER184     -0.2866
    143  CB       -27.8800  -22.8380  -33.1020 C.3   184  SER184      0.2089
    144  OG       -26.5220  -23.2560  -33.0780 O.3   184  SER184     -0.2183
    145  N        -29.9240  -22.3930  -38.8280 N.3   187  SER187     -0.1217
    146  CA       -28.8440  -23.0190  -39.5720 C.3   187  SER187      0.1889
    147  C        -29.3870  -23.8380  -40.7350 C.2   187  SER187      0.2288
    148  O        -30.3760  -24.5610  -40.5990 O.2   187  SER187     -0.2866
    149  CB       -28.0100  -23.9010  -38.6390 C.3   187  SER187      0.2089
    150  OG       -26.6860  -24.0140  -39.1240 O.3   187  SER187     -0.2183
    151  N        -27.0690  -25.7020  -42.8020 N.3   189  LEU189     -0.1245
    152  CA       -26.0440  -26.6690  -43.1840 C.3   189  LEU189      0.1561
    153  C        -25.9920  -27.8410  -42.2150 C.2   189  LEU189      0.2260
    154  O        -26.2250  -27.6950  -41.0100 O.2   189  LEU189     -0.2867
    155  CB       -24.6500  -26.0320  -43.2590 C.3   189  LEU189      0.0270
    156  CG       -24.5860  -24.6480  -43.8780 C.3   189  LEU189      0.0019
    157  CD1      -23.2300  -24.0370  -43.6100 C.3   189  LEU189      0.0001
    158  CD2      -24.8840  -24.7480  -45.3680 C.3   189  LEU189      0.0001
    159  N        -23.1220  -30.2140  -41.2130 N.3   191  MET191     -0.1245
    160  CA       -21.7020  -30.5220  -41.3200 C.3   191  MET191      0.1570
    161  C        -21.4250  -32.0200  -41.2720 C.2   191  MET191      0.2261
    162  O        -20.3460  -32.4480  -41.6980 O.2   191  MET191     -0.2867
    163  CB       -20.9350  -29.8060  -40.2100 C.3   191  MET191      0.0387
    164  CG       -21.3270  -28.3490  -40.0460 C.3   191  MET191      0.0595
    165  SD       -20.8990  -27.3280  -41.4790 S.3   191  MET191     -0.1393
    166  CE       -19.1370  -27.0800  -41.2290 C.3   191  MET191      0.0692
    167  N         -6.5960  -26.4200  -42.1780 N.3   238  TYR238     -0.1241
    168  CA        -7.0310  -27.8080  -42.0150 C.3   238  TYR238      0.1605
    169  C         -6.1230  -28.8190  -42.6950 C.2   238  TYR238      0.2264
    170  O         -6.3210  -30.0240  -42.5060 O.2   238  TYR238     -0.2867
    171  CB        -8.4150  -28.0320  -42.6140 C.3   238  TYR238      0.0534
    172  CG        -9.5270  -27.2110  -42.0510 C.ar  238  TYR238     -0.0201
    173  CD1      -10.3540  -27.7210  -41.0510 C.ar  238  TYR238     -0.0009
    174  CD2       -9.7850  -25.9380  -42.5460 C.ar  238  TYR238     -0.0009
    175  CE1      -11.3940  -26.9750  -40.5430 C.ar  238  TYR238      0.0417
    176  CE2      -10.8150  -25.1840  -42.0500 C.ar  238  TYR238      0.0417
    177  CZ       -11.6210  -25.7060  -41.0480 C.ar  238  TYR238      0.1957
    178  OH       -12.6550  -24.9590  -40.5580 O.3   238  TYR238     -0.2866
    179  N         -2.9050  -31.6120  -40.6270 N.3   241  MET241     -0.1245
    180  CA        -3.2910  -32.4100  -39.4600 C.3   241  MET241      0.1570
    181  C         -2.1330  -33.2760  -38.9680 C.2   241  MET241      0.2261
    182  O         -1.8530  -33.3320  -37.7630 O.2   241  MET241     -0.2867
    183  CB        -4.5070  -33.2880  -39.7850 C.3   241  MET241      0.0387
    184  CG        -5.8090  -32.5730  -40.2670 C.3   241  MET241      0.0595
    185  SD        -6.6110  -31.4640  -39.0570 S.3   241  MET241     -0.1393
    186  CE        -8.1300  -31.0040  -39.9020 C.3   241  MET241      0.0692
    187  N        -25.1240  -24.1090  -27.9610 N.3   267  LYS267     -0.1231
    188  CA       -25.6850  -24.5820  -29.2230 C.3   267  LYS267      0.1693
    189  C        -24.6540  -24.7370  -30.3310 C.2   267  LYS267      0.2592
    190  O        -25.0390  -24.8930  -31.4990 O.2   267  LYS267     -0.2718
    191  CB       -26.8030  -23.6430  -29.6980 C.3   267  LYS267      0.0285
    192  CG       -27.9800  -23.5400  -28.7510 C.3   267  LYS267      0.0035
    193  CD       -28.3640  -24.9160  -28.2080 C.3   267  LYS267      0.0206
    194  CE       -29.7300  -24.8630  -27.5160 C.3   267  LYS267      0.1093
    195  NZ       -30.8360  -24.6080  -28.4870 N.3   267  LYS267     -0.1314
    196  N        -23.3590  -24.6900  -30.0110 N.am  268  ASP268     -0.1960
    197  CA       -22.3390  -25.0340  -30.9950 C.3   268  ASP268      0.1840
    198  C        -22.3590  -26.5470  -31.1850 C.2   268  ASP268      0.2622
    199  O        -21.8500  -27.2880  -30.3370 O.2   268  ASP268     -0.2715
    200  CB       -20.9580  -24.5480  -30.5360 C.3   268  ASP268      0.1450
    201  CG       -19.8900  -24.6260  -31.6370 C.2   268  ASP268      0.3671
    202  OD1      -20.0310  -25.4260  -32.5930 O.co2 268  ASP268     -0.2456
    203  OD2      -18.8760  -23.8880  -31.5390 O.co2 268  ASP268     -0.2456
    204  N        -22.8980  -27.0080  -32.3120 N.am  269  PHE269     -0.1960
    205  CA       -23.0490  -28.4380  -32.5450 C.3   269  PHE269      0.1771
    206  C        -21.8330  -29.0820  -33.1900 C.2   269  PHE269      0.2619
    207  O        -21.8320  -30.2940  -33.4010 O.2   269  PHE269     -0.2715
    208  CB       -24.3100  -28.7010  -33.3790 C.3   269  PHE269      0.0574
    209  CG       -25.5830  -28.2700  -32.6790 C.ar  269  PHE269     -0.0200
    210  CD1      -25.8190  -28.6280  -31.3470 C.ar  269  PHE269     -0.0042
    211  CD2      -26.5260  -27.4830  -33.3290 C.ar  269  PHE269     -0.0042
    212  CE1      -26.9820  -28.2280  -30.6890 C.ar  269  PHE269     -0.0003
    213  CE2      -27.7010  -27.0760  -32.6750 C.ar  269  PHE269     -0.0003
    214  CZ       -27.9270  -27.4490  -31.3610 C.ar  269  PHE269     -0.0000
    215  N        -20.7880  -28.3230  -33.4750 N.am  270  VAL270     -0.1963
    216  CA       -19.5100  -28.8930  -33.8920 C.3   270  VAL270      0.1727
    217  C        -18.5330  -28.9390  -32.7310 C.2   270  VAL270      0.2616
    218  O        -17.9640  -29.9850  -32.4280 O.2   270  VAL270     -0.2715
    219  CB       -18.9320  -28.1020  -35.0860 C.3   270  VAL270      0.0290
    220  CG1      -17.5120  -28.5950  -35.4250 C.3   270  VAL270      0.0023
    221  CG2      -19.8720  -28.1770  -36.2920 C.3   270  VAL270      0.0023
    222  N        -18.3120  -27.7980  -32.0810 N.am  271  LEU271     -0.1977
    223  CA       -17.4370  -27.7080  -30.9180 C.3   271  LEU271      0.1596
    224  C        -18.3310  -27.7230  -29.6870 C.2   271  LEU271      0.2287
    225  O        -18.5720  -26.6980  -29.0400 O.2   271  LEU271     -0.2864
    226  CB       -16.5580  -26.4520  -30.9740 C.3   271  LEU271      0.0297
    227  CG       -15.5110  -26.3740  -32.0780 C.3   271  LEU271      0.0022
    228  CD1      -14.8920  -24.9990  -32.1330 C.3   271  LEU271      0.0001
    229  CD2      -14.4420  -27.4410  -31.8730 C.3   271  LEU271      0.0001
    230  N        -16.8790  -31.5760  -25.2340 N.3   275  MET275     -0.1245
    231  CA       -15.5060  -31.8020  -25.6630 C.3   275  MET275      0.1570
    232  C        -14.4820  -31.1540  -24.7380 C.2   275  MET275      0.2261
    233  O        -13.2860  -31.4250  -24.8800 O.2   275  MET275     -0.2867
    234  CB       -15.3210  -31.2770  -27.0830 C.3   275  MET275      0.0387
    235  CG       -15.9780  -32.1350  -28.1270 C.3   275  MET275      0.0595
    236  SD       -15.8360  -31.3900  -29.7600 S.3   275  MET275     -0.1393
    237  CE       -14.0860  -30.9230  -29.7600 C.3   275  MET275      0.0692
    238  N        -22.1730  -21.3510  -32.8530 N.3   296  HIS296     -0.1226
    239  CA       -20.7510  -21.3260  -33.1600 C.3   296  HIS296      0.1752
    240  C        -20.1790  -19.9150  -33.2640 C.2   296  HIS296      0.2596
    241  O        -19.0060  -19.7110  -32.9330 O.2   296  HIS296     -0.2718
    242  CB       -20.4610  -22.0520  -34.4660 C.3   296  HIS296      0.0759
    243  CG       -18.9990  -22.0540  -34.8130 C.ar  296  HIS296      0.0818
    244  ND1      -18.0770  -22.8080  -34.1150 N.ar  296  HIS296     -0.2268
    245  CD2      -18.2960  -21.3720  -35.7510 C.ar  296  HIS296      0.1154
    246  CE1      -16.8730  -22.6040  -34.6200 C.ar  296  HIS296      0.1986
    247  NE2      -16.9790  -21.7440  -35.6180 N.ar  296  HIS296     -0.2212
    248  N        -20.9520  -18.9500  -33.7640 N.am  297  TRP297     -0.1976
    249  CA       -20.4370  -17.6030  -34.0390 C.3   297  TRP297      0.1640
    250  C        -20.6130  -16.7220  -32.8050 C.2   297  TRP297      0.2290
    251  O        -21.3270  -15.7240  -32.7940 O.2   297  TRP297     -0.2864
    252  CB       -21.1260  -17.0190  -35.2620 C.3   297  TRP297      0.0576
    253  CG       -21.1330  -18.0240  -36.3680 C.ar  297  TRP297      0.0006
    254  CD1      -22.1910  -18.7750  -36.7880 C.ar  297  TRP297      0.0946
    255  CD2      -20.0130  -18.4280  -37.1600 C.ar  297  TRP297      0.0152
    256  NE1      -21.8020  -19.6090  -37.8090 N.ar  297  TRP297     -0.2442
    257  CE2      -20.4700  -19.4100  -38.0600 C.ar  297  TRP297      0.0810
    258  CE3      -18.6710  -18.0400  -37.2090 C.ar  297  TRP297      0.0012
    259  CZ2      -19.6310  -20.0150  -38.9840 C.ar  297  TRP297      0.0191
    260  CZ3      -17.8500  -18.6370  -38.1230 C.ar  297  TRP297      0.0001
    261  CH2      -18.3240  -19.6150  -38.9970 C.ar  297  TRP297      0.0015
@<TRIPOS>BOND
     1   112   111    2
     2   111   110    1
     3   110   109    1
     4   110   113    1
     5   115   117   ar
     6   115   114   ar
     7   117   119   ar
     8   113   114    1
     9   114   116   ar
    10   158   156    1
    11   119   118   ar
    12    91    90    2
    13    11    10   ar
    14    11     9   ar
    15   116   118   ar
    16   103   102    2
    17   126   125    1
    18    10     8   ar
    19   156   157    1
    20   156   155    1
    21   102   101    1
    22   120   121    1
    23   125   127    1
    24   125   124    1
    25    90    89    1
    26    90   100   am
    27    16    17    1
    28    16    13    1
    29    89    92    1
    30    89    88    1
    31   137   136    1
    32     9     7   ar
    33    17    18    1
    34   155   152    1
    35   152   151    1
    36   152   153    1
    37    92    93    1
    38   124   121    1
    39   101   100    1
    40   101   104    1
    41     8     6   ar
    42   169   170    2
    43   169   168    1
    44   136   138    1
    45   136   135    2
    46   121   122    1
    47   171   172    1
    48   171   168    1
    49   174   172   ar
    50   174   176   ar
    51    15    14    2
    52   153   154    2
    53   167   168    1
    54    13    14    1
    55    13    12    1
    56     7     6   ar
    57   172   173   ar
    58   176   177   ar
    59   134   135    1
    60   134   133    1
    61    18    12    1
    62    95    93   ar
    63    95    97   ar
    64    93    94   ar
    65     6     5    1
    66   162   161    2
    67   165   166    1
    68   165   164    1
    69   104   105    1
    70   122   123    2
    71   160   161    1
    72   160   159    1
    73   160   163    1
    74    12     3   am
    75   133   132    1
    76   173   175   ar
    77   177   178    1
    78   177   175   ar
    79   147   148    2
    80   147   146    1
    81   179   180    1
    82    97    98   ar
    83    94    96   ar
    84   105   106    1
    85     5     2    1
    86    80    79    2
    87   184   183    1
    88   184   185    1
    89     3     2    1
    90     3     4    2
    91   163   164    1
    92     2     1    1
    93   186   185    1
    94   183   180    1
    95    75    73    1
    96    79    78    1
    97    76    74    1
    98   132   129    1
    99   146   145    1
   100   146   149    1
   101   180   181    1
   102    98    96   ar
   103    98    99    1
   104   128   129    1
   105   150   149    1
   106   261   259   ar
   107   261   260   ar
   108   106   107    2
   109   106   108   am
   110   259   257   ar
   111   181   182    2
   112    73    74    1
   113    73    70    1
   114    35    33   ar
   115    35    36   ar
   116   129   130    1
   117    33    32   ar
   118    78    77    1
   119    78    81    1
   120    38    36   ar
   121    38    40   ar
   122   260   258   ar
   123    36    34   ar
   124   257   256   ar
   125   257   255   ar
   126    71    70    1
   127    71    72    2
   128    58    59    2
   129    58    57    1
   130   256   254   ar
   131    60    61    1
   132    60    57    1
   133    70    69    1
   134    81    82    1
   135    40    39   ar
   136    32    34   ar
   137    32    31    1
   138   130   131    2
   139   258   255   ar
   140    34    37   ar
   141   255   253   ar
   142    61    62    1
   143    57    56    1
   144    62    56    1
   145    69    65   am
   146   254   253   ar
   147    31    28    1
   148    26    24   ar
   149    39    37   ar
   150   253   252    1
   151   221   219    1
   152    82    83   ar
   153    82    84   ar
   154    83    85   ar
   155    63    64    1
   156   142   141    2
   157   245   247   ar
   158   245   243   ar
   159   247   246   ar
   160    24    25   ar
   161    24    23    1
   162    65    64    1
   163    65    66    2
   164   220   219    1
   165   252   249    1
   166    28    27    1
   167    28    29    1
   168    84    86   ar
   169   219   216    1
   170   141   140    1
   171    64    67    1
   172    27    21   am
   173   243   242    1
   174   243   244   ar
   175    85    87   ar
   176   246   244   ar
   177   242   239    1
   178   140   139    1
   179   140   143    1
   180    23    20    1
   181    29    30    2
   182    67    68    1
   183   249   248    1
   184   249   250    1
   185   216   215    1
   186   216   217    1
   187    86    87   ar
   188   248   240   am
   189    21    20    1
   190    21    22    2
   191   215   206   am
   192   207   206    2
   193   208   209    1
   194   208   205    1
   195   211   209   ar
   196   211   213   ar
   197    20    19    1
   198   240   239    1
   199   240   241    2
   200   206   205    1
   201   239   238    1
   202   143   144    1
   203   250   251    2
   204   217   218    2
   205   217   222   am
   206   209   210   ar
   207   213   214   ar
   208    46    45    1
   209    46    47    1
   210   202   201   ar
   211    48    47    1
   212   205   204    1
   213    45    42    1
   214   204   198   am
   215   228   227    1
   216   222   223    1
   217   227   229    1
   218   227   226    1
   219   201   203   ar
   220   201   200    1
   221   190   189    2
   222   214   212   ar
   223   210   212   ar
   224   198   197    1
   225   198   199    2
   226    42    43    1
   227    42    41    1
   228    43    44    2
   229   197   200    1
   230   197   196    1
   231   226   223    1
   232    54    53    1
   233   223   224    1
   234   189   196   am
   235   189   188    1
   236    55    53    1
   237    53    50    1
   238   236   237    1
   239   236   235    1
   240   191   188    1
   241   191   192    1
   242   224   225    2
   243   188   187    1
   244    50    49    1
   245    50    51    1
   246   192   193    1
   247   195   194    1
   248   193   194    1
   249   235   234    1
   250    51    52    2
   251   234   231    1
   252   231   230    1
   253   231   232    1
   254   233   232    2
