@<TRIPOS>MOLECULE
tmp/6frdB00.pdb
 198 192 0 0 0
SMALL
GASTEIGER

@<TRIPOS>ATOM
      1  N         18.4540  -33.8030   53.9350 N.3    82  TYR82      -0.1227
      2  CA        18.5180  -33.1620   55.2550 C.3    82  TYR82       0.1736
      3  C         17.9310  -31.7260   55.3500 C.2    82  TYR82       0.2595
      4  O         17.0070  -31.4820   56.1590 O.2    82  TYR82      -0.2718
      5  CB        19.9620  -33.1910   55.7440 C.3    82  TYR82       0.0548
      6  CG        20.1630  -32.5940   57.1120 C.ar   82  TYR82      -0.0200
      7  CD1       19.9680  -33.3540   58.2530 C.ar   82  TYR82      -0.0009
      8  CD2       20.5360  -31.2780   57.2630 C.ar   82  TYR82      -0.0009
      9  CE1       20.1730  -32.8250   59.5030 C.ar   82  TYR82       0.0417
     10  CE2       20.7340  -30.7170   58.5280 C.ar   82  TYR82       0.0417
     11  CZ        20.5570  -31.4810   59.6370 C.ar   82  TYR82       0.1957
     12  OH        20.7480  -30.9480   60.8630 O.3    82  TYR82      -0.2866
     13  N         18.4960  -30.8010   54.5760 N.am   83  HIS83      -0.1975
     14  CA        18.1720  -29.3550   54.6710 C.3    83  HIS83       0.1656
     15  C         16.8320  -29.0030   54.0210 C.2    83  HIS83       0.2291
     16  O         16.7560  -28.1650   53.1130 O.2    83  HIS83      -0.2864
     17  CB        19.2870  -28.5290   54.0610 C.3    83  HIS83       0.0771
     18  CG        20.5090  -28.4840   54.8980 C.ar   83  HIS83       0.0820
     19  ND1       21.6260  -29.2330   54.6240 N.ar   83  HIS83      -0.2267
     20  CD2       20.7800  -27.8120   56.0400 C.ar   83  HIS83       0.1154
     21  CE1       22.5600  -28.9920   55.5300 C.ar   83  HIS83       0.1986
     22  NE2       22.0610  -28.1510   56.4120 N.ar   83  HIS83      -0.2212
     23  N         27.1930  -26.8200   50.4480 N.3   131  ASN131     -0.1240
     24  CA        27.6670  -25.7870   51.3500 C.3   131  ASN131      0.1653
     25  C         28.2580  -24.6310   50.5780 C.2   131  ASN131      0.2266
     26  O         28.2880  -24.6520   49.3490 O.2   131  ASN131     -0.2867
     27  CB        28.5500  -26.3640   52.4820 C.3   131  ASN131      0.1155
     28  CG        29.9370  -26.8230   52.0130 C.2   131  ASN131      0.2627
     29  OD1       30.4240  -26.4830   50.9090 O.2   131  ASN131     -0.2716
     30  ND2       30.5780  -27.6540   52.8700 N.am  131  ASN131     -0.0877
     31  N         28.7970  -21.7660   59.1560 N.3   199  MET199     -0.1245
     32  CA        29.7700  -22.4200   60.0510 C.3   199  MET199      0.1570
     33  C         31.1970  -21.8680   59.9640 C.2   199  MET199      0.2261
     34  O         31.9540  -22.0350   60.9030 O.2   199  MET199     -0.2867
     35  CB        29.7430  -23.9260   59.9080 C.3   199  MET199      0.0387
     36  CG        28.5020  -24.5660   60.5440 C.3   199  MET199      0.0595
     37  SD        28.2730  -24.2990   62.3410 S.3   199  MET199     -0.1393
     38  CE        29.5860  -25.3210   63.0020 C.3   199  MET199      0.0692
     39  N         20.3070  -25.2590   65.2770 N.3   236  ASP236     -0.1225
     40  CA        20.8090  -25.7490   63.9990 C.3   236  ASP236      0.1805
     41  C         21.7280  -26.9690   64.1340 C.2   236  ASP236      0.2597
     42  O         21.7350  -27.8230   63.2600 O.2   236  ASP236     -0.2718
     43  CB        21.5360  -24.6000   63.2750 C.3   236  ASP236      0.1424
     44  CG        21.4940  -24.7210   61.7650 C.2   236  ASP236      0.3668
     45  OD1       20.5640  -25.3810   61.2450 O.co2 236  ASP236     -0.2456
     46  OD2       22.3840  -24.1260   61.1070 O.co2 236  ASP236     -0.2456
     47  N         22.4890  -27.0550   65.2210 N.am  237  ILE237     -0.1980
     48  CA        23.3460  -28.2270   65.4710 C.3   237  ILE237      0.1595
     49  C         22.8290  -29.0650   66.6360 C.2   237  ILE237      0.2287
     50  O         23.5980  -29.7520   67.2490 O.2   237  ILE237     -0.2864
     51  CB        24.8240  -27.8570   65.6680 C.3   237  ILE237      0.0276
     52  CG1       25.0130  -27.0000   66.9070 C.3   237  ILE237      0.0022
     53  CG2       25.3190  -27.0900   64.4620 C.3   237  ILE237      0.0022
     54  CD1       26.4830  -26.7510   67.2010 C.3   237  ILE237      0.0001
     55  N         20.8780  -31.7420   66.7040 N.3   239  ASN239     -0.1225
     56  CA        20.5600  -33.1490   66.4610 C.3   239  ASN239      0.1785
     57  C         21.2280  -34.1160   67.4870 C.2   239  ASN239      0.2597
     58  O         20.6440  -35.1120   67.9290 O.2   239  ASN239     -0.2718
     59  CB        20.9980  -33.5620   65.0450 C.3   239  ASN239      0.1169
     60  CG        20.2480  -32.8200   63.8910 C.2   239  ASN239      0.2627
     61  OD1       20.6990  -32.9070   62.7490 O.2   239  ASN239     -0.2716
     62  ND2       19.1270  -32.1450   64.1620 N.am  239  ASN239     -0.0877
     63  N         22.4750  -33.8080   67.8470 N.am  240  VAL240     -0.1980
     64  CA        23.2220  -34.5660   68.7940 C.3   240  VAL240      0.1595
     65  C         22.6890  -34.4320   70.2400 C.2   240  VAL240      0.2287
     66  O         23.1740  -35.1430   71.1080 O.2   240  VAL240     -0.2864
     67  CB        24.7170  -34.1650   68.7800 C.3   240  VAL240      0.0276
     68  CG1       25.3450  -34.5280   67.4670 C.3   240  VAL240      0.0022
     69  CG2       24.9460  -32.6780   69.1320 C.3   240  VAL240      0.0022
     70  N         18.5900  -38.8380   66.8770 N.3   247  SER247     -0.1217
     71  CA        19.8810  -38.2800   66.5260 C.3   247  SER247      0.1889
     72  C         20.4940  -39.0660   65.3600 C.2   247  SER247      0.2288
     73  O         21.0400  -38.5100   64.4580 O.2   247  SER247     -0.2866
     74  CB        20.7810  -38.3160   67.7660 C.3   247  SER247      0.2089
     75  OG        22.0450  -37.7410   67.5470 O.3   247  SER247     -0.2183
     76  N         18.8260  -38.2710   61.8650 N.3   250  TRP250     -0.1227
     77  CA        19.3680  -37.0260   61.3170 C.3   250  TRP250      0.1737
     78  C         20.7730  -37.2500   60.7830 C.2   250  TRP250      0.2595
     79  O         21.1070  -36.7780   59.6930 O.2   250  TRP250     -0.2718
     80  CB        19.3830  -35.8680   62.3340 C.3   250  TRP250      0.0564
     81  CG        18.0660  -35.3760   62.7500 C.ar  250  TRP250      0.0003
     82  CD1       17.5480  -35.4480   64.0030 C.ar  250  TRP250      0.0946
     83  CD2       17.1010  -34.6570   61.9530 C.ar  250  TRP250      0.0152
     84  NE1       16.2920  -34.8150   64.0350 N.ar  250  TRP250     -0.2442
     85  CE2       16.0110  -34.3420   62.7790 C.ar  250  TRP250      0.0810
     86  CE3       17.0700  -34.2330   60.6300 C.ar  250  TRP250      0.0012
     87  CZ2       14.9120  -33.6490   62.3150 C.ar  250  TRP250      0.0191
     88  CZ3       15.9810  -33.5390   60.1750 C.ar  250  TRP250      0.0001
     89  CH2       14.9200  -33.2600   61.0080 C.ar  250  TRP250      0.0015
     90  N         21.5850  -37.9810   61.5340 N.am  251  ALA251     -0.1980
     91  CA        22.9470  -38.2540   61.0940 C.3   251  ALA251      0.1597
     92  C         23.0030  -38.9960   59.7350 C.2   251  ALA251      0.2287
     93  O         23.8560  -38.6840   58.8970 O.2   251  ALA251     -0.2864
     94  CB        23.7030  -39.0170   62.1740 C.3   251  ALA251      0.0319
     95  N         22.1270  -36.2990   56.9490 N.3   254  VAL254     -0.1231
     96  CA        23.1340  -35.3050   56.6930 C.3   254  VAL254      0.1692
     97  C         24.3350  -35.9170   56.0110 C.2   254  VAL254      0.2592
     98  O         24.9580  -35.3000   55.1370 O.2   254  VAL254     -0.2718
     99  CB        23.5480  -34.4980   57.9650 C.3   254  VAL254      0.0266
    100  CG1       24.6310  -35.1770   58.7780 C.3   254  VAL254      0.0020
    101  CG2       24.0490  -33.1420   57.5500 C.3   254  VAL254      0.0020
    102  N         24.6460  -37.1340   56.3780 N.am  255  THR255     -0.1953
    103  CA        25.7970  -37.8310   55.8340 C.3   255  THR255      0.1897
    104  C         25.5900  -38.0470   54.3400 C.2   255  THR255      0.2313
    105  O         26.5120  -37.7860   53.5520 O.2   255  THR255     -0.2863
    106  CB        26.0310  -39.1370   56.6190 C.3   255  THR255      0.1794
    107  OG1       26.3850  -38.8100   57.9780 O.3   255  THR255     -0.2208
    108  CG2       27.1210  -39.9100   56.0490 C.3   255  THR255      0.0378
    109  N         26.4300  -34.7740   52.5350 N.3   258  PHE258     -0.1227
    110  CA        27.8790  -34.6120   52.4010 C.3   258  PHE258      0.1736
    111  C         28.4370  -35.4130   51.2430 C.2   258  PHE258      0.2595
    112  O         29.2510  -34.9230   50.4350 O.2   258  PHE258     -0.2718
    113  CB        28.5790  -34.9730   53.6970 C.3   258  PHE258      0.0547
    114  CG        28.6040  -33.8510   54.6830 C.ar  258  PHE258     -0.0202
    115  CD1       27.5880  -33.6710   55.5900 C.ar  258  PHE258     -0.0042
    116  CD2       29.6710  -32.9760   54.7290 C.ar  258  PHE258     -0.0042
    117  CE1       27.6180  -32.6200   56.5310 C.ar  258  PHE258     -0.0003
    118  CE2       29.7230  -31.9420   55.6640 C.ar  258  PHE258     -0.0003
    119  CZ        28.6800  -31.7610   56.5510 C.ar  258  PHE258     -0.0000
    120  N         27.9650  -36.6480   51.1280 N.am  259  TYR259     -0.1976
    121  CA        28.4900  -37.5420   50.0800 C.3   259  TYR259      0.1639
    122  C         28.0990  -37.0920   48.6880 C.2   259  TYR259      0.2290
    123  O         28.9260  -37.1130   47.7690 O.2   259  TYR259     -0.2864
    124  CB        28.1280  -39.0090   50.3300 C.3   259  TYR259      0.0560
    125  CG        28.7740  -39.6300   51.5800 C.ar  259  TYR259     -0.0198
    126  CD1       29.9760  -39.1080   52.1320 C.ar  259  TYR259     -0.0009
    127  CD2       28.2220  -40.7830   52.1740 C.ar  259  TYR259     -0.0009
    128  CE1       30.5370  -39.6770   53.2490 C.ar  259  TYR259      0.0417
    129  CE2       28.8050  -41.3650   53.2850 C.ar  259  TYR259      0.0417
    130  CZ        29.9490  -40.8080   53.8280 C.ar  259  TYR259      0.1957
    131  OH        30.5120  -41.3890   54.9320 O.3   259  TYR259     -0.2866
    132  N         35.9020  -36.4990   54.4210 N.3   275  MET275     -0.1182
    133  CA        34.5560  -36.4440   55.0430 C.3   275  MET275      0.1917
    134  C         33.4000  -36.3900   53.9880 C.2   275  MET275      0.2634
    135  O         32.2670  -36.8190   54.2770 O.2   275  MET275     -0.2714
    136  CB        34.4960  -35.2130   55.9560 C.2   275  MET275      0.0083
    137  CG        33.1780  -34.8900   56.6470 C.2   275  MET275      0.0282
    138  SD        33.1780  -33.3920   57.6930 S.3   275  MET275     -0.1125
    139  CE        34.4610  -32.4380   56.9490 C.3   275  MET275      0.0742
    140  N         33.6740  -35.8020   52.8210 N.am  276  PHE276     -0.1973
    141  CA        32.6710  -35.6890   51.7370 C.3   276  PHE276      0.1639
    142  C         32.7090  -36.8660   50.7310 C.2   276  PHE276      0.2290
    143  O         31.8730  -36.9430   49.8510 O.2   276  PHE276     -0.2864
    144  CB        32.8490  -34.3450   50.9960 C.3   276  PHE276      0.0560
    145  CG        32.4620  -33.1580   51.8100 C.ar  276  PHE276     -0.0200
    146  CD1       33.3750  -32.6290   52.7380 C.ar  276  PHE276     -0.0042
    147  CD2       31.1840  -32.5830   51.7130 C.ar  276  PHE276     -0.0042
    148  CE1       33.0310  -31.5080   53.5190 C.ar  276  PHE276     -0.0003
    149  CE2       30.8590  -31.4680   52.4870 C.ar  276  PHE276     -0.0003
    150  CZ        31.7830  -30.9270   53.3920 C.ar  276  PHE276     -0.0000
    151  N         30.8860  -46.6530   58.3670 N.3   283  GLU283     -0.1231
    152  CA        29.7790  -46.3920   59.2710 C.3   283  GLU283      0.1699
    153  C         29.6600  -44.8910   59.6930 C.2   283  GLU283      0.2592
    154  O         30.4340  -44.0240   59.3270 O.2   283  GLU283     -0.2718
    155  CB        29.9160  -47.3210   60.5080 C.3   283  GLU283      0.0402
    156  CG        29.5080  -48.7900   60.3020 C.3   283  GLU283      0.1161
    157  CD        28.9250  -49.4490   61.5710 C.2   283  GLU283      0.3649
    158  OE1       29.4890  -49.3280   62.6890 O.co2 283  GLU283     -0.2457
    159  OE2       27.8820  -50.1340   61.4690 O.co2 283  GLU283     -0.2457
    160  N         28.6530  -44.6390   60.5080 N.am  284  LEU284     -0.1980
    161  CA        28.2370  -43.3180   60.9800 C.3   284  LEU284      0.1596
    162  C         28.9280  -42.8260   62.3260 C.2   284  LEU284      0.2287
    163  O         29.0500  -41.6190   62.6180 O.2   284  LEU284     -0.2864
    164  CB        26.7300  -43.4400   61.2140 C.3   284  LEU284      0.0297
    165  CG        25.6640  -42.4750   60.7300 C.3   284  LEU284      0.0022
    166  CD1       25.8190  -41.9450   59.3140 C.3   284  LEU284      0.0001
    167  CD2       24.3640  -43.2330   60.8650 C.3   284  LEU284      0.0001
    168  N         32.1560  -40.2640   62.6560 N.3   287  GLY287     -0.1210
    169  CA        31.7440  -38.9350   62.2860 C.3   287  GLY287      0.1956
    170  C         30.9000  -38.2260   63.3310 C.2   287  GLY287      0.2611
    171  O         31.1450  -37.0420   63.5990 O.2   287  GLY287     -0.2717
    172  N         29.9560  -38.9270   63.9550 N.am  288  GLN288     -0.1979
    173  CA        29.1700  -38.3470   65.0340 C.3   288  GLN288      0.1601
    174  C         30.0100  -38.0780   66.2330 C.2   288  GLN288      0.2287
    175  O         29.8950  -37.0130   66.8410 O.2   288  GLN288     -0.2864
    176  CB        27.9720  -39.2240   65.4190 C.3   288  GLN288      0.0394
    177  CG        26.8840  -39.2260   64.3560 C.3   288  GLN288      0.0908
    178  CD        26.1690  -37.8620   64.1990 C.2   288  GLN288      0.2608
    179  OE1       25.4020  -37.4440   65.0590 O.2   288  GLN288     -0.2717
    180  NE2       26.4570  -37.1710   63.1270 N.am  288  GLN288     -0.0878
    181  N         32.1680  -34.9760   65.3920 N.3   291  PHE291     -0.1241
    182  CA        31.3670  -33.7550   65.4760 C.3   291  PHE291      0.1605
    183  C         31.0840  -33.3570   66.9140 C.2   291  PHE291      0.2264
    184  O         31.2030  -32.1700   67.2730 O.2   291  PHE291     -0.2867
    185  CB        30.0670  -33.9520   64.7270 C.3   291  PHE291      0.0534
    186  CG        29.2060  -32.7340   64.6590 C.ar  291  PHE291     -0.0203
    187  CD1       29.5840  -31.6340   63.9330 C.ar  291  PHE291     -0.0042
    188  CD2       27.9840  -32.7190   65.2880 C.ar  291  PHE291     -0.0042
    189  CE1       28.7800  -30.4910   63.8940 C.ar  291  PHE291     -0.0003
    190  CE2       27.1500  -31.6080   65.2360 C.ar  291  PHE291     -0.0003
    191  CZ        27.5420  -30.4700   64.5490 C.ar  291  PHE291     -0.0000
    192  N         33.1000  -30.0520   67.7950 N.3   295  VAL295     -0.1245
    193  CA        32.2120  -28.9390   67.5830 C.3   295  VAL295      0.1561
    194  C         31.1470  -28.8210   68.6670 C.2   295  VAL295      0.2260
    195  O         31.0830  -27.8080   69.3870 O.2   295  VAL295     -0.2867
    196  CB        31.4950  -29.0300   66.2190 C.3   295  VAL295      0.0252
    197  CG1       30.5830  -27.8200   65.9970 C.3   295  VAL295      0.0019
    198  CG2       32.4890  -29.1900   65.0720 C.3   295  VAL295      0.0019
@<TRIPOS>BOND
     1   123   122    2
     2   122   121    1
     3    26    25    2
     4   143   142    2
     5   121   124    1
     6   121   120    1
     7   124   125    1
     8   112   111    2
     9    23    24    1
    10    25    24    1
    11   142   141    1
    12    29    28    2
    13   144   141    1
    14   144   145    1
    15   120   111   am
    16   111   110    1
    17    24    27    1
    18   125   126   ar
    19   125   127   ar
    20   147   145   ar
    21   147   149   ar
    22   141   140    1
    23   145   146   ar
    24    28    27    1
    25    28    30   am
    26   126   128   ar
    27   127   129   ar
    28   110   109    1
    29   110   113    1
    30   149   150   ar
    31   146   148   ar
    32   140   134   am
    33    16    15    2
    34   128   130   ar
    35   129   130   ar
    36   150   148   ar
    37   105   104    2
    38   113   114    1
    39   130   131    1
    40     1     2    1
    41   134   135    2
    42   134   133    1
    43    15    14    1
    44    17    14    1
    45    17    18    1
    46   104   103    1
    47   132   133    1
    48    13    14    1
    49    13     3   am
    50    19    18   ar
    51    19    21   ar
    52   114   116   ar
    53   114   115   ar
    54   116   118   ar
    55    18    20   ar
    56   133   136    1
    57    98    97    2
    58     2     3    1
    59     2     5    1
    60     3     4    2
    61    21    22   ar
    62   115   117   ar
    63   118   119   ar
    64     5     6    1
    65   103   102    1
    66   103   106    1
    67   136   137    2
    68    97   102   am
    69    97    96    1
    70    20    22   ar
    71   108   106    1
    72   117   119   ar
    73   106   107    1
    74   137   138    1
    75    96    95    1
    76    96    99    1
    77   139   138    1
    78     6     8   ar
    79     6     7   ar
    80     8    10   ar
    81   101    99    1
    82    99   100    1
    83     7     9   ar
    84   151   152    1
    85    10    11   ar
    86    93    92    2
    87    31    32    1
    88   152   153    1
    89   152   155    1
    90   166   165    1
    91   154   153    2
    92     9    11   ar
    93    11    12    1
    94    79    78    2
    95   153   160   am
    96    92    91    1
    97    35    32    1
    98    35    36    1
    99    33    32    1
   100    33    34    2
   101    88    86   ar
   102    88    89   ar
   103   156   155    1
   104   156   157    1
   105   160   161    1
   106    36    37    1
   107    86    83   ar
   108   165   167    1
   109   165   164    1
   110    78    77    1
   111    78    90   am
   112   161   164    1
   113   161   162    1
   114    89    87   ar
   115    91    90    1
   116    91    94    1
   117    46    44   ar
   118    45    44   ar
   119    77    76    1
   120    77    80    1
   121   159   157   ar
   122   157   158   ar
   123    44    43    1
   124    83    81   ar
   125    83    85   ar
   126   169   168    1
   127   169   170    1
   128    87    85   ar
   129   162   163    2
   130    80    81    1
   131    37    38    1
   132    61    60    2
   133    81    82   ar
   134    85    84   ar
   135   180   178   am
   136    42    41    2
   137    43    40    1
   138   170   171    2
   139   170   172   am
   140    60    62   am
   141    60    59    1
   142   189   187   ar
   143   189   191   ar
   144   187   186   ar
   145   172   173    1
   146    40    41    1
   147    40    39    1
   148    82    84   ar
   149    41    47   am
   150   178   177    1
   151   178   179    2
   152   177   176    1
   153    73    72    2
   154    53    51    1
   155   191   190   ar
   156   186   185    1
   157   186   188   ar
   158   185   182    1
   159   173   176    1
   160   173   174    1
   161    59    56    1
   162   198   196    1
   163    47    48    1
   164   190   188   ar
   165    72    71    1
   166   181   182    1
   167    48    51    1
   168    48    49    1
   169   182   183    1
   170    51    52    1
   171   197   196    1
   172   196   193    1
   173   174   175    2
   174    56    55    1
   175    56    57    1
   176    71    70    1
   177    71    74    1
   178    49    50    2
   179    52    54    1
   180   183   184    2
   181    68    67    1
   182    57    63   am
   183    57    58    2
   184    75    74    1
   185   193   192    1
   186   193   194    1
   187    63    64    1
   188   194   195    2
   189    67    64    1
   190    67    69    1
   191    64    65    1
   192    65    66    2
