@<TRIPOS>MOLECULE
tmp/6frfD00.pdb
 154 151 0 0 0
SMALL
GASTEIGER

@<TRIPOS>ATOM
      1  N        -25.4590   10.0720   15.7760 N.3    23  PRO23      -0.2116
      2  CA       -24.3820    9.3150   15.1300 C.3    23  PRO23       0.1372
      3  C        -24.8200    8.2980   14.0780 C.2    23  PRO23       0.2244
      4  O        -24.0000    7.4500   13.7060 O.2    23  PRO23      -0.2868
      5  CB       -23.7540    8.5780   16.3050 C.3    23  PRO23       0.0268
      6  CG       -24.9520    8.2310   17.1490 C.3    23  PRO23       0.0207
      7  CD       -25.8970    9.4180   17.0230 C.3    23  PRO23       0.0892
      8  N        -22.7220    7.8490   10.6800 N.3    26  LEU26      -0.1231
      9  CA       -21.2720    7.6480   10.7370 C.3    26  LEU26       0.1678
     10  C        -20.7950    6.3800   10.0390 C.2    26  LEU26       0.2434
     11  O        -19.8080    6.4590    9.2900 O.2    26  LEU26      -0.2733
     12  CB       -20.7960    7.6750   12.1970 C.3    26  LEU26       0.0284
     13  CG       -20.8210    9.0290   12.9170 C.3    26  LEU26       0.0019
     14  CD1      -20.2430    8.9080   14.3150 C.3    26  LEU26       0.0001
     15  CD2      -20.0580   10.0660   12.1210 C.3    26  LEU26       0.0001
     16  N        -21.4030    5.2010   10.2340 N.am   27  PRO27      -0.2718
     17  CA       -20.9400    4.0110    9.4970 C.3    27  PRO27       0.1535
     18  C        -21.1450    4.1080    7.9940 C.2    27  PRO27       0.2598
     19  O        -20.6560    3.2340    7.2660 O.2    27  PRO27      -0.2715
     20  CB       -21.7910    2.8750   10.0820 C.3    27  PRO27       0.0310
     21  CG       -22.3370    3.4130   11.3630 C.3    27  PRO27       0.0237
     22  CD       -22.5130    4.8690   11.1430 C.3    27  PRO27       0.0939
     23  N        -21.8610    5.1230    7.5100 N.am   28  PHE28      -0.1974
     24  CA       -22.2260    5.2300    6.1080 C.3    28  PHE28       0.1639
     25  C        -21.5280    6.3720    5.3850 C.2    28  PHE28       0.2290
     26  O        -21.7570    6.5620    4.1820 O.2    28  PHE28      -0.2864
     27  CB       -23.7440    5.3950    5.9840 C.3    28  PHE28       0.0560
     28  CG       -24.5240    4.2970    6.6510 C.ar   28  PHE28      -0.0200
     29  CD1      -24.8810    3.1580    5.9460 C.ar   28  PHE28      -0.0042
     30  CD2      -24.8900    4.3980    7.9870 C.ar   28  PHE28      -0.0042
     31  CE1      -25.6080    2.1390    6.5620 C.ar   28  PHE28      -0.0003
     32  CE2      -25.6220    3.3910    8.6120 C.ar   28  PHE28      -0.0003
     33  CZ       -25.9700    2.2570    7.9060 C.ar   28  PHE28      -0.0000
     34  N        -18.3810    6.7310    4.6500 N.3    30  GLN30      -0.1231
     35  CA       -17.2530    6.3000    3.8410 C.3    30  GLN30       0.1683
     36  C        -17.5080    4.8630    3.4190 C.2    30  GLN30       0.2434
     37  O        -18.2840    4.1490    4.0680 O.2    30  GLN30      -0.2733
     38  CB       -15.9200    6.4040    4.6060 C.3    30  GLN30       0.0380
     39  CG       -15.8210    5.5260    5.8550 C.3    30  GLN30       0.0905
     40  CD       -16.7460    6.0030    6.9690 C.2    30  GLN30       0.2608
     41  OE1      -16.8040    7.1950    7.2640 O.2    30  GLN30      -0.2717
     42  NE2      -17.5020    5.0800    7.5590 N.am   30  GLN30      -0.0878
     43  N        -16.8890    4.4160    2.3250 N.am   31  PRO31      -0.2718
     44  CA       -17.0810    3.0270    1.8950 C.3    31  PRO31       0.1535
     45  C        -16.6460    2.0480    2.9760 C.2    31  PRO31       0.2598
     46  O        -15.7080    2.2950    3.7430 O.2    31  PRO31      -0.2715
     47  CB       -16.1940    2.9110    0.6460 C.3    31  PRO31       0.0310
     48  CG       -16.0130    4.3190    0.1560 C.3    31  PRO31       0.0237
     49  CD       -16.0100    5.1660    1.4060 C.3    31  PRO31       0.0939
     50  N        -17.3500    0.9220    3.0360 N.am   32  VAL32      -0.1964
     51  CA       -16.9930   -0.0990    4.0060 C.3    32  VAL32       0.1727
     52  C        -15.5960   -0.6210    3.6940 C.2    32  VAL32       0.2616
     53  O        -15.3230   -1.0780    2.5740 O.2    32  VAL32      -0.2715
     54  CB       -18.0210   -1.2260    4.0030 C.3    32  VAL32       0.0290
     55  CG1      -17.4650   -2.4130    4.7460 C.3    32  VAL32       0.0023
     56  CG2      -19.3330   -0.7620    4.6290 C.3    32  VAL32       0.0023
     57  N        -14.6970   -0.5610    4.6980 N.am   33  ASP33      -0.1971
     58  CA       -13.3710   -1.1580    4.5970 C.3    33  ASP33       0.1709
     59  C        -13.3500   -2.4570    5.3890 C.2    33  ASP33       0.2293
     60  O        -13.2040   -2.4270    6.6210 O.2    33  ASP33      -0.2864
     61  CB       -12.3020   -0.1970    5.1110 C.3    33  ASP33       0.1436
     62  CG       -10.8890   -0.7370    4.9410 C.2    33  ASP33       0.3671
     63  OD1      -10.6510   -1.9580    5.0740 O.co2  33  ASP33      -0.2456
     64  OD2      -10.0030    0.0830    4.6700 O.co2  33  ASP33      -0.2456
     65  N        -10.2450   -2.7260    7.8900 N.3    36  LEU36      -0.1231
     66  CA       -10.4360   -1.8340    9.0320 C.3    36  LEU36       0.1693
     67  C        -11.4460   -2.3950   10.0290 C.2    36  LEU36       0.2591
     68  O        -11.1810   -2.4590   11.2370 O.2    36  LEU36      -0.2718
     69  CB       -10.8880   -0.4650    8.5320 C.3    36  LEU36       0.0284
     70  CG       -10.9560    0.7250    9.4890 C.3    36  LEU36       0.0019
     71  CD1      -10.5850    1.9810    8.7560 C.3    36  LEU36       0.0001
     72  CD2      -12.3500    0.8760   10.1090 C.3    36  LEU36       0.0001
     73  N        -12.6040   -2.8150    9.5370 N.am   37  LEU37      -0.1980
     74  CA       -13.7060   -3.2430   10.3860 C.3    37  LEU37       0.1596
     75  C        -13.5990   -4.6950   10.8260 C.2    37  LEU37       0.2287
     76  O        -14.4300   -5.1460   11.6200 O.2    37  LEU37      -0.2864
     77  CB       -15.0380   -3.0010    9.6520 C.3    37  LEU37       0.0297
     78  CG       -15.3320   -1.5150    9.4440 C.3    37  LEU37       0.0022
     79  CD1      -16.5750   -1.2860    8.5810 C.3    37  LEU37       0.0001
     80  CD2      -15.4730   -0.7820   10.7890 C.3    37  LEU37       0.0001
     81  N        -14.0540   -7.5370    9.0250 N.3    39  ILE39      -0.1245
     82  CA       -15.1560   -8.3370    8.4910 C.3    39  ILE39       0.1561
     83  C        -14.7880   -8.8210    7.0900 C.2    39  ILE39       0.2260
     84  O        -15.3890   -8.3920    6.0980 O.2    39  ILE39      -0.2867
     85  CB       -16.4600   -7.5270    8.5100 C.3    39  ILE39       0.0252
     86  CG1      -16.2120   -6.1180    7.9530 C.3    39  ILE39       0.0019
     87  CG2      -17.0200   -7.4680    9.9450 C.3    39  ILE39       0.0019
     88  CD1      -17.4990   -5.3090    7.7180 C.3    39  ILE39       0.0001
     89  N        -17.0580   -9.4560    3.9610 N.3    42  TYR42      -0.1241
     90  CA       -18.0070   -8.4250    3.5430 C.3    42  TYR42       0.1605
     91  C        -18.3030   -8.4940    2.0450 C.2    42  TYR42       0.2264
     92  O        -19.4650   -8.6170    1.6400 O.2    42  TYR42      -0.2867
     93  CB       -17.5040   -7.0300    3.9160 C.3    42  TYR42       0.0534
     94  CG       -18.5270   -5.9610    3.5670 C.ar   42  TYR42      -0.0201
     95  CD1      -19.6700   -5.7820    4.3470 C.ar   42  TYR42      -0.0009
     96  CD2      -18.3680   -5.1520    2.4400 C.ar   42  TYR42      -0.0009
     97  CE1      -20.6120   -4.8020    4.0270 C.ar   42  TYR42       0.0417
     98  CE2      -19.3040   -4.1730    2.1080 C.ar   42  TYR42       0.0417
     99  CZ       -20.4270   -4.0040    2.8980 C.ar   42  TYR42       0.1957
    100  OH       -21.3500   -3.0320    2.5730 O.3    42  TYR42      -0.2866
    101  N        -26.5520   -2.7580    3.9450 N.3    81  ALA81      -0.1245
    102  CA       -26.4180   -2.7610    5.3960 C.3    81  ALA81       0.1562
    103  C        -27.4350   -3.6940    6.0470 C.2    81  ALA81       0.2260
    104  O        -27.0860   -4.4780    6.9340 O.2    81  ALA81      -0.2867
    105  CB       -26.5580   -1.3360    5.9290 C.3    81  ALA81       0.0290
    106  N        -26.1750   -7.2590    5.3030 N.3    84  TYR84      -0.1227
    107  CA       -24.9510   -7.7560    5.9190 C.3    84  TYR84       0.1736
    108  C        -25.0250   -7.8180    7.4410 C.2    84  TYR84       0.2595
    109  O        -24.5260   -8.7720    8.0520 O.2    84  TYR84      -0.2718
    110  CB       -23.7410   -6.8970    5.5330 C.3    84  TYR84       0.0548
    111  CG       -22.4900   -7.4710    6.1510 C.ar   84  TYR84      -0.0200
    112  CD1      -21.8910   -8.5810    5.5870 C.ar   84  TYR84      -0.0009
    113  CD2      -21.9400   -6.9470    7.3350 C.ar   84  TYR84      -0.0009
    114  CE1      -20.7710   -9.1490    6.1360 C.ar   84  TYR84       0.0417
    115  CE2      -20.8110   -7.5260    7.9050 C.ar   84  TYR84       0.0417
    116  CZ       -20.2330   -8.6320    7.2950 C.ar   84  TYR84       0.1957
    117  OH       -19.1100   -9.2440    7.8000 O.3    84  TYR84      -0.2866
    118  N        -25.5890   -6.8030    8.0680 N.am   85  ASN85      -0.1974
    119  CA       -25.5330   -6.6990    9.5150 C.3    85  ASN85       0.1688
    120  C        -26.6910   -7.4440   10.1660 C.2    85  ASN85       0.2292
    121  O        -27.7840   -7.5760    9.5960 O.2    85  ASN85      -0.2864
    122  CB       -25.5280   -5.2320    9.9240 C.3    85  ASN85       0.1181
    123  CG       -24.2950   -4.4930    9.4000 C.2    85  ASN85       0.2629
    124  OD1      -23.2100   -4.5750    9.9920 O.2    85  ASN85      -0.2716
    125  ND2      -24.4560   -3.7760    8.2870 N.am   85  ASN85      -0.0877
    126  N        -26.0360   -2.4890   16.1450 N.3    90  ARG90      -0.1231
    127  CA       -26.1240   -1.0280   16.1030 C.3    90  ARG90       0.1694
    128  C        -26.2010   -0.4940   14.6710 C.2    90  ARG90       0.2591
    129  O        -26.9600    0.4420   14.3960 O.2    90  ARG90      -0.2718
    130  CB       -24.9200   -0.4140   16.8320 C.3    90  ARG90       0.0321
    131  CG       -24.4720    0.9330   16.2760 C.3    90  ARG90       0.0489
    132  CD       -23.4030    1.5900   17.1400 C.3    90  ARG90       0.2205
    133  NE       -23.9890    2.0760   18.3740 N.pl3  90  ARG90      -0.0865
    134  CZ       -23.3780    2.8900   19.2280 C.cat  90  ARG90       0.5346
    135  NH1      -22.1400    3.3130   18.9800 N.pl3  90  ARG90       0.1354
    136  NH2      -24.0130    3.2900   20.3300 N.pl3  90  ARG90       0.1354
    137  N        -25.3990   -1.0540   13.7510 N.am   91  VAL91      -0.1980
    138  CA       -25.4020   -0.5590   12.3730 C.3    91  VAL91       0.1595
    139  C        -26.7710   -0.7700   11.7430 C.2    91  VAL91       0.2287
    140  O        -27.2610    0.0650   10.9700 O.2    91  VAL91      -0.2864
    141  CB       -24.2910   -1.2340   11.5380 C.3    91  VAL91       0.0276
    142  CG1      -24.3680   -0.7730   10.0880 C.3    91  VAL91       0.0022
    143  CG2      -22.9100   -0.8990   12.0930 C.3    91  VAL91       0.0022
    144  N        -29.0330    1.8720   13.0930 N.3    94  PHE94      -0.1241
    145  CA       -28.7000    3.1250   12.4250 C.3    94  PHE94       0.1605
    146  C        -29.2440    3.1380   11.0040 C.2    94  PHE94       0.2264
    147  O        -29.7670    4.1590   10.5410 O.2    94  PHE94      -0.2867
    148  CB       -27.1820    3.3550   12.4260 C.3    94  PHE94       0.0534
    149  CG       -26.6140    3.7530   13.7750 C.ar   94  PHE94      -0.0203
    150  CD1      -27.4070    3.7540   14.9180 C.ar   94  PHE94      -0.0042
    151  CD2      -25.2850    4.1460   13.8910 C.ar   94  PHE94      -0.0042
    152  CE1      -26.8810    4.1280   16.1520 C.ar   94  PHE94      -0.0003
    153  CE2      -24.7530    4.5180   15.1220 C.ar   94  PHE94      -0.0003
    154  CZ       -25.5530    4.5020   16.2540 C.ar   94  PHE94      -0.0000
@<TRIPOS>BOND
     1    48    47    1
     2    48    49    1
     3    47    44    1
     4    49    43    1
     5    92    91    2
     6    44    43    1
     7    44    45    1
     8    91    90    1
     9    98    96   ar
    10    98    99   ar
    11    43    36   am
    12    96    94   ar
    13   100    99    1
    14    53    52    2
    15    99    97   ar
    16    45    50   am
    17    45    46    2
    18    50    51    1
    19    36    35    1
    20    36    37    2
    21    90    93    1
    22    90    89    1
    23    94    93    1
    24    94    95   ar
    25    52    51    1
    26    52    57   am
    27    35    38    1
    28    35    34    1
    29   101   102    1
    30    54    51    1
    31    54    56    1
    32    54    55    1
    33    97    95   ar
    34    26    25    2
    35    58    57    1
    36    58    61    1
    37    58    59    1
    38    38    39    1
    39    64    62   ar
    40    62    63   ar
    41    62    61    1
    42   106   107    1
    43    25    24    1
    44    59    60    2
    45   102   105    1
    46   102   103    1
    47   110   107    1
    48   110   111    1
    49   112   114   ar
    50   112   111   ar
    51    39    40    1
    52   107   108    1
    53    29    31   ar
    54    29    28   ar
    55    27    24    1
    56    27    28    1
    57   103   104    2
    58    84    83    2
    59    24    23    1
    60   114   116   ar
    61   111   113   ar
    62    31    33   ar
    63    28    30   ar
    64    40    41    2
    65    40    42   am
    66    83    82    1
    67    19    18    2
    68   116   117    1
    69   116   115   ar
    70   113   115   ar
    71   108   109    2
    72   108   118   am
    73    23    18   am
    74    88    86    1
    75    65    66    1
    76    33    32   ar
    77    86    85    1
    78    30    32   ar
    79    18    17    1
    80   118   119    1
    81   125   123   am
    82    82    85    1
    83    82    81    1
    84    85    87    1
    85    69    66    1
    86    69    70    1
    87    79    78    1
    88    71    70    1
    89    66    67    1
    90    11    10    2
    91   123   122    1
    92   123   124    2
    93    78    77    1
    94    78    80    1
    95    70    72    1
    96    17    20    1
    97    17    16    1
    98   119   122    1
    99   119   120    1
   100    73    67   am
   101    73    74    1
   102   121   120    2
   103    77    74    1
   104    67    68    2
   105    10    16   am
   106    10     9    1
   107    20    21    1
   108   142   141    1
   109    16    22    1
   110    74    75    1
   111   147   146    2
   112     8     9    1
   113     9    12    1
   114    75    76    2
   115   140   139    2
   116   146   145    1
   117    22    21    1
   118   141   143    1
   119   141   138    1
   120   139   138    1
   121    15    13    1
   122    12    13    1
   123   138   137    1
   124   145   148    1
   125   145   144    1
   126   148   149    1
   127    13    14    1
   128     4     3    2
   129   137   128   am
   130   149   151   ar
   131   149   150   ar
   132   151   153   ar
   133     3     2    1
   134   129   128    2
   135   128   127    1
   136   150   152   ar
   137   153   154   ar
   138     2     1    1
   139     2     5    1
   140     1     7    1
   141   127   126    1
   142   127   130    1
   143   152   154   ar
   144   131   130    1
   145   131   132    1
   146     5     6    1
   147     7     6    1
   148   132   133    1
   149   133   134    2
   150   135   134    1
   151   134   136    1
