@<TRIPOS>MOLECULE
tmp/6frjA00.pdb
 126 127 0 0 0
SMALL
GASTEIGER

@<TRIPOS>ATOM
      1  N         25.3770   13.5330   13.6180 N.3    31  ASN31      -0.1225
      2  CA        25.1250   13.6980   12.1830 C.3    31  ASN31       0.1785
      3  C         23.8140   13.0870   11.6760 C.2    31  ASN31       0.2597
      4  O         23.4620   13.2890   10.5140 O.2    31  ASN31      -0.2718
      5  CB        26.2930   13.1110   11.3720 C.3    31  ASN31       0.1169
      6  CG        27.5510   13.9570   11.4540 C.2    31  ASN31       0.2627
      7  OD1       27.5450   15.0670   11.9850 O.2    31  ASN31      -0.2716
      8  ND2       28.6400   13.4330   10.9040 N.am   31  ASN31      -0.0877
      9  N         23.0910   12.3630   12.5340 N.am   32  TYR32      -0.1962
     10  CA        21.8710   11.6610   12.1180 C.3    32  TYR32       0.1771
     11  C         20.6450   12.0870   12.9100 C.2    32  TYR32       0.2619
     12  O         20.7340   12.3870   14.1070 O.2    32  TYR32      -0.2715
     13  CB        22.0680   10.1560   12.2610 C.3    32  TYR32       0.0574
     14  CG        23.1190    9.6180   11.3210 C.ar   32  TYR32      -0.0198
     15  CD1       22.8120    9.3290    9.9920 C.ar   32  TYR32      -0.0009
     16  CD2       24.4260    9.4290   11.7510 C.ar   32  TYR32      -0.0009
     17  CE1       23.7770    8.8380    9.1240 C.ar   32  TYR32       0.0417
     18  CE2       25.3990    8.9450   10.8890 C.ar   32  TYR32       0.0417
     19  CZ        25.0630    8.6520    9.5820 C.ar   32  TYR32       0.1957
     20  OH        26.0160    8.1710    8.7240 O.3    32  TYR32      -0.2866
     21  N         19.4950   12.0850   12.2360 N.am   33  TRP33      -0.1974
     22  CA        18.2160   12.2650   12.9110 C.3    33  TRP33       0.1640
     23  C         17.9890   11.0250   13.7620 C.2    33  TRP33       0.2290
     24  O         18.4950    9.9360   13.4420 O.2    33  TRP33      -0.2864
     25  CB        17.0420   12.3810   11.9380 C.3    33  TRP33       0.0576
     26  CG        17.1180   13.4570   10.8860 C.ar   33  TRP33       0.0006
     27  CD1       18.1710   14.2830   10.5920 C.ar   33  TRP33       0.0946
     28  CD2       16.0990   13.7590    9.9390 C.ar   33  TRP33       0.0152
     29  NE1       17.8530   15.0940    9.5320 N.ar   33  TRP33      -0.2442
     30  CE2       16.5900   14.7880    9.1050 C.ar   33  TRP33       0.0810
     31  CE3       14.8070   13.2630    9.7170 C.ar   33  TRP33       0.0012
     32  CZ2       15.8300   15.3400    8.0710 C.ar   33  TRP33       0.0191
     33  CZ3       14.0520   13.8090    8.6920 C.ar   33  TRP33       0.0001
     34  CH2       14.5730   14.8320    7.8710 C.ar   33  TRP33       0.0015
     35  N         15.7390   16.1950   14.5110 N.3    52  ARG52      -0.1231
     36  CA        16.6870   16.4470   13.4320 C.3    52  ARG52       0.1694
     37  C         17.9920   16.9530   14.0720 C.2    52  ARG52       0.2591
     38  O         18.2380   16.7080   15.2580 O.2    52  ARG52      -0.2718
     39  CB        16.0810   17.4270   12.4120 C.3    52  ARG52       0.0321
     40  CG        14.5720   17.2690   12.1950 C.3    52  ARG52       0.0489
     41  CD        14.1430   16.5680   10.9340 C.3    52  ARG52       0.2205
     42  NE        13.9270   17.4940    9.8270 N.pl3  52  ARG52      -0.0865
     43  CZ        12.9640   17.4160    8.8960 C.cat  52  ARG52       0.5346
     44  NH1       12.0400   16.4530    8.8900 N.pl3  52  ARG52       0.1354
     45  NH2       12.9230   18.3370    7.9400 N.pl3  52  ARG52       0.1354
     46  N         18.8280   17.6440   13.3020 N.am   53  LEU53      -0.1980
     47  CA        20.1780   17.9810   13.7460 C.3    53  LEU53       0.1596
     48  C         20.2320   19.3500   14.4070 C.2    53  LEU53       0.2287
     49  O         19.2760   20.1270   14.3390 O.2    53  LEU53      -0.2864
     50  CB        21.1380   17.9670   12.5560 C.3    53  LEU53       0.0297
     51  CG        21.0730   16.7550   11.6210 C.3    53  LEU53       0.0022
     52  CD1       22.0850   16.8960   10.4880 C.3    53  LEU53       0.0001
     53  CD2       21.2940   15.4570   12.3800 C.3    53  LEU53       0.0001
     54  N         19.3500    6.1720   11.1720 N.3   101  VAL101     -0.1231
     55  CA        20.3940    5.9300   10.1480 C.3   101  VAL101      0.1692
     56  C         19.8470    5.2190    8.9070 C.2   101  VAL101      0.2593
     57  O         19.5610    4.0220    8.9340 O.2   101  VAL101     -0.2718
     58  CB        21.6560    5.2040   10.6790 C.3   101  VAL101      0.0266
     59  CG1       22.7050    5.0690    9.5710 C.3   101  VAL101      0.0020
     60  CG2       22.2350    5.9450   11.8860 C.3   101  VAL101      0.0020
     61  N         19.6990    5.9820    7.8350 N.am  102  GLY102     -0.1942
     62  CA        19.4030    5.4520    6.5020 C.3   102  GLY102      0.2014
     63  C         18.2930    4.4270    6.2780 C.2   102  GLY102      0.2638
     64  O         18.5450    3.4240    5.6120 O.2   102  GLY102     -0.2714
     65  N         17.0680    4.6100    6.7760 N.am  103  GLN103     -0.1977
     66  CA        16.6440    5.5770    7.7870 C.3   103  GLN103      0.1601
     67  C         16.3650    4.8770    9.1300 C.2   103  GLN103      0.2287
     68  O         16.2290    5.5540   10.1400 O.2   103  GLN103     -0.2864
     69  CB        15.3760    6.3020    7.3130 C.3   103  GLN103      0.0394
     70  CG        15.6000    7.3540    6.2280 C.3   103  GLN103      0.0908
     71  CD        16.0590    6.8100    4.8800 C.2   103  GLN103      0.2608
     72  OE1       15.4550    5.8950    4.3100 O.2   103  GLN103     -0.2717
     73  NE2       17.1400    7.3880    4.3570 N.am  103  GLN103     -0.0878
     74  N         10.7300    6.9900    0.0940 N.3   150  TYR150     -0.1241
     75  CA        11.9370    6.5280    0.7940 C.3   150  TYR150      0.1605
     76  C         11.7240    5.2230    1.5660 C.2   150  TYR150      0.2264
     77  O         12.0330    5.1240    2.7580 O.2   150  TYR150     -0.2867
     78  CB        12.4550    7.6370    1.7240 C.3   150  TYR150      0.0534
     79  CG        12.7740    8.8990    0.9620 C.ar  150  TYR150     -0.0201
     80  CD1       11.7970    9.8630    0.7430 C.ar  150  TYR150     -0.0009
     81  CD2       14.0430    9.1110    0.4230 C.ar  150  TYR150     -0.0009
     82  CE1       12.0760   11.0150    0.0230 C.ar  150  TYR150      0.0417
     83  CE2       14.3310   10.2610   -0.3010 C.ar  150  TYR150      0.0417
     84  CZ        13.3420   11.2070   -0.4920 C.ar  150  TYR150      0.1957
     85  OH        13.6090   12.3530   -1.2050 O.3   150  TYR150     -0.2866
     86  N         24.5400   -0.9740    6.1420 N.3   174  PRO174     -0.2116
     87  CA        25.8660   -1.6040    6.2430 C.3   174  PRO174      0.1372
     88  C         25.8290   -2.9590    6.9520 C.2   174  PRO174      0.2244
     89  O         25.1140   -3.1180    7.9410 O.2   174  PRO174     -0.2868
     90  CB        26.6840   -0.5840    7.0500 C.3   174  PRO174      0.0268
     91  CG        25.6670    0.2090    7.7980 C.3   174  PRO174      0.0207
     92  CD        24.4870    0.3020    6.8790 C.3   174  PRO174      0.0892
     93  N          7.4990    7.1450    3.8480 N.3   209  TRP209     -0.1241
     94  CA         7.6280    8.5360    4.2830 C.3   209  TRP209      0.1605
     95  C          6.6310    9.3870    3.5150 C.2   209  TRP209      0.2264
     96  O          6.5640    9.3000    2.2910 O.2   209  TRP209     -0.2867
     97  CB         9.0550    9.0150    4.0240 C.3   209  TRP209      0.0550
     98  CG         9.3110   10.4850    4.2310 C.ar  209  TRP209      0.0003
     99  CD1        9.3900   11.4500    3.2620 C.ar  209  TRP209      0.0946
    100  CD2        9.5630   11.1440    5.4740 C.ar  209  TRP209      0.0152
    101  NE1        9.6780   12.6690    3.8310 N.ar  209  TRP209     -0.2442
    102  CE2        9.7860   12.5110    5.1870 C.ar  209  TRP209      0.0810
    103  CE3        9.6250   10.7150    6.8010 C.ar  209  TRP209      0.0012
    104  CZ2       10.0600   13.4530    6.1880 C.ar  209  TRP209      0.0191
    105  CZ3        9.8980   11.6500    7.7990 C.ar  209  TRP209      0.0001
    106  CH2       10.1130   13.0050    7.4840 C.ar  209  TRP209      0.0015
    107  N          6.0970   13.1830    3.3350 N.3   211  SER211     -0.1217
    108  CA         6.4690   14.6030    3.5170 C.3   211  SER211      0.1889
    109  C          7.1330   14.9610    4.8570 C.2   211  SER211      0.2288
    110  O          8.1840   15.6070    4.8580 O.2   211  SER211     -0.2866
    111  CB         5.2790   15.5400    3.2520 C.3   211  SER211      0.2089
    112  OG         4.7300   15.3140    1.9640 O.3   211  SER211     -0.2183
    113  N          6.3810    9.1400    9.1160 N.3   214  TRP214     -0.1241
    114  CA         6.4390    7.7610    8.6280 C.3   214  TRP214      0.1605
    115  C          5.1790    6.9980    8.9820 C.2   214  TRP214      0.2264
    116  O          4.6070    7.2120   10.0520 O.2   214  TRP214     -0.2867
    117  CB         7.6030    7.0080    9.2660 C.3   214  TRP214      0.0550
    118  CG         8.9520    7.5020    8.9130 C.ar  214  TRP214      0.0003
    119  CD1        9.6920    8.4200    9.5940 C.ar  214  TRP214      0.0946
    120  CD2        9.7380    7.1100    7.7800 C.ar  214  TRP214      0.0152
    121  NE1       10.8950    8.6170    8.9680 N.ar  214  TRP214     -0.2442
    122  CE2       10.9540    7.8220    7.8510 C.ar  214  TRP214      0.0810
    123  CE3        9.5440    6.2060    6.7200 C.ar  214  TRP214      0.0012
    124  CZ2       11.9670    7.6800    6.8960 C.ar  214  TRP214      0.0191
    125  CZ3       10.5560    6.0670    5.7690 C.ar  214  TRP214      0.0001
    126  CH2       11.7490    6.8050    5.8620 C.ar  214  TRP214      0.0015
@<TRIPOS>BOND
     1    85    84    1
     2    84    83   ar
     3    84    82   ar
     4    83    81   ar
     5    82    80   ar
     6    74    75    1
     7    81    79   ar
     8    80    79   ar
     9    75    76    1
    10    75    78    1
    11    79    78    1
    12    76    77    2
    13   112   111    1
    14    96    95    2
    15   111   108    1
    16    99   101   ar
    17    99    98   ar
    18   107   108    1
    19    95    94    1
    20   108   109    1
    21   101   102   ar
    22    93    94    1
    23    97    98    1
    24    97    94    1
    25    98   100   ar
    26    72    71    2
    27    73    71   am
    28   109   110    2
    29    71    70    1
    30   102   100   ar
    31   102   104   ar
    32   100   103   ar
    33    64    63    2
    34   125   126   ar
    35   125   123   ar
    36   126   124   ar
    37    86    87    1
    38    86    92    1
    39   104   106   ar
    40    70    69    1
    41    87    88    1
    42    87    90    1
    43    63    62    1
    44    63    65   am
    45    62    61    1
    46   123   120   ar
    47    65    66    1
    48   103   105   ar
    49    92    91    1
    50   124   122   ar
    51    88    89    2
    52    90    91    1
    53    69    66    1
    54   106   105   ar
    55   120   122   ar
    56   120   118   ar
    57    66    67    1
    58    61    56   am
    59   122   121   ar
    60    34    32   ar
    61    34    33   ar
    62    45    43    1
    63    32    30   ar
    64   114   115    1
    65   114   113    1
    66   114   117    1
    67    33    31   ar
    68    20    19    1
    69    44    43    1
    70    43    42    2
    71    56    57    2
    72    56    55    1
    73   118   117    1
    74   118   119   ar
    75   121   119   ar
    76   115   116    2
    77    30    29   ar
    78    30    28   ar
    79    17    19   ar
    80    17    15   ar
    81    67    68    2
    82    29    27   ar
    83    59    58    1
    84    19    18   ar
    85    31    28   ar
    86    42    41    1
    87    28    26   ar
    88    15    14   ar
    89    55    58    1
    90    55    54    1
    91    52    51    1
    92     4     3    2
    93    27    26   ar
    94    58    60    1
    95    26    25    1
    96    18    16   ar
    97     8     6   am
    98    41    40    1
    99    14    16   ar
   100    14    13    1
   101     5     6    1
   102     5     2    1
   103     6     7    2
   104    51    53    1
   105    51    50    1
   106     3     2    1
   107     3     9   am
   108    25    22    1
   109    10    13    1
   110    10     9    1
   111    10    11    1
   112     2     1    1
   113    40    39    1
   114    21    11   am
   115    21    22    1
   116    39    36    1
   117    50    47    1
   118    11    12    2
   119    22    23    1
   120    46    47    1
   121    46    37   am
   122    36    37    1
   123    36    35    1
   124    24    23    2
   125    47    48    1
   126    37    38    2
   127    49    48    2
