@<TRIPOS>MOLECULE
tmp/6frlB01.pdb
 87 86 0 0 0
SMALL
GASTEIGER

@<TRIPOS>ATOM
      1  N         54.9450  106.9230   39.6600 N.3    24  VAL24      -0.1245
      2  CA        53.6950  107.2700   40.3580 C.3    24  VAL24       0.1561
      3  C         52.5790  106.2820   40.0050 C.2    24  VAL24       0.2260
      4  O         51.9740  105.7070   40.9000 O.2    24  VAL24      -0.2867
      5  CB        53.3000  108.7660   40.1280 C.3    24  VAL24       0.0252
      6  CG1       51.8190  109.0360   40.3470 C.3    24  VAL24       0.0019
      7  CG2       54.1160  109.6740   41.0570 C.3    24  VAL24       0.0019
      8  N         53.4590  102.4500   41.2410 N.3    27  PHE27      -0.1227
      9  CA        53.4470  102.3050   42.6890 C.3    27  PHE27       0.1736
     10  C         52.3710  103.2250   43.3250 C.2    27  PHE27       0.2595
     11  O         52.5900  103.7430   44.4400 O.2    27  PHE27      -0.2718
     12  CB        54.8290  102.7190   43.2560 C.3    27  PHE27       0.0547
     13  CG        55.9610  101.7910   42.9180 C.ar   27  PHE27      -0.0202
     14  CD1       56.0630  100.5540   43.5370 C.ar   27  PHE27      -0.0042
     15  CD2       56.9740  102.1760   42.0440 C.ar   27  PHE27      -0.0042
     16  CE1       57.1400   99.7020   43.2660 C.ar   27  PHE27      -0.0003
     17  CE2       58.0390  101.3120   41.7500 C.ar   27  PHE27      -0.0003
     18  CZ        58.1140  100.0690   42.3460 C.ar   27  PHE27      -0.0000
     19  N         51.2190  103.4100   42.6560 N.am   28  ARG28      -0.1966
     20  CA        50.2150  104.4370   43.0480 C.3    28  ARG28       0.1729
     21  C         49.7430  104.3660   44.5110 C.2    28  ARG28       0.2617
     22  O         49.7980  105.3700   45.2240 O.2    28  ARG28      -0.2715
     23  CB        48.9920  104.4390   42.1010 C.3    28  ARG28       0.0348
     24  CG        48.1310  105.7190   42.2030 C.3    28  ARG28       0.0492
     25  CD        47.1170  105.7930   41.0550 C.3    28  ARG28       0.2205
     26  NE        47.6170  106.3500   39.7970 N.pl3  28  ARG28      -0.0865
     27  CZ        47.8480  107.6420   39.5730 C.cat  28  ARG28       0.5346
     28  NH1       47.6600  108.5530   40.5130 N.pl3  28  ARG28       0.1354
     29  NH2       48.2890  108.0530   38.3980 N.pl3  28  ARG28       0.1354
     30  N         49.3300  103.1780   44.9520 N.am   29  THR29      -0.1937
     31  CA        48.8160  102.9620   46.3210 C.3    29  THR29       0.2028
     32  C         49.8080  102.2590   47.2670 C.2    29  THR29       0.2642
     33  O         49.3910  101.6690   48.2680 O.2    29  THR29      -0.2714
     34  CB        47.5270  102.1040   46.2790 C.3    29  THR29       0.1808
     35  OG1       47.8580  100.7680   45.8660 O.3    29  THR29      -0.2208
     36  CG2       46.5020  102.6990   45.2900 C.3    29  THR29       0.0379
     37  N         51.1040  102.3120   46.9680 N.am   30  ALA30      -0.1963
     38  CA        52.1370  101.7110   47.8130 C.3    30  ALA30       0.1713
     39  C         52.7660  102.7990   48.6470 C.2    30  ALA30       0.2458
     40  O         52.7060  103.9680   48.2670 O.2    30  ALA30      -0.2730
     41  CB        53.1960  101.0300   46.9620 C.3    30  ALA30       0.0333
     42  N         53.3890  102.4340   49.7850 N.am   31  PRO31      -0.2716
     43  CA        54.0050  103.4630   50.6060 C.3    31  PRO31       0.1536
     44  C         55.3760  103.7390   50.0440 C.2    31  PRO31       0.2598
     45  O         56.3480  103.1690   50.5110 O.2    31  PRO31      -0.2715
     46  CB        54.0740  102.8000   51.9870 C.3    31  PRO31       0.0310
     47  CG        54.2210  101.3510   51.7030 C.3    31  PRO31       0.0237
     48  CD        53.6280  101.0880   50.3500 C.3    31  PRO31       0.0939
     49  N         55.4290  104.5430   48.9910 N.am   32  LEU32      -0.1964
     50  CA        56.6750  104.8690   48.3210 C.3    32  LEU32       0.1728
     51  C         56.6610  106.3650   48.1230 C.2    32  LEU32       0.2616
     52  O         55.7700  106.8820   47.4330 O.2    32  LEU32      -0.2715
     53  CB        56.8070  104.1570   46.9700 C.3    32  LEU32       0.0311
     54  CG        58.1300  104.3920   46.2090 C.3    32  LEU32       0.0022
     55  CD1       59.2720  103.7350   46.9420 C.3    32  LEU32       0.0001
     56  CD2       58.1170  103.8670   44.7920 C.3    32  LEU32       0.0001
     57  N         57.6200  107.0550   48.7380 N.am   33  LYS33      -0.1963
     58  CA        57.7840  108.4660   48.4990 C.3    33  LYS33       0.1728
     59  C         58.5350  108.6830   47.1930 C.2    33  LYS33       0.2616
     60  O         59.5130  108.0040   46.9250 O.2    33  LYS33      -0.2715
     61  CB        58.4430  109.1720   49.6860 C.3    33  LYS33       0.0311
     62  CG        57.4490  109.4890   50.7960 C.3    33  LYS33       0.0038
     63  CD        58.0840  110.3250   51.9000 C.3    33  LYS33       0.0206
     64  CE        58.9030  109.4510   52.8610 C.3    33  LYS33       0.1093
     65  NZ        60.0860  110.1400   53.4650 N.3    33  LYS33      -0.1314
     66  N         58.0380  109.5900   46.3630 N.am   34  ILE34      -0.1977
     67  CA        58.7430  109.9880   45.1790 C.3    34  ILE34       0.1596
     68  C         58.8430  111.5020   45.2090 C.2    34  ILE34       0.2287
     69  O         57.8510  112.2090   45.4520 O.2    34  ILE34      -0.2864
     70  CB        58.0210  109.5110   43.8970 C.3    34  ILE34       0.0276
     71  CG1       57.8660  107.9720   43.8890 C.3    34  ILE34       0.0022
     72  CG2       58.7740  109.9840   42.6500 C.3    34  ILE34       0.0022
     73  CD1       56.8860  107.4670   42.8540 C.3    34  ILE34       0.0001
     74  N         49.3050  112.4500   41.7610 N.3   169  GLY169     -0.1210
     75  CA        49.4470  111.1330   42.4040 C.3   169  GLY169      0.1956
     76  C         50.3590  111.1110   43.6400 C.2   169  GLY169      0.2612
     77  O         50.6150  110.0340   44.2050 O.2   169  GLY169     -0.2717
     78  N         50.8680  112.2800   44.0350 N.am  170  GLY170     -0.1942
     79  CA        51.5870  112.4390   45.2870 C.3   170  GLY170      0.2014
     80  C         53.0910  112.5720   45.1970 C.2   170  GLY170      0.2639
     81  O         53.7750  112.3080   46.1700 O.2   170  GLY170     -0.2714
     82  N         53.5950  112.9860   44.0410 N.am  171  CYS171     -0.1967
     83  CA        55.0030  113.2010   43.8510 C.3   171  CYS171      0.1712
     84  C         55.3060  114.5850   44.3820 C.2   171  CYS171      0.2296
     85  O         54.6860  115.5510   43.9490 O.2   171  CYS171     -0.2864
     86  CB        55.3940  113.0810   42.3580 C.3   171  CYS171      0.0983
     87  SG        57.1550  113.3810   42.0000 S.3   171  CYS171     -0.0798
@<TRIPOS>BOND
     1    29    27    1
     2    27    26    2
     3    27    28    1
     4     1     2    1
     5    26    25    1
     6     3     2    1
     7     3     4    2
     8     5     6    1
     9     5     2    1
    10     5     7    1
    11    25    24    1
    12     8     9    1
    13    17    15   ar
    14    17    18   ar
    15    74    75    1
    16    87    86    1
    17    15    13   ar
    18    23    24    1
    19    23    20    1
    20    18    16   ar
    21    86    83    1
    22    75    76    1
    23    72    70    1
    24    19    20    1
    25    19    10   am
    26     9    12    1
    27     9    10    1
    28    73    71    1
    29    13    12    1
    30    13    14   ar
    31    20    21    1
    32    16    14   ar
    33    10    11    2
    34    76    78   am
    35    76    77    2
    36    83    82    1
    37    83    84    1
    38    71    70    1
    39    70    67    1
    40    85    84    2
    41    78    79    1
    42    82    80   am
    43    21    30   am
    44    21    22    2
    45    56    54    1
    46    30    31    1
    47    67    68    1
    48    67    66    1
    49    80    79    1
    50    80    81    2
    51    68    69    2
    52    36    34    1
    53    35    34    1
    54    54    55    1
    55    54    53    1
    56    34    31    1
    57    31    32    1
    58    66    59   am
    59    60    59    2
    60    41    38    1
    61    37    32   am
    62    37    38    1
    63    53    50    1
    64    59    58    1
    65    32    33    2
    66    52    51    2
    67    38    39    1
    68    51    50    1
    69    51    57   am
    70    40    39    2
    71    50    49    1
    72    58    57    1
    73    58    61    1
    74    39    42   am
    75    49    44   am
    76    61    62    1
    77    42    48    1
    78    42    43    1
    79    44    45    2
    80    44    43    1
    81    48    47    1
    82    43    46    1
    83    62    63    1
    84    47    46    1
    85    63    64    1
    86    64    65    1
