@<TRIPOS>MOLECULE
tmp/6frlB00.pdb
 78 72 0 0 0
SMALL
GASTEIGER

@<TRIPOS>ATOM
      1  N         64.4900  117.5050   36.3450 N.3    12  GLY12      -0.1210
      2  CA        63.2020  117.4010   35.6700 C.3    12  GLY12       0.1956
      3  C         63.4170  117.2050   34.1810 C.2    12  GLY12       0.2612
      4  O         64.1570  116.3060   33.7780 O.2    12  GLY12      -0.2717
      5  N         62.7980  118.0630   33.3770 N.am   13  GLY13      -0.1942
      6  CA        62.6960  117.8520   31.9200 C.3    13  GLY13       0.2014
      7  C         61.9180  116.5930   31.5610 C.2    13  GLY13       0.2640
      8  O         61.0770  116.1160   32.3320 O.2    13  GLY13      -0.2714
      9  N         62.2060  116.0430   30.3920 N.am   14  THR14      -0.1936
     10  CA        61.4990  114.8610   29.9170 C.3    14  THR14       0.2028
     11  C         61.9330  113.6620   30.7090 C.2    14  THR14       0.2642
     12  O         61.0990  112.8740   31.1140 O.2    14  THR14      -0.2714
     13  CB        61.7830  114.5870   28.4380 C.3    14  THR14       0.1808
     14  OG1       63.1750  114.5450   28.3020 O.3    14  THR14      -0.2208
     15  CG2       61.3210  115.7030   27.6060 C.3    14  THR14       0.0379
     16  N         63.2290  113.5160   30.9630 N.am   15  ALA15      -0.1977
     17  CA        63.6990  112.2850   31.6050 C.3    15  ALA15       0.1597
     18  C         63.1480  112.2230   33.0040 C.2    15  ALA15       0.2287
     19  O         62.6130  111.1810   33.3970 O.2    15  ALA15      -0.2864
     20  CB        65.2110  112.2060   31.6190 C.3    15  ALA15       0.0319
     21  N         60.4420  118.0200   19.1000 N.3    42  GLU42      -0.1245
     22  CA        61.1060  116.7410   19.1210 C.3    42  GLU42       0.1567
     23  C         60.2330  115.6640   18.4800 C.2    42  GLU42       0.2260
     24  O         58.9970  115.7450   18.5070 O.2    42  GLU42      -0.2867
     25  CB        61.4510  116.3800   20.5460 C.3    42  GLU42       0.0388
     26  CG        62.8750  115.9040   20.7000 C.3    42  GLU42       0.1160
     27  CD        63.1590  115.3860   22.0950 C.2    42  GLU42       0.3649
     28  OE1       62.8670  116.1310   23.0750 O.co2  42  GLU42      -0.2457
     29  OE2       63.6740  114.2380   22.2070 O.co2  42  GLU42      -0.2457
     30  N         58.6120  119.1570   23.6660 N.3   155  ALA155     -0.1245
     31  CA        59.1030  118.3480   24.7840 C.3   155  ALA155      0.1562
     32  C         58.8790  119.0280   26.1330 C.2   155  ALA155      0.2260
     33  O         58.5420  118.3680   27.1160 O.2   155  ALA155     -0.2867
     34  CB        60.5570  117.9980   24.5920 C.3   155  ALA155      0.0290
     35  N         68.7150  112.1520   36.4340 N.3   209  CYS209     -0.1221
     36  CA        68.2350  112.7830   35.2100 C.3   209  CYS209      0.1808
     37  C         68.8250  114.1780   35.0950 C.2   209  CYS209      0.2602
     38  O         68.2000  115.0960   34.5190 O.2   209  CYS209     -0.2717
     39  CB        66.7000  112.8770   35.2130 C.3   209  CYS209      0.0970
     40  SG        65.8390  111.3050   35.4500 S.3   209  CYS209     -0.0800
     41  N         70.0320  114.3520   35.6310 N.am  210  SER210     -0.1938
     42  CA        70.7250  115.6500   35.5830 C.3   210  SER210      0.2055
     43  C         71.2110  116.1000   34.2040 C.2   210  SER210      0.2643
     44  O         71.6040  117.2530   34.0740 O.2   210  SER210     -0.2714
     45  CB        71.9230  115.6400   36.5390 C.3   210  SER210      0.2130
     46  OG        72.9550  114.7540   36.1080 O.3   210  SER210     -0.2179
     47  N         71.2330  115.2180   33.2080 N.am  211  GLY211     -0.1954
     48  CA        71.6790  115.5780   31.8480 C.3   211  GLY211      0.1869
     49  C         73.1020  115.1290   31.5770 C.2   211  GLY211      0.2309
     50  O         73.6440  114.3200   32.3130 O.2   211  GLY211     -0.2863
     51  N         69.0400  107.7900   33.8990 N.3   326  ILE326     -0.1231
     52  CA        68.0040  107.8170   32.8390 C.3   326  ILE326      0.1692
     53  C         68.1350  109.0680   31.9490 C.2   326  ILE326      0.2593
     54  O         68.2380  110.1820   32.4670 O.2   326  ILE326     -0.2718
     55  CB        66.5880  107.8030   33.4650 C.3   326  ILE326      0.0266
     56  CG1       66.3680  106.5640   34.3520 C.3   326  ILE326      0.0019
     57  CG2       65.4880  107.8830   32.3940 C.3   326  ILE326      0.0020
     58  CD1       66.2110  105.2610   33.5940 C.3   326  ILE326      0.0001
     59  N         68.0690  108.8890   30.6250 N.am  327  GLY327     -0.1942
     60  CA        68.2660  109.9950   29.6720 C.3   327  GLY327      0.2014
     61  C         69.7410  110.3070   29.4060 C.2   327  GLY327      0.2638
     62  O         70.5690  109.4140   29.5020 O.2   327  GLY327     -0.2714
     63  N         70.0640  111.5790   29.1220 N.am  328  LEU328     -0.1977
     64  CA        71.4260  112.0370   28.7330 C.3   328  LEU328      0.1596
     65  C         72.5670  111.6880   29.6910 C.2   328  LEU328      0.2287
     66  O         73.7140  111.4850   29.2440 O.2   328  LEU328     -0.2864
     67  CB        71.4790  113.5350   28.4660 C.3   328  LEU328      0.0297
     68  CG        70.8000  114.1960   27.2720 C.3   328  LEU328      0.0022
     69  CD1       71.1090  115.7070   27.2140 C.3   328  LEU328      0.0001
     70  CD2       71.2670  113.5190   26.0100 C.3   328  LEU328      0.0001
     71  N         64.7830  106.7960   27.0670 N.3   344  ILE344     -0.1245
     72  CA        64.1690  107.0740   28.3840 C.3   344  ILE344      0.1561
     73  C         63.0880  106.0540   28.6700 C.2   344  ILE344      0.2260
     74  O         63.0790  105.4580   29.7460 O.2   344  ILE344     -0.2867
     75  CB        63.6090  108.5140   28.4600 C.3   344  ILE344      0.0252
     76  CG1       64.7850  109.5130   28.4860 C.3   344  ILE344      0.0019
     77  CG2       62.7160  108.7140   29.6830 C.3   344  ILE344      0.0019
     78  CD1       64.4490  110.8860   27.9610 C.3   344  ILE344      0.0001
@<TRIPOS>BOND
     1    23    24    2
     2    23    22    1
     3    21    22    1
     4    22    25    1
     5    25    26    1
     6    26    27    1
     7    27    29   ar
     8    27    28   ar
     9    30    31    1
    10    34    31    1
    11    31    32    1
    12    70    68    1
    13    32    33    2
    14    71    72    1
    15    69    68    1
    16    68    67    1
    17    15    13    1
    18    78    76    1
    19    14    13    1
    20    72    75    1
    21    72    73    1
    22    13    10    1
    23    75    76    1
    24    75    77    1
    25    67    64    1
    26    73    74    2
    27    64    63    1
    28    64    65    1
    29    63    61   am
    30    66    65    2
    31    61    62    2
    32    61    60    1
    33    60    59    1
    34    10     9    1
    35    10    11    1
    36     9     7   am
    37    59    53   am
    38    11    16   am
    39    11    12    2
    40    16    17    1
    41     7     6    1
    42     7     8    2
    43    49    48    1
    44    49    50    2
    45    17    20    1
    46    17    18    1
    47    48    47    1
    48     6     5    1
    49    53    54    2
    50    53    52    1
    51    57    55    1
    52    52    55    1
    53    52    51    1
    54    18    19    2
    55    47    43   am
    56     5     3   am
    57    55    56    1
    58    58    56    1
    59     4     3    2
    60    44    43    2
    61     3     2    1
    62    43    42    1
    63    38    37    2
    64    37    36    1
    65    37    41   am
    66    36    39    1
    67    36    35    1
    68    39    40    1
    69    42    41    1
    70    42    45    1
    71     2     1    1
    72    46    45    1
