@<TRIPOS>MOLECULE
tmp/6frnD01.pdb
 130 130 0 0 0
SMALL
GASTEIGER

@<TRIPOS>ATOM
      1  N         30.0930  -13.2050  171.3490 N.3   266  THR266     -0.1203
      2  CA        30.8670  -14.2350  170.6600 C.3   266  THR266      0.1994
      3  C         30.1890  -14.5580  169.3340 C.2   266  THR266      0.2618
      4  O         28.9620  -14.4330  169.2080 O.2   266  THR266     -0.2717
      5  CB        30.9820  -15.5010  171.5460 C.3   266  THR266      0.1784
      6  OG1       32.0180  -16.3550  171.0530 O.3   266  THR266     -0.2211
      7  CG2       29.6850  -16.3150  171.6080 C.3   266  THR266      0.0376
      8  N         30.9780  -14.9340  168.3620 N.am  267  MET267     -0.1965
      9  CA        30.4940  -15.3880  167.0530 C.3   267  MET267      0.1736
     10  C         30.5460  -16.9220  166.9840 C.2   267  MET267      0.2616
     11  O         29.5690  -17.5590  166.5950 O.2   267  MET267     -0.2715
     12  CB        31.3200  -14.7620  165.9380 C.3   267  MET267      0.0427
     13  CG        31.3020  -13.2430  165.9510 C.3   267  MET267      0.0599
     14  SD        32.2210  -12.4800  164.5660 S.3   267  MET267     -0.1393
     15  CE        33.8940  -12.8160  165.0740 C.3   267  MET267      0.0692
     16  N         31.6840  -17.5020  167.3510 N.am  268  HIS268     -0.1959
     17  CA        31.9390  -18.9560  167.3080 C.3   268  HIS268      0.1787
     18  C         32.0730  -19.6480  168.6810 C.2   268  HIS268      0.2621
     19  O         32.3120  -20.8520  168.7130 O.2   268  HIS268     -0.2715
     20  CB        33.1950  -19.2370  166.4930 C.3   268  HIS268      0.0785
     21  CG        33.1610  -18.7840  165.0680 C.ar  268  HIS268      0.0821
     22  ND1       32.1790  -19.2170  164.1840 N.ar  268  HIS268     -0.2267
     23  CD2       34.0620  -18.0360  164.3880 C.ar  268  HIS268      0.1154
     24  CE1       32.5180  -18.7290  163.0040 C.ar  268  HIS268      0.1986
     25  NE2       33.6200  -17.9760  163.0820 N.ar  268  HIS268     -0.2212
     26  N         31.9680  -18.9050  169.7780 N.am  269  GLY269     -0.1940
     27  CA        32.0070  -19.4630  171.1250 C.3   269  GLY269      0.2014
     28  C         33.3010  -19.3800  171.9150 C.2   269  GLY269      0.2640
     29  O         33.2810  -19.6450  173.1190 O.2   269  GLY269     -0.2714
     30  N         34.4170  -18.9520  171.3100 N.am  270  SER270     -0.1935
     31  CA        35.6900  -18.8920  172.0290 C.3   270  SER270      0.2055
     32  C         35.7230  -17.8470  173.1580 C.2   270  SER270      0.2643
     33  O         36.1640  -18.1610  174.2760 O.2   270  SER270     -0.2714
     34  CB        36.8470  -18.7100  171.0680 C.3   270  SER270      0.2130
     35  OG        36.9360  -19.8910  170.2910 O.3   270  SER270     -0.2179
     36  N         35.1760  -16.6480  172.9120 N.am  271  THR271     -0.1950
     37  CA        35.1180  -15.6170  173.9430 C.3   271  THR271      0.1897
     38  C         34.2220  -16.0560  175.0740 C.2   271  THR271      0.2313
     39  O         34.4880  -15.7310  176.2240 O.2   271  THR271     -0.2863
     40  CB        34.7450  -14.2630  173.3300 C.3   271  THR271      0.1794
     41  OG1       35.7050  -13.9570  172.3440 O.3   271  THR271     -0.2208
     42  CG2       34.7250  -13.1700  174.3410 C.3   271  THR271      0.0378
     43  N         35.2030  -10.8630  170.4980 N.3   317  PRO317     -0.2102
     44  CA        36.1710  -11.1910  169.4610 C.3   317  PRO317      0.1504
     45  C         36.4470  -10.0150  168.5390 C.2   317  PRO317      0.2576
     46  O         35.6700   -9.0450  168.5060 O.2   317  PRO317     -0.2718
     47  CB        35.4720  -12.3210  168.7060 C.3   317  PRO317      0.0282
     48  CG        34.0350  -11.9520  168.7740 C.3   317  PRO317      0.0208
     49  CD        33.8780  -11.4490  170.1860 C.3   317  PRO317      0.0893
     50  N         37.4960  -10.1460  167.7110 N.am  318  THR318     -0.1939
     51  CA        37.8290   -9.1220  166.7260 C.3   318  THR318      0.2028
     52  C         37.1290   -9.4310  165.4260 C.2   318  THR318      0.2642
     53  O         37.1410  -10.5750  164.9650 O.2   318  THR318     -0.2714
     54  CB        39.3410   -9.0140  166.5330 C.3   318  THR318      0.1808
     55  OG1       39.9130   -8.6370  167.7770 O.3   318  THR318     -0.2208
     56  CG2       39.7320   -7.9690  165.4840 C.3   318  THR318      0.0379
     57  N         36.5520   -8.3910  164.8220 N.am  319  ILE319     -0.1963
     58  CA        35.9010   -8.4490  163.5100 C.3   319  ILE319      0.1727
     59  C         36.3560   -7.1970  162.7760 C.2   319  ILE319      0.2616
     60  O         36.1350   -6.0900  163.2420 O.2   319  ILE319     -0.2715
     61  CB        34.3450   -8.6320  163.6400 C.3   319  ILE319      0.0290
     62  CG1       33.6130   -8.4210  162.3140 C.3   319  ILE319      0.0022
     63  CG2       33.7480   -7.7490  164.7000 C.3   319  ILE319      0.0023
     64  CD1       32.1600   -9.0320  162.3320 C.3   319  ILE319      0.0001
     65  N         37.1200   -7.3850  161.7030 N.am  320  TYR320     -0.1960
     66  CA        37.7180   -6.3160  160.9080 C.3   320  TYR320      0.1771
     67  C         38.3860   -5.2440  161.7720 C.2   320  TYR320      0.2619
     68  O         38.0450   -4.0630  161.7220 O.2   320  TYR320     -0.2715
     69  CB        36.6850   -5.7620  159.9090 C.3   320  TYR320      0.0574
     70  CG        36.5200   -6.7330  158.7580 C.ar  320  TYR320     -0.0198
     71  CD1       37.6130   -7.1410  158.0070 C.ar  320  TYR320     -0.0009
     72  CD2       35.2900   -7.3210  158.4840 C.ar  320  TYR320     -0.0009
     73  CE1       37.4920   -8.1220  157.0220 C.ar  320  TYR320      0.0417
     74  CE2       35.1440   -8.2460  157.4450 C.ar  320  TYR320      0.0417
     75  CZ        36.2500   -8.6430  156.7180 C.ar  320  TYR320      0.1957
     76  OH        36.1290   -9.5860  155.7230 O.3   320  TYR320     -0.2866
     77  N         39.3360   -5.7030  162.6030 N.am  321  ASP321     -0.1971
     78  CA        40.1800   -4.8960  163.4810 C.3   321  ASP321      0.1709
     79  C         39.4770   -4.2410  164.6580 C.2   321  ASP321      0.2293
     80  O         40.1580   -3.5730  165.4310 O.2   321  ASP321     -0.2864
     81  CB        40.9310   -3.8190  162.6900 C.3   321  ASP321      0.1436
     82  CG        41.6470   -4.3660  161.4790 C.2   321  ASP321      0.3671
     83  OD1       42.3260   -5.4010  161.6170 O.co2 321  ASP321     -0.2456
     84  OD2       41.4830   -3.7940  160.3860 O.co2 321  ASP321     -0.2456
     85  N         38.9040  -13.3150  171.6840 N.3   353  SER353     -0.1202
     86  CA        39.5730  -14.2270  170.7670 C.3   353  SER353      0.2020
     87  C         39.7440  -13.5090  169.4230 C.2   353  SER353      0.2619
     88  O         38.9810  -12.5780  169.0970 O.2   353  SER353     -0.2717
     89  CB        38.7760  -15.5170  170.6380 C.3   353  SER353      0.2103
     90  OG        39.3630  -16.4050  169.7070 O.3   353  SER353     -0.2182
     91  N         40.7400  -13.9360  168.6670 N.am  354  MET354     -0.1965
     92  CA        41.1110  -13.3690  167.3640 C.3   354  MET354      0.1736
     93  C         41.5050  -14.4770  166.3700 C.2   354  MET354      0.2617
     94  O         41.8750  -15.5590  166.7880 O.2   354  MET354     -0.2715
     95  CB        42.2980  -12.4060  167.5650 C.3   354  MET354      0.0427
     96  CG        43.6530  -13.1010  167.6150 C.3   354  MET354      0.0599
     97  SD        44.9490  -11.9960  168.1170 S.3   354  MET354     -0.1393
     98  CE        45.9250  -13.0740  169.1850 C.3   354  MET354      0.0692
     99  N         41.4210  -14.1850  165.0820 N.am  355  GLY355     -0.1940
    100  CA        41.8500  -15.1100  164.0370 C.3   355  GLY355      0.2014
    101  C         43.0250  -14.6260  163.2040 C.2   355  GLY355      0.2639
    102  O         43.5590  -15.3980  162.4000 O.2   355  GLY355     -0.2714
    103  N         43.4280  -13.3690  163.3660 N.am  356  GLY356     -0.1939
    104  CA        44.5410  -12.8140  162.5960 C.3   356  GLY356      0.2014
    105  C         45.3230  -11.7910  163.3770 C.2   356  GLY356      0.2639
    106  O         46.0070  -12.1480  164.3350 O.2   356  GLY356     -0.2714
    107  N         45.2210  -10.5240  162.9870 N.am  357  ASN357     -0.1958
    108  CA        45.9400   -9.4460  163.6620 C.3   357  ASN357      0.1819
    109  C         45.3610   -9.0650  165.0240 C.2   357  ASN357      0.2621
    110  O         46.0670   -8.4640  165.8190 O.2   357  ASN357     -0.2715
    111  CB        46.0210   -8.2100  162.7610 C.3   357  ASN357      0.1195
    112  CG        46.9010   -8.4290  161.5610 C.2   357  ASN357      0.2630
    113  OD1       48.0360   -8.9000  161.6830 O.2   357  ASN357     -0.2716
    114  ND2       46.4160   -8.0850  160.3740 N.am  357  ASN357     -0.0877
    115  N         44.0900   -9.3670  165.2840 N.am  358  GLY358     -0.1954
    116  CA        43.4940   -8.9860  166.5560 C.3   358  GLY358      0.1869
    117  C         43.3440   -7.4820  166.6600 C.2   358  GLY358      0.2309
    118  O         43.2420   -6.8090  165.6420 O.2   358  GLY358     -0.2863
    119  N         41.8810  -17.9850  168.1380 N.3   383  TYR383     -0.1241
    120  CA        40.8210  -18.9780  167.9540 C.3   383  TYR383      0.1605
    121  C         40.3770  -19.6820  169.2600 C.2   383  TYR383      0.2264
    122  O         40.0920  -18.9930  170.2350 O.2   383  TYR383     -0.2867
    123  CB        41.2020  -20.0020  166.8510 C.3   383  TYR383      0.0534
    124  CG        41.2880  -19.4260  165.4560 C.ar  383  TYR383     -0.0201
    125  CD1       40.2690  -18.6340  164.9470 C.ar  383  TYR383     -0.0009
    126  CD2       42.2930  -19.8180  164.5870 C.ar  383  TYR383     -0.0009
    127  CE1       40.2800  -18.1970  163.6290 C.ar  383  TYR383      0.0417
    128  CE2       42.3120  -19.3910  163.2620 C.ar  383  TYR383      0.0417
    129  CZ        41.3280  -18.5410  162.8010 C.ar  383  TYR383      0.1957
    130  OH        41.3340  -18.0700  161.5090 O.3   383  TYR383     -0.2866
@<TRIPOS>BOND
     1    76    75    1
     2    75    73   ar
     3    75    74   ar
     4    73    71   ar
     5    74    72   ar
     6    71    70   ar
     7    72    70   ar
     8    70    69    1
     9    69    66    1
    10   114   112   am
    11    84    82   ar
    12    66    65    1
    13    66    67    1
    14    82    83   ar
    15    82    81    1
    16   130   129    1
    17   112   113    2
    18   112   111    1
    19    65    59   am
    20    68    67    2
    21    67    77   am
    22    62    64    1
    23    62    61    1
    24   102   101    2
    25   104   103    1
    26   104   105    1
    27    77    78    1
    28    81    78    1
    29   111   108    1
    30    59    60    2
    31    59    58    1
    32   129   128   ar
    33   129   127   ar
    34   107   105   am
    35   107   108    1
    36    24    25   ar
    37    24    22   ar
    38    25    23   ar
    39   101   103   am
    40   101   100    1
    41   128   126   ar
    42   105   106    2
    43    78    79    1
    44    58    61    1
    45    58    57    1
    46   127   125   ar
    47    61    63    1
    48   108   109    1
    49   100    99    1
    50    22    21   ar
    51    23    21   ar
    52    14    15    1
    53    14    13    1
    54   126   124   ar
    55    79    80    2
    56    57    52   am
    57   125   124   ar
    58    53    52    2
    59   109   115   am
    60   109   110    2
    61    21    20    1
    62    99    93   am
    63   115   116    1
    64    52    51    1
    65   124   123    1
    66    56    54    1
    67   118   117    2
    68    12    13    1
    69    12     9    1
    70    93    94    2
    71    93    92    1
    72    20    17    1
    73    54    51    1
    74    54    55    1
    75   116   117    1
    76    11    10    2
    77    51    50    1
    78   123   120    1
    79    10     9    1
    80    10    16   am
    81     9     8    1
    82    17    16    1
    83    17    18    1
    84    92    95    1
    85    92    91    1
    86    95    96    1
    87    96    97    1
    88    50    45   am
    89   120   119    1
    90   120   121    1
    91    97    98    1
    92     8     3   am
    93    46    45    2
    94    45    44    1
    95    91    87   am
    96    18    19    2
    97    18    26   am
    98    47    48    1
    99    47    44    1
   100    48    49    1
   101    88    87    2
   102     4     3    2
   103   121   122    2
   104     3     2    1
   105    87    86    1
   106    44    43    1
   107    90    89    1
   108    26    27    1
   109    49    43    1
   110    35    34    1
   111    89    86    1
   112     2     1    1
   113     2     5    1
   114    86    85    1
   115     6     5    1
   116    34    31    1
   117    27    28    1
   118    30    28   am
   119    30    31    1
   120     5     7    1
   121    28    29    2
   122    31    32    1
   123    41    40    1
   124    36    32   am
   125    36    37    1
   126    32    33    2
   127    40    37    1
   128    40    42    1
   129    37    38    1
   130    38    39    2
