@<TRIPOS>MOLECULE
tmp/6frnD03.pdb
 129 125 0 0 0
SMALL
GASTEIGER

@<TRIPOS>ATOM
      1  N          7.6510   17.8050  186.5800 N.3    84  HIS84      -0.1226
      2  CA         8.5760   17.5330  185.4790 C.3    84  HIS84       0.1752
      3  C          7.8270   17.8070  184.1800 C.2    84  HIS84       0.2596
      4  O          6.5870   17.8970  184.1660 O.2    84  HIS84      -0.2718
      5  CB         9.0320   16.0310  185.4910 C.3    84  HIS84       0.0759
      6  CG        10.3810   15.7740  184.8650 C.ar   84  HIS84       0.0818
      7  ND1       10.7700   16.4080  183.6920 N.ar   84  HIS84      -0.2268
      8  CD2       11.3110   14.8310  185.1680 C.ar   84  HIS84       0.1154
      9  CE1       11.9580   15.9030  183.3810 C.ar   84  HIS84       0.1986
     10  NE2       12.3400   14.9870  184.2740 N.ar   84  HIS84      -0.2212
     11  N          8.5720   17.9570  183.0970 N.am   85  VAL85      -0.1966
     12  CA         8.0200   18.1830  181.7660 C.3    85  VAL85       0.1727
     13  C          7.8340   16.8780  180.9740 C.2    85  VAL85       0.2616
     14  O          7.0430   16.8690  180.0420 O.2    85  VAL85      -0.2715
     15  CB         8.8730   19.1480  180.9090 C.3    85  VAL85       0.0290
     16  CG1        9.0250   20.4910  181.5730 C.3    85  VAL85       0.0023
     17  CG2       10.2420   18.5630  180.5670 C.3    85  VAL85       0.0023
     18  N          8.6440   15.8650  181.2200 N.am   86  GLU86      -0.1977
     19  CA         8.6060   14.6490  180.4280 C.3    86  GLU86       0.1602
     20  C          7.1890   14.0680  180.3210 C.2    86  GLU86       0.2287
     21  O          6.4170   14.1280  181.2740 O.2    86  GLU86      -0.2864
     22  CB         9.6190   13.6190  180.9100 C.3    86  GLU86       0.0415
     23  CG         9.4690   13.2770  182.3710 C.3    86  GLU86       0.1163
     24  CD        10.3060   12.0760  182.7210 C.2    86  GLU86       0.3649
     25  OE1       11.2250   11.7260  181.9380 O.co2  86  GLU86      -0.2457
     26  OE2       10.0450   11.4980  183.7960 O.co2  86  GLU86      -0.2457
     27  N         17.7430   18.2180  192.4500 N.3   150  LEU150     -0.1245
     28  CA        19.0280   17.5810  192.1220 C.3   150  LEU150      0.1561
     29  C         19.8440   18.4410  191.1790 C.2   150  LEU150      0.2260
     30  O         20.8480   17.9560  190.6490 O.2   150  LEU150     -0.2867
     31  CB        18.8670   16.1480  191.5730 C.3   150  LEU150      0.0270
     32  CG        18.3550   15.1120  192.5540 C.3   150  LEU150      0.0019
     33  CD1       18.2670   13.7480  191.8790 C.3   150  LEU150      0.0001
     34  CD2       19.2510   15.0190  193.7980 C.3   150  LEU150      0.0001
     35  N         18.3110   18.9340  186.3410 N.3   153  TRP153     -0.1241
     36  CA        17.1630   19.0910  185.4560 C.3   153  TRP153      0.1605
     37  C         16.3980   20.3260  185.8850 C.2   153  TRP153      0.2264
     38  O         15.6910   20.2930  186.8840 O.2   153  TRP153     -0.2867
     39  CB        16.2490   17.8450  185.4590 C.3   153  TRP153      0.0550
     40  CG        16.9410   16.5680  185.1360 C.ar  153  TRP153      0.0003
     41  CD1       16.9960   15.4600  185.9270 C.ar  153  TRP153      0.0946
     42  CD2       17.7250   16.2690  183.9720 C.ar  153  TRP153      0.0152
     43  NE1       17.6670   14.4530  185.2820 N.ar  153  TRP153     -0.2442
     44  CE2       18.1670   14.9360  184.1010 C.ar  153  TRP153      0.0810
     45  CE3       18.0710   16.9830  182.8180 C.ar  153  TRP153      0.0012
     46  CZ2       18.9460   14.3140  183.1340 C.ar  153  TRP153      0.0191
     47  CZ3       18.8470   16.3600  181.8560 C.ar  153  TRP153      0.0001
     48  CH2       19.3070   15.0540  182.0390 C.ar  153  TRP153      0.0015
     49  N         13.8670   21.6110  184.6370 N.3   155  ASP155     -0.1225
     50  CA        12.4410   21.4280  184.4040 C.3   155  ASP155      0.1805
     51  C         11.7320   20.6910  185.5590 C.2   155  ASP155      0.2598
     52  O         10.5110   20.6010  185.5600 O.2   155  ASP155     -0.2718
     53  CB        12.1810   20.7370  183.0520 C.3   155  ASP155      0.1424
     54  CG        13.0540   19.5590  182.7000 C.2   155  ASP155      0.3668
     55  OD1       13.3750   18.7750  183.6100 O.co2 155  ASP155     -0.2456
     56  OD2       13.3490   19.3770  181.4940 O.co2 155  ASP155     -0.2456
     57  N         12.4720   20.2290  186.5770 N.am  156  SER156     -0.1952
     58  CA        11.9070   19.4370  187.6490 C.3   156  SER156      0.1924
     59  C         11.7810   20.1490  188.9900 C.2   156  SER156      0.2314
     60  O         12.4410   21.1470  189.2540 O.2   156  SER156     -0.2863
     61  CB        12.7170   18.1520  187.8200 C.3   156  SER156      0.2116
     62  OG        13.9150   18.4290  188.5240 O.3   156  SER156     -0.2180
     63  N         10.4000   19.0690  193.3830 N.3   158  PHE158     -0.1241
     64  CA         9.8200   18.1830  194.3620 C.3   158  PHE158      0.1605
     65  C          8.6740   19.0050  194.9570 C.2   158  PHE158      0.2264
     66  O          8.7650   20.2180  195.0100 O.2   158  PHE158     -0.2867
     67  CB        10.7770   17.8400  195.4970 C.3   158  PHE158      0.0534
     68  CG        11.8730   16.8160  195.2730 C.ar  158  PHE158     -0.0203
     69  CD1       12.0120   16.1790  194.0610 C.ar  158  PHE158     -0.0042
     70  CD2       12.7800   16.5200  196.2800 C.ar  158  PHE158     -0.0042
     71  CE1       13.0200   15.2430  193.8620 C.ar  158  PHE158     -0.0003
     72  CE2       13.7640   15.5540  196.0870 C.ar  158  PHE158     -0.0003
     73  CZ        13.8790   14.9340  194.8740 C.ar  158  PHE158     -0.0000
     74  N          8.7510   12.9360  192.3000 N.3   170  ASN170     -0.1225
     75  CA         8.7900   12.6450  190.8510 C.3   170  ASN170      0.1785
     76  C          9.6850   11.4430  190.5820 C.2   170  ASN170      0.2597
     77  O          9.5350   10.4530  191.3100 O.2   170  ASN170     -0.2718
     78  CB         9.1250   13.8680  190.0210 C.3   170  ASN170      0.1169
     79  CG         8.7510   13.6660  188.5420 C.2   170  ASN170      0.2627
     80  OD1        9.5890   13.3110  187.7290 O.2   170  ASN170     -0.2716
     81  ND2        7.4710   13.7090  188.1750 N.am  170  ASN170     -0.0877
     82  N         10.5820   11.4620  189.5790 N.am  171  ASP171     -0.1960
     83  CA        11.3560   10.2580  189.2870 C.3   171  ASP171      0.1840
     84  C         12.3420    9.8740  190.3830 C.2   171  ASP171      0.2621
     85  O         12.6590    8.6930  190.4950 O.2   171  ASP171     -0.2715
     86  CB        12.0590   10.3600  187.9420 C.3   171  ASP171      0.1450
     87  CG        11.2690   10.0750  186.6500 C.2   171  ASP171      0.3671
     88  OD1       10.0950    9.5640  186.7220 O.co2 171  ASP171     -0.2456
     89  OD2       11.8630   10.2080  185.5610 O.co2 171  ASP171     -0.2456
     90  N         12.8010   10.8210  191.2160 N.am  172  ALA172     -0.1977
     91  CA        13.7170   10.4740  192.3070 C.3   172  ALA172      0.1597
     92  C         13.0600    9.4520  193.2210 C.2   172  ALA172      0.2287
     93  O         11.8970    9.5960  193.5660 O.2   172  ALA172     -0.2864
     94  CB        14.1230   11.7050  193.0900 C.3   172  ALA172      0.0319
     95  N         16.8590    1.2860  188.8690 N.3   199  PHE199     -0.1241
     96  CA        16.4730    2.6810  188.6130 C.3   199  PHE199      0.1605
     97  C         17.6400    3.6130  188.9070 C.2   199  PHE199      0.2264
     98  O         18.0090    4.4140  188.0660 O.2   199  PHE199     -0.2867
     99  CB        15.2270    3.0180  189.4180 C.3   199  PHE199      0.0534
    100  CG        14.4810    4.2290  188.9230 C.ar  199  PHE199     -0.0203
    101  CD1       14.8910    5.5050  189.2660 C.ar  199  PHE199     -0.0042
    102  CD2       13.3490    4.0920  188.1240 C.ar  199  PHE199     -0.0042
    103  CE1       14.1700    6.6250  188.8330 C.ar  199  PHE199     -0.0003
    104  CE2       12.6220    5.2120  187.7030 C.ar  199  PHE199     -0.0003
    105  CZ        13.0500    6.4730  188.0390 C.ar  199  PHE199     -0.0000
    106  N         19.4750    5.6200  185.7710 N.3   203  LEU203     -0.1231
    107  CA        19.0140    7.0150  185.7380 C.3   203  LEU203      0.1693
    108  C         19.6580    7.9740  186.7020 C.2   203  LEU203      0.2591
    109  O         19.4860    9.1890  186.4890 O.2   203  LEU203     -0.2718
    110  CB        17.4940    7.0060  185.9620 C.3   203  LEU203      0.0284
    111  CG        16.7050    6.1910  184.9420 C.3   203  LEU203      0.0019
    112  CD1       15.3280    5.9030  185.4190 C.3   203  LEU203      0.0001
    113  CD2       16.7260    6.8480  183.5660 C.3   203  LEU203      0.0001
    114  N         20.3000    7.5080  187.7980 N.am  204  ILE204     -0.1980
    115  CA        20.8670    8.4220  188.7810 C.3   204  ILE204      0.1595
    116  C         22.3820    8.4020  188.8130 C.2   204  ILE204      0.2287
    117  O         22.9600    9.4110  189.1750 O.2   204  ILE204     -0.2864
    118  CB        20.2760    8.1260  190.1810 C.3   204  ILE204      0.0276
    119  CG1       18.7220    7.9950  190.1550 C.3   204  ILE204      0.0022
    120  CG2       20.7120    9.1800  191.1820 C.3   204  ILE204      0.0022
    121  CD1       17.9650    9.2070  189.7480 C.3   204  ILE204      0.0001
    122  N         24.5020   11.4890  188.2090 N.3   207  LEU207     -0.1245
    123  CA        24.1620   12.5700  189.1310 C.3   207  LEU207      0.1561
    124  C         24.6070   12.2490  190.5650 C.2   207  LEU207      0.2260
    125  O         24.2300   12.9720  191.4970 O.2   207  LEU207     -0.2867
    126  CB        22.6210   12.7560  189.1450 C.3   207  LEU207      0.0270
    127  CG        21.9120   12.8450  187.8120 C.3   207  LEU207      0.0019
    128  CD1       20.4180   13.0100  188.0350 C.3   207  LEU207      0.0001
    129  CD2       22.4440   13.9790  186.9940 C.3   207  LEU207      0.0001
@<TRIPOS>BOND
     1    14    13    2
     2    20    19    1
     3    20    21    2
     4    19    22    1
     5    19    18    1
     6    17    15    1
     7    15    16    1
     8    15    12    1
     9    22    23    1
    10    13    18   am
    11    13    12    1
    12    56    54   ar
    13    12    11    1
    14    47    48   ar
    15    47    45   ar
    16    25    24   ar
    17    48    46   ar
    18    23    24    1
    19    54    53    1
    20    54    55   ar
    21    24    26   ar
    22    45    42   ar
    23    53    50    1
    24    11     3   am
    25    46    44   ar
    26     9     7   ar
    27     9    10   ar
    28   113   111    1
    29     7     6   ar
    30    42    44   ar
    31    42    40   ar
    32    44    43   ar
    33     4     3    2
    34     3     2    1
    35    10     8   ar
    36    50    49    1
    37    50    51    1
    38     6     8   ar
    39     6     5    1
    40   111   112    1
    41   111   110    1
    42    40    39    1
    43    40    41   ar
    44    43    41   ar
    45    36    39    1
    46    36    37    1
    47    36    35    1
    48     2     5    1
    49     2     1    1
    50    51    52    2
    51    51    57   am
    52    89    87   ar
    53   107   106    1
    54   107   110    1
    55   107   108    1
    56    37    38    2
    57   109   108    2
    58    57    58    1
    59    87    88   ar
    60    87    86    1
    61   108   114   am
    62   129   127    1
    63    58    61    1
    64    58    59    1
    65   104   105   ar
    66   104   102   ar
    67    80    79    2
    68   114   115    1
    69   127   128    1
    70   127   126    1
    71    61    62    1
    72    86    83    1
    73   105   103   ar
    74    98    97    2
    75   102   100   ar
    76    81    79   am
    77   122   123    1
    78    79    78    1
    79    96    95    1
    80    96    97    1
    81    96    99    1
    82   115   116    1
    83   115   118    1
    84   116   117    2
    85   103   101   ar
    86   100   101   ar
    87   100    99    1
    88    59    60    2
    89   123   126    1
    90   123   124    1
    91    83    82    1
    92    83    84    1
    93    82    76   am
    94   121   119    1
    95    78    75    1
    96   119   118    1
    97   118   120    1
    98    84    85    2
    99    84    90   am
   100   124   125    2
   101    76    75    1
   102    76    77    2
   103    30    29    2
   104    75    74    1
   105    29    28    1
   106    90    91    1
   107    31    28    1
   108    31    32    1
   109    33    32    1
   110    28    27    1
   111    91    94    1
   112    91    92    1
   113    32    34    1
   114    92    93    2
   115    63    64    1
   116    71    69   ar
   117    71    73   ar
   118    69    68   ar
   119    64    65    1
   120    64    67    1
   121    73    72   ar
   122    65    66    2
   123    68    67    1
   124    68    70   ar
   125    72    70   ar
