@<TRIPOS>MOLECULE
tmp/6frpA00.pdb
 144 133 0 0 0
SMALL
GASTEIGER

@<TRIPOS>ATOM
      1  N        -19.0920   20.2870   38.4780 N.3    21  ILE21      -0.1231
      2  CA       -18.7380   19.8610   39.8310 C.3    21  ILE21       0.1692
      3  C        -17.5140   20.6150   40.3500 C.2    21  ILE21       0.2593
      4  O        -17.5630   21.2330   41.4160 O.2    21  ILE21      -0.2718
      5  CB       -18.5240   18.3320   39.9030 C.3    21  ILE21       0.0266
      6  CG1      -19.8020   17.5940   39.5020 C.3    21  ILE21       0.0019
      7  CG2      -18.0970   17.9200   41.3190 C.3    21  ILE21       0.0020
      8  CD1      -19.6330   16.0970   39.4320 C.3    21  ILE21       0.0001
      9  N        -16.4070   20.5710   39.6150 N.am   22  GLY22      -0.1942
     10  CA       -15.1900   21.2240   40.0720 C.3    22  GLY22       0.2014
     11  C        -14.0830   21.1420   39.0430 C.2    22  GLY22       0.2639
     12  O        -14.3220   20.8330   37.8730 O.2    22  GLY22      -0.2714
     13  N        -12.8600   21.4160   39.4980 N.am   23  GLU23      -0.1963
     14  CA       -11.6770   21.4690   38.6440 C.3    23  GLU23       0.1733
     15  C        -10.7550   20.2920   38.9480 C.2    23  GLU23       0.2617
     16  O        -10.2210   20.1890   40.0590 O.2    23  GLU23      -0.2715
     17  CB       -10.9190   22.7820   38.8460 C.3    23  GLU23       0.0429
     18  CG       -11.6800   24.0160   38.4040 C.3    23  GLU23       0.1163
     19  CD       -12.1160   23.9260   36.9610 C.2    23  GLU23       0.3649
     20  OE1      -13.3080   24.1650   36.6830 O.co2  23  GLU23      -0.2457
     21  OE2      -11.2660   23.6020   36.1080 O.co2  23  GLU23      -0.2457
     22  N        -10.5540   19.4230   37.9570 N.am   24  GLY24      -0.1940
     23  CA        -9.5320   18.3970   38.0320 C.3    24  GLY24       0.2014
     24  C         -8.1530   18.9670   37.7310 C.2    24  GLY24       0.2638
     25  O         -7.9650   20.1720   37.5550 O.2    24  GLY24      -0.2714
     26  N         -7.1670   18.0630   37.6600 N.am   25  ALA25      -0.1977
     27  CA        -5.7880   18.4950   37.4270 C.3    25  ALA25       0.1597
     28  C         -5.5960   19.0220   36.0110 C.2    25  ALA25       0.2287
     29  O         -4.8460   19.9820   35.7990 O.2    25  ALA25      -0.2864
     30  CB        -4.8160   17.3480   37.6960 C.3    25  ALA25       0.0319
     31  N        -14.5160   18.8290   35.8200 N.3    29  VAL29      -0.1245
     32  CA       -15.2770   17.6320   36.1700 C.3    29  VAL29       0.1561
     33  C        -16.7560   17.9930   36.2220 C.2    29  VAL29       0.2260
     34  O        -17.1450   18.9410   36.9150 O.2    29  VAL29      -0.2867
     35  CB       -14.8100   17.0230   37.5040 C.3    29  VAL29       0.0252
     36  CG1      -15.6420   15.7950   37.8380 C.3    29  VAL29       0.0019
     37  CG2      -13.3380   16.6540   37.4170 C.3    29  VAL29       0.0019
     38  N        -20.1790   10.6940   36.5110 N.3    42  ALA42      -0.1245
     39  CA       -19.1780   11.7480   36.5140 C.3    42  ALA42       0.1562
     40  C        -18.3200   11.6390   35.2600 C.2    42  ALA42       0.2260
     41  O        -18.0460   10.5370   34.7730 O.2    42  ALA42      -0.2867
     42  CB       -18.2930   11.6750   37.7570 C.3    42  ALA42       0.0290
     43  N        -14.7180   13.4640   33.6250 N.3    44  LYS44      -0.1245
     44  CA       -13.5350   14.2980   33.8070 C.3    44  LYS44       0.1561
     45  C        -12.9710   14.6320   32.4320 C.2    44  LYS44       0.2260
     46  O        -12.6170   13.7260   31.6700 O.2    44  LYS44      -0.2867
     47  CB       -12.4790   13.5810   34.6460 C.3    44  LYS44       0.0271
     48  CG       -12.9410   13.1430   36.0240 C.3    44  LYS44       0.0035
     49  CD       -11.7850   12.5490   36.8280 C.3    44  LYS44       0.0206
     50  CE       -10.7670   13.6130   37.2440 C.3    44  LYS44       0.1093
     51  NZ        -9.6190   13.0360   38.0440 N.3    44  LYS44      -0.1314
     52  N        -11.9770    3.4660   42.1800 N.3    74  ILE74      -0.1245
     53  CA       -12.8740    3.9920   41.1540 C.3    74  ILE74       0.1561
     54  C        -12.5840    3.2930   39.8300 C.2    74  ILE74       0.2260
     55  O        -11.4260    3.0410   39.4640 O.2    74  ILE74      -0.2867
     56  CB       -12.7490    5.5240   41.0270 C.3    74  ILE74       0.0252
     57  CG1      -13.9150    6.1100   40.2120 C.3    74  ILE74       0.0019
     58  CG2      -11.4270    5.9190   40.3450 C.3    74  ILE74       0.0019
     59  CD1      -15.3140    5.9360   40.8420 C.3    74  ILE74       0.0001
     60  N        -16.8190    7.9730   34.9600 N.3    95  GLN95      -0.1231
     61  CA       -16.7520    7.1900   36.1880 C.3    95  GLN95       0.1698
     62  C        -18.1200    7.1830   36.8620 C.2    95  GLN95       0.2592
     63  O        -18.9710    8.0350   36.5760 O.2    95  GLN95      -0.2718
     64  CB       -15.7070    7.7610   37.1520 C.3    95  GLN95       0.0381
     65  CG       -14.3090    7.7730   36.5820 C.3    95  GLN95       0.0905
     66  CD       -13.3010    8.4030   37.5310 C.2    95  GLN95       0.2608
     67  OE1      -13.6540    9.2610   38.3450 O.2    95  GLN95      -0.2717
     68  NE2      -12.0420    7.9790   37.4360 N.am   95  GLN95      -0.0878
     69  N        -18.3180    6.2210   37.7700 N.am   96  ASP96      -0.1960
     70  CA       -19.4650    6.2780   38.6710 C.3    96  ASP96       0.1840
     71  C        -19.5270    7.6450   39.3450 C.2    96  ASP96       0.2622
     72  O        -18.4990    8.2310   39.7050 O.2    96  ASP96      -0.2715
     73  CB       -19.3850    5.1890   39.7510 C.3    96  ASP96       0.1450
     74  CG       -19.5220    3.7890   39.1930 C.2    96  ASP96       0.3671
     75  OD1      -20.0420    3.6310   38.0640 O.co2  96  ASP96      -0.2456
     76  OD2      -19.1100    2.8430   39.8910 O.co2  96  ASP96      -0.2456
     77  N        -20.7410    8.1470   39.5320 N.am   97  LEU97      -0.1963
     78  CA       -20.9270    9.4460   40.1630 C.3    97  LEU97       0.1728
     79  C        -20.8860    9.2710   41.6750 C.2    97  LEU97       0.2616
     80  O        -21.6800    8.5120   42.2420 O.2    97  LEU97      -0.2715
     81  CB       -22.2540   10.0720   39.7290 C.3    97  LEU97       0.0311
     82  CG       -22.6050   11.3970   40.4170 C.3    97  LEU97       0.0022
     83  CD1      -21.6630   12.5130   39.9940 C.3    97  LEU97       0.0001
     84  CD2      -24.0690   11.7960   40.1710 C.3    97  LEU97       0.0001
     85  N        -19.9540    9.9590   42.3290 N.am   98  MET98      -0.1977
     86  CA       -19.7840    9.8610   43.7670 C.3    98  MET98       0.1605
     87  C        -20.1990   11.1780   44.4130 C.2    98  MET98       0.2287
     88  O        -19.7280   12.2450   44.0050 O.2    98  MET98      -0.2864
     89  CB       -18.3270    9.5040   44.0880 C.3    98  MET98       0.0413
     90  CG       -17.8670    8.2380   43.3860 C.3    98  MET98       0.0598
     91  SD       -18.6810    6.7450   44.0030 S.3    98  MET98      -0.1393
     92  CE       -17.7480    6.4810   45.5190 C.3    98  MET98       0.0692
     93  N        -19.5480   12.8720   47.0370 N.3   100  THR100     -0.1203
     94  CA       -18.6000   13.7940   47.6450 C.3   100  THR100      0.1994
     95  C        -17.2360   13.0990   47.7380 C.2   100  THR100      0.2617
     96  O        -17.0270   12.0100   47.1830 O.2   100  THR100     -0.2717
     97  CB       -19.1200   14.2770   49.0080 C.3   100  THR100      0.1784
     98  OG1      -18.3070   15.3550   49.4860 O.3   100  THR100     -0.2211
     99  CG2      -19.1300   13.1490   50.0430 C.3   100  THR100      0.0376
    100  N        -16.2900   13.7530   48.4090 N.am  101  ASP101     -0.1973
    101  CA       -15.0060   13.1240   48.7280 C.3   101  ASP101      0.1709
    102  C        -14.6930   13.4480   50.1840 C.2   101  ASP101      0.2293
    103  O        -15.3760   14.2670   50.8090 O.2   101  ASP101     -0.2864
    104  CB       -13.8800   13.5420   47.7460 C.3   101  ASP101      0.1436
    105  CG       -13.5090   15.0220   47.8220 C.2   101  ASP101      0.3671
    106  OD1      -13.2000   15.5100   48.9170 O.co2 101  ASP101     -0.2456
    107  OD2      -13.4790   15.6900   46.7690 O.co2 101  ASP101     -0.2456
    108  N        -13.9730   17.1670   51.1210 N.3   104  LYS104     -0.1245
    109  CA       -15.1660   18.0050   51.2100 C.3   104  LYS104      0.1561
    110  C        -16.0030   17.6200   52.4200 C.2   104  LYS104      0.2260
    111  O        -16.4890   18.4860   53.1550 O.2   104  LYS104     -0.2867
    112  CB       -15.9870   17.8950   49.9130 C.3   104  LYS104      0.0271
    113  CG       -15.2430   18.4530   48.6990 C.3   104  LYS104      0.0035
    114  CD       -16.0850   18.5040   47.4080 C.3   104  LYS104      0.0206
    115  CE       -16.5410   17.1170   46.9540 C.3   104  LYS104      0.1093
    116  NZ       -17.0830   17.1140   45.5410 N.3   104  LYS104     -0.1314
    117  N         -8.9520   14.1300   49.5720 N.3   143  SER143     -0.1202
    118  CA        -9.6160   14.4910   48.3200 C.3   143  SER143      0.2020
    119  C         -9.5330   13.4000   47.2490 C.2   143  SER143      0.2618
    120  O        -10.2950   13.4680   46.2790 O.2   143  SER143     -0.2717
    121  CB        -9.0480   15.8140   47.7900 C.3   143  SER143      0.2103
    122  OG        -7.6710   15.6710   47.4790 O.3   143  SER143     -0.2182
    123  N         -8.6570   12.3950   47.3960 N.am  144  ASN144     -0.1974
    124  CA        -8.6060   11.2480   46.5000 C.3   144  ASN144      0.1688
    125  C         -9.3720   10.0400   47.0450 C.2   144  ASN144      0.2292
    126  O         -9.1890    8.9150   46.5670 O.2   144  ASN144     -0.2864
    127  CB        -7.1450   10.9060   46.1850 C.3   144  ASN144      0.1181
    128  CG        -6.5250   11.9370   45.2680 C.2   144  ASN144      0.2629
    129  OD1       -7.2520   12.6190   44.5300 O.2   144  ASN144     -0.2716
    130  ND2       -5.1950   12.1030   45.3320 N.am  144  ASN144     -0.0877
    131  N        -13.1870    9.0710   47.2310 N.3   146  LEU146     -0.1245
    132  CA       -14.5420    9.4270   46.8340 C.3   146  LEU146      0.1561
    133  C        -15.5610    8.6380   47.6490 C.2   146  LEU146      0.2260
    134  O        -15.3300    7.4910   48.0140 O.2   146  LEU146     -0.2867
    135  CB       -14.7430    9.1530   45.3440 C.3   146  LEU146      0.0270
    136  CG       -13.7070    9.7830   44.4020 C.3   146  LEU146      0.0019
    137  CD1      -13.8680    9.2560   42.9630 C.3   146  LEU146      0.0001
    138  CD2      -13.8160   11.2860   44.4180 C.3   146  LEU146      0.0001
    139  N         -9.1580    7.1170   44.2300 N.3   155  CYS155     -0.1235
    140  CA        -9.0110    7.6130   42.8630 C.3   155  CYS155      0.1677
    141  C         -7.6730    8.3240   42.6960 C.2   155  CYS155      0.2270
    142  O         -6.8690    8.3990   43.6220 O.2   155  CYS155     -0.2867
    143  CB       -10.1620    8.5540   42.4960 C.3   155  CYS155      0.0956
    144  SG       -10.1450   10.1380   43.3650 S.3   155  CYS155     -0.0801
@<TRIPOS>BOND
     1    46    45    2
     2    45    44    1
     3    43    44    1
     4    44    47    1
     5    47    48    1
     6    41    40    2
     7    60    61    1
     8    40    39    1
     9    29    28    2
    10    31    32    1
    11    28    27    1
    12    48    49    1
    13    21    19   ar
    14    32    33    1
    15    32    35    1
    16    61    62    1
    17    61    64    1
    18    33    34    2
    19    38    39    1
    20    39    42    1
    21    63    62    2
    22    65    64    1
    23    65    66    1
    24    20    19   ar
    25    49    50    1
    26    62    69   am
    27    19    18    1
    28    50    51    1
    29    37    35    1
    30    27    26    1
    31    27    30    1
    32    68    66   am
    33    35    36    1
    34    66    67    2
    35    25    24    2
    36    26    24   am
    37    24    23    1
    38    69    70    1
    39    12    11    2
    40    22    23    1
    41    22    15   am
    42    75    74   ar
    43    18    17    1
    44     1     2    1
    45    14    17    1
    46    14    15    1
    47    14    13    1
    48    70    71    1
    49    70    73    1
    50    15    16    2
    51    11    13   am
    52    11    10    1
    53    74    73    1
    54    74    76   ar
    55    71    77   am
    56    71    72    2
    57     8     6    1
    58    55    54    2
    59     6     5    1
    60    77    78    1
    61     9    10    1
    62     9     3   am
    63    81    78    1
    64    81    82    1
    65    54    53    1
    66     2     5    1
    67     2     3    1
    68     5     7    1
    69    83    82    1
    70    78    79    1
    71    84    82    1
    72    57    59    1
    73    57    56    1
    74    58    56    1
    75     3     4    2
    76    56    53    1
    77    53    52    1
    78    79    80    2
    79    79    85   am
    80    85    86    1
    81   143   140    1
    82   143   144    1
    83   141   140    1
    84   141   142    2
    85   140   139    1
    86   137   136    1
    87    90    91    1
    88    90    89    1
    89    86    89    1
    90    86    87    1
    91    91    92    1
    92    88    87    2
    93   136   138    1
    94   136   135    1
    95   129   128    2
    96   128   130   am
    97   128   127    1
    98   135   132    1
    99   116   115    1
   100   127   124    1
   101   120   119    2
   102   124   125    1
   103   124   123    1
   104   126   125    2
   105   107   105   ar
   106   132   131    1
   107   132   133    1
   108   115   114    1
   109    93    94    1
   110    96    95    2
   111   119   123   am
   112   119   118    1
   113   114   113    1
   114   122   121    1
   115    94    95    1
   116    94    97    1
   117   133   134    2
   118    95   100   am
   119   104   105    1
   120   104   101    1
   121   121   118    1
   122   105   106   ar
   123   118   117    1
   124   100   101    1
   125   113   112    1
   126   101   102    1
   127    97    98    1
   128    97    99    1
   129   112   109    1
   130   102   103    2
   131   108   109    1
   132   109   110    1
   133   110   111    2
