@<TRIPOS>MOLECULE
tmp/6frvA00.pdb
 92 90 0 0 0
SMALL
GASTEIGER

@<TRIPOS>ATOM
      1  N         10.6510   -7.2140  -17.8970 N.3   170  TRP170     -0.1227
      2  CA        11.5780   -7.0880  -16.7560 C.3   170  TRP170      0.1737
      3  C         11.8290   -8.4250  -16.0420 C.2   170  TRP170      0.2595
      4  O         12.9810   -8.7430  -15.7350 O.2   170  TRP170     -0.2718
      5  CB        11.1260   -6.0170  -15.7390 C.3   170  TRP170      0.0564
      6  CG         9.9030   -6.3870  -14.9230 C.ar  170  TRP170      0.0003
      7  CD1        8.5960   -6.2100  -15.2750 C.ar  170  TRP170      0.0946
      8  CD2        9.8880   -7.0100  -13.6330 C.ar  170  TRP170      0.0152
      9  NE1        7.7690   -6.6710  -14.2850 N.ar  170  TRP170     -0.2442
     10  CE2        8.5340   -7.1700  -13.2640 C.ar  170  TRP170      0.0810
     11  CE3       10.8900   -7.4480  -12.7510 C.ar  170  TRP170      0.0012
     12  CZ2        8.1490   -7.7620  -12.0500 C.ar  170  TRP170      0.0191
     13  CZ3       10.5050   -8.0340  -11.5340 C.ar  170  TRP170      0.0001
     14  CH2        9.1450   -8.1860  -11.2010 C.ar  170  TRP170      0.0015
     15  N         10.7640   -9.2010  -15.8000 N.am  171  ASN171     -0.1960
     16  CA        10.8610  -10.4480  -15.0210 C.3   171  ASN171      0.1819
     17  C         11.4410  -11.6160  -15.8450 C.2   171  ASN171      0.2621
     18  O         11.7960  -12.6330  -15.2730 O.2   171  ASN171     -0.2715
     19  CB         9.4940  -10.8090  -14.3810 C.3   171  ASN171      0.1195
     20  CG         9.5960  -11.8410  -13.2350 C.2   171  ASN171      0.2630
     21  OD1        8.7560  -12.7230  -13.1380 O.2   171  ASN171     -0.2716
     22  ND2       10.6180  -11.7350  -12.3790 N.am  171  ASN171     -0.0877
     23  N         11.5310  -11.4790  -17.1730 N.am  172  GLN172     -0.1963
     24  CA        12.3200  -12.4200  -18.0080 C.3   172  GLN172      0.1733
     25  C         13.8340  -12.1750  -17.8940 C.2   172  GLN172      0.2617
     26  O         14.2850  -11.0650  -17.6360 O.2   172  GLN172     -0.2715
     27  CB        11.9000  -12.3540  -19.4880 C.3   172  GLN172      0.0408
     28  CG        10.4950  -12.8860  -19.7600 C.3   172  GLN172      0.0908
     29  CD        10.2360  -13.1740  -21.2320 C.2   172  GLN172      0.2608
     30  OE1       10.6180  -14.2260  -21.7520 O.2   172  GLN172     -0.2717
     31  NE2        9.5700  -12.2490  -21.9050 N.am  172  GLN172     -0.0878
     32  N         14.6060  -13.2300  -18.1180 N.am  173  THR173     -0.1951
     33  CA        16.0660  -13.2210  -17.9510 C.3   173  THR173      0.1897
     34  C         16.7830  -12.5640  -19.1440 C.2   173  THR173      0.2313
     35  O         16.1700  -12.2940  -20.1870 O.2   173  THR173     -0.2863
     36  CB        16.5920  -14.6630  -17.7500 C.3   173  THR173      0.1794
     37  OG1       15.6660  -15.5990  -18.3310 O.3   173  THR173     -0.2208
     38  CG2       16.7590  -14.9910  -16.2590 C.3   173  THR173      0.0378
     39  N         19.6780  -12.3970  -13.9430 N.3   184  SER184     -0.1217
     40  CA        19.0670  -11.1560  -13.5090 C.3   184  SER184      0.1889
     41  C         20.1940  -10.3090  -12.8950 C.2   184  SER184      0.2288
     42  O         20.8820  -10.7730  -11.9810 O.2   184  SER184     -0.2866
     43  CB        17.9710  -11.4580  -12.4810 C.3   184  SER184      0.2089
     44  OG        16.8750  -10.5670  -12.6090 O.3   184  SER184     -0.2183
     45  N          6.4910   -3.8570   -7.8830 N.3   219  GLU219     -0.1245
     46  CA         6.8530   -5.2580   -8.1150 C.3   219  GLU219      0.1567
     47  C          8.3410   -5.4160   -8.3990 C.2   219  GLU219      0.2260
     48  O          8.9640   -6.3740   -7.9310 O.2   219  GLU219     -0.2867
     49  CB         6.0580   -5.8680   -9.2890 C.3   219  GLU219      0.0388
     50  CG         4.5360   -5.8920   -9.1410 C.3   219  GLU219      0.1160
     51  CD         4.0310   -6.8820   -8.1000 C.2   219  GLU219      0.3649
     52  OE1        4.8440   -7.5320   -7.4000 O.co2 219  GLU219     -0.2457
     53  OE2        2.7960   -7.0060   -7.9790 O.co2 219  GLU219     -0.2457
     54  N         11.0710   -7.0560   -6.0280 N.3   223  TYR223     -0.1241
     55  CA        12.1540   -7.9360   -6.4720 C.3   223  TYR223      0.1605
     56  C         13.5390   -7.4070   -6.0820 C.2   223  TYR223      0.2264
     57  O         14.3690   -8.1670   -5.5810 O.2   223  TYR223     -0.2867
     58  CB        12.0710   -8.1680   -7.9830 C.3   223  TYR223      0.0534
     59  CG        13.1660   -9.0400   -8.5700 C.ar  223  TYR223     -0.0201
     60  CD1       13.6530  -10.1690   -7.8940 C.ar  223  TYR223     -0.0009
     61  CD2       13.7020   -8.7520   -9.8280 C.ar  223  TYR223     -0.0009
     62  CE1       14.6500  -10.9610   -8.4470 C.ar  223  TYR223      0.0417
     63  CE2       14.6950   -9.5400  -10.3820 C.ar  223  TYR223      0.0417
     64  CZ        15.1650  -10.6370   -9.6900 C.ar  223  TYR223      0.1957
     65  OH        16.1430  -11.4100  -10.2470 O.3   223  TYR223     -0.2866
     66  N         22.0440  -12.7370  -10.0420 N.3   237  PHE237     -0.1241
     67  CA        21.5520  -14.0740   -9.7130 C.3   237  PHE237      0.1605
     68  C         21.9310  -15.0400  -10.8370 C.2   237  PHE237      0.2264
     69  O         21.9230  -14.6570  -12.0100 O.2   237  PHE237     -0.2867
     70  CB        20.0400  -14.0770   -9.4740 C.3   237  PHE237      0.0534
     71  CG        19.6430  -13.5330   -8.1290 C.ar  237  PHE237     -0.0203
     72  CD1       20.1640  -14.0870   -6.9560 C.ar  237  PHE237     -0.0042
     73  CD2       18.7420  -12.4730   -8.0230 C.ar  237  PHE237     -0.0042
     74  CE1       19.8050  -13.5900   -5.7110 C.ar  237  PHE237     -0.0003
     75  CE2       18.3800  -11.9740   -6.7770 C.ar  237  PHE237     -0.0003
     76  CZ        18.9150  -12.5330   -5.6210 C.ar  237  PHE237     -0.0000
     77  N          6.0740  -10.1840   -3.3930 N.3   449  CYS449     -0.1221
     78  CA         6.6830   -9.9470   -4.7140 C.3   449  CYS449      0.1808
     79  C          6.1090  -10.8970   -5.7640 C.2   449  CYS449      0.2601
     80  O          6.4200  -12.0890   -5.7570 O.2   449  CYS449     -0.2717
     81  CB         8.2050  -10.1170   -4.6470 C.3   449  CYS449      0.0970
     82  SG         9.0640   -9.1210   -3.3980 S.3   449  CYS449     -0.0800
     83  N          5.2830  -10.3550   -6.6640 N.am  450  ALA450     -0.1965
     84  CA         4.5610  -11.1380   -7.6790 C.3   450  ALA450      0.1728
     85  C          5.2830  -11.1710   -9.0370 C.2   450  ALA450      0.2616
     86  O          5.3010  -10.1740   -9.7680 O.2   450  ALA450     -0.2715
     87  CB         3.1510  -10.5890   -7.8530 C.3   450  ALA450      0.0334
     88  N          5.8650  -12.3270   -9.3600 N.am  451  ALA451     -0.1977
     89  CA         6.5200  -12.5680  -10.6500 C.3   451  ALA451      0.1597
     90  C          5.5320  -12.4120  -11.8150 C.2   451  ALA451      0.2287
     91  O          4.9830  -13.3970  -12.3160 O.2   451  ALA451     -0.2864
     92  CB         7.1300  -13.9650  -10.6610 C.3   451  ALA451      0.0319
@<TRIPOS>BOND
     1    31    29   am
     2    30    29    2
     3    29    28    1
     4    35    34    2
     5    28    27    1
     6    27    24    1
     7    34    33    1
     8    37    36    1
     9    32    33    1
    10    32    25   am
    11    24    25    1
    12    24    23    1
    13    33    36    1
    14     1     2    1
    15    25    26    2
    16    36    38    1
    17    23    17   am
    18     2     3    1
    19     2     5    1
    20     3    15   am
    21     3     4    2
    22    17    18    2
    23    17    16    1
    24    15    16    1
    25     5     6    1
    26     7     6   ar
    27     7     9   ar
    28    16    19    1
    29     6     8   ar
    30    19    20    1
    31     9    10   ar
    32    39    40    1
    33     8    10   ar
    34     8    11   ar
    35    40    41    1
    36    40    43    1
    37    10    12   ar
    38    20    21    2
    39    20    22   am
    40    41    42    2
    41    11    13   ar
    42    44    43    1
    43    91    90    2
    44    12    14   ar
    45    69    68    2
    46    90    89    1
    47    13    14   ar
    48    68    67    1
    49    92    89    1
    50    89    88    1
    51    63    61   ar
    52    63    64   ar
    53    65    64    1
    54    66    67    1
    55    61    59   ar
    56    86    85    2
    57    67    70    1
    58    64    62   ar
    59    70    71    1
    60    88    85   am
    61    49    50    1
    62    49    46    1
    63    50    51    1
    64    85    84    1
    65    59    58    1
    66    59    60   ar
    67    62    60   ar
    68    47    46    1
    69    47    48    2
    70    71    73   ar
    71    71    72   ar
    72    46    45    1
    73    51    53   ar
    74    51    52   ar
    75    73    75   ar
    76    58    55    1
    77    87    84    1
    78    84    83    1
    79    72    74   ar
    80    75    76   ar
    81    83    79   am
    82    55    56    1
    83    55    54    1
    84    56    57    2
    85    79    80    2
    86    79    78    1
    87    74    76   ar
    88    78    81    1
    89    78    77    1
    90    81    82    1
