@<TRIPOS>MOLECULE
tmp/6frxA00.pdb
 176 168 0 0 0
SMALL
GASTEIGER

@<TRIPOS>ATOM
      1  N        -17.8910   -2.6740   -8.3950 N.3    36  ARG36      -0.1245
      2  CA       -16.5580   -3.2280   -8.5930 C.3    36  ARG36       0.1563
      3  C        -15.6170   -2.0980   -8.9750 C.2    36  ARG36       0.2260
      4  O        -16.0380   -1.0560   -9.4890 O.2    36  ARG36      -0.2867
      5  CB       -16.5400   -4.3290   -9.6690 C.3    36  ARG36       0.0307
      6  CG       -16.9490   -3.8370  -11.0810 C.3    36  ARG36       0.0489
      7  CD       -16.9280   -4.9590  -12.1460 C.3    36  ARG36       0.2205
      8  NE       -15.5970   -5.5460  -12.2500 N.pl3  36  ARG36      -0.0865
      9  CZ       -14.7390   -5.3540  -13.2500 C.cat  36  ARG36       0.5346
     10  NH1      -15.0620   -4.6100  -14.3140 N.pl3  36  ARG36       0.1354
     11  NH2      -13.5490   -5.9390  -13.1900 N.pl3  36  ARG36       0.1354
     12  N        -13.0710   -0.6830  -11.4870 N.3    38  LEU38      -0.1231
     13  CA       -12.9060   -0.8230  -12.9270 C.3    38  LEU38       0.1693
     14  C        -11.4680   -0.6390  -13.3880 C.2    38  LEU38       0.2593
     15  O        -11.0830   -1.1780  -14.4350 O.2    38  LEU38      -0.2718
     16  CB       -13.7850    0.1960  -13.6580 C.3    38  LEU38       0.0284
     17  CG       -15.3000    0.0690  -13.4970 C.3    38  LEU38       0.0019
     18  CD1      -15.9910    1.2490  -14.1570 C.3    38  LEU38       0.0001
     19  CD2      -15.7920   -1.2390  -14.1050 C.3    38  LEU38       0.0001
     20  N        -10.6820    0.1370  -12.6590 N.am   39  GLY39      -0.1942
     21  CA        -9.3180    0.4110  -13.0630 C.3    39  GLY39       0.2014
     22  C         -8.6840    1.3540  -12.0660 C.2    39  GLY39       0.2640
     23  O         -9.2870    1.7390  -11.0620 O.2    39  GLY39      -0.2714
     24  N         -7.4460    1.7270  -12.3540 N.am   40  THR40      -0.1936
     25  CA        -6.7230    2.6540  -11.4990 C.3    40  THR40       0.2028
     26  C         -6.1490    3.7790  -12.3490 C.2    40  THR40       0.2642
     27  O         -5.8280    3.5940  -13.5250 O.2    40  THR40      -0.2714
     28  CB        -5.6110    1.9470  -10.7000 C.3    40  THR40       0.1808
     29  OG1       -4.7540    1.2420  -11.5940 O.3    40  THR40      -0.2208
     30  CG2       -6.2080    0.9490   -9.7160 C.3    40  THR40       0.0379
     31  N         -6.0610    4.9600  -11.7470 N.am   41  GLY41      -0.1954
     32  CA        -5.5080    6.1160  -12.4180 C.3    41  GLY41       0.1869
     33  C         -4.3220    6.6710  -11.6640 C.2    41  GLY41       0.2309
     34  O         -3.8780    6.0820  -10.6720 O.2    41  GLY41      -0.2863
     35  N        -10.9940    4.0510  -10.4530 N.3    46  VAL46      -0.1245
     36  CA       -12.3040    4.2100  -11.0760 C.3    46  VAL46       0.1561
     37  C        -13.1620    3.0160  -10.6670 C.2    46  VAL46       0.2260
     38  O        -12.7380    1.8670  -10.8100 O.2    46  VAL46      -0.2867
     39  CB       -12.2250    4.3220  -12.6100 C.3    46  VAL46       0.0252
     40  CG1      -13.6070    4.6660  -13.1700 C.3    46  VAL46       0.0019
     41  CG2      -11.2150    5.3790  -13.0190 C.3    46  VAL46       0.0019
     42  N        -19.6270    5.2450  -13.6930 N.3    59  ALA59      -0.1245
     43  CA       -18.2230    5.1050  -13.3330 C.3    59  ALA59       0.1562
     44  C        -17.8500    6.2740  -12.4330 C.2    59  ALA59       0.2260
     45  O        -18.1470    7.4230  -12.7570 O.2    59  ALA59      -0.2867
     46  CB       -17.3340    5.0750  -14.5800 C.3    59  ALA59       0.0290
     47  N        -17.5990   10.9940  -22.8280 N.3    93  VAL93      -0.1245
     48  CA       -18.2040   10.5530  -21.5770 C.3    93  VAL93       0.1561
     49  C        -18.7510   11.7610  -20.8310 C.2    93  VAL93       0.2260
     50  O        -18.0520   12.7620  -20.6490 O.2    93  VAL93      -0.2867
     51  CB       -17.1680    9.7930  -20.7340 C.3    93  VAL93       0.0252
     52  CG1      -17.6580    9.6130  -19.2940 C.3    93  VAL93       0.0019
     53  CG2      -16.8860    8.4560  -21.3650 C.3    93  VAL93       0.0019
     54  N        -19.2080    9.6430  -13.5860 N.3   109  LEU109     -0.1231
     55  CA       -19.1980    9.7060  -15.0360 C.3   109  LEU109      0.1693
     56  C        -20.1420    8.6760  -15.6520 C.2   109  LEU109      0.2592
     57  O        -20.4260    7.6240  -15.0670 O.2   109  LEU109     -0.2718
     58  CB       -17.7720    9.4920  -15.5450 C.3   109  LEU109      0.0284
     59  CG       -16.7620   10.4820  -14.9620 C.3   109  LEU109      0.0019
     60  CD1      -15.4340    9.8090  -14.7050 C.3   109  LEU109      0.0001
     61  CD2      -16.5630   11.6700  -15.9060 C.3   109  LEU109      0.0001
     62  N        -20.6450    9.0130  -16.8340 N.am  110  GLU110     -0.1966
     63  CA       -21.3640    8.0660  -17.6720 C.3   110  GLU110      0.1733
     64  C        -20.5780    6.7680  -17.8190 C.2   110  GLU110      0.2616
     65  O        -19.3840    6.7820  -18.1340 O.2   110  GLU110     -0.2715
     66  CB       -21.6080    8.6970  -19.0460 C.3   110  GLU110      0.0429
     67  CG       -22.3770    7.8100  -20.0050 C.3   110  GLU110      0.1163
     68  CD       -22.6060    8.4730  -21.3530 C.2   110  GLU110      0.3649
     69  OE1      -21.8390    9.4000  -21.7050 O.co2 110  GLU110     -0.2457
     70  OE2      -23.5470    8.0520  -22.0660 O.co2 110  GLU110     -0.2457
     71  N        -21.2540    5.6460  -17.5700 N.am  111  TYR111     -0.1960
     72  CA       -20.6430    4.3240  -17.6310 C.3   111  TYR111      0.1771
     73  C        -20.6830    3.7850  -19.0560 C.2   111  TYR111      0.2619
     74  O        -21.7280    3.8120  -19.7050 O.2   111  TYR111     -0.2715
     75  CB       -21.3700    3.3570  -16.6930 C.3   111  TYR111      0.0574
     76  CG       -20.8440    1.9420  -16.7290 C.ar  111  TYR111     -0.0198
     77  CD1      -19.5180    1.6680  -16.4410 C.ar  111  TYR111     -0.0009
     78  CD2      -21.6800    0.8740  -17.0350 C.ar  111  TYR111     -0.0009
     79  CE1      -19.0350    0.3830  -16.4620 C.ar  111  TYR111      0.0417
     80  CE2      -21.2010   -0.4260  -17.0600 C.ar  111  TYR111      0.0417
     81  CZ       -19.8800   -0.6640  -16.7720 C.ar  111  TYR111      0.1957
     82  OH       -19.3980   -1.9510  -16.7940 O.3   111  TYR111     -0.2866
     83  N        -19.5430    3.2920  -19.5310 N.am  112  ALA112     -0.1964
     84  CA       -19.4730    2.6470  -20.8380 C.3   112  ALA112      0.1713
     85  C        -19.3130    1.1480  -20.6270 C.2   112  ALA112      0.2458
     86  O        -18.2220    0.6910  -20.2410 O.2   112  ALA112     -0.2730
     87  CB       -18.3130    3.2050  -21.6610 C.3   112  ALA112      0.0333
     88  N        -20.3610    0.3500  -20.8580 N.am  113  PRO113     -0.2727
     89  CA       -20.3180   -1.0690  -20.4670 C.3   113  PRO113      0.1402
     90  C        -19.4110   -1.9320  -21.3190 C.2   113  PRO113      0.2269
     91  O        -19.1620   -3.0810  -20.9320 O.2   113  PRO113     -0.2865
     92  CB       -21.7800   -1.5150  -20.6020 C.3   113  PRO113      0.0296
     93  CG       -22.3810   -0.5840  -21.5610 C.3   113  PRO113      0.0237
     94  CD       -21.6770    0.7400  -21.3910 C.3   113  PRO113      0.0939
     95  N        -16.1910   -1.3730  -21.9370 N.3   115  GLY115     -0.1210
     96  CA       -14.8290   -1.4130  -21.4500 C.3   115  GLY115      0.1956
     97  C        -13.8780   -0.6070  -22.3190 C.2   115  GLY115      0.2611
     98  O        -14.2770    0.2400  -23.1190 O.2   115  GLY115     -0.2717
     99  N        -12.5930   -0.9120  -22.1650 N.am  116  GLU116     -0.1979
    100  CA       -11.5140   -0.1100  -22.7160 C.3   116  GLU116      0.1602
    101  C        -11.1790   -0.5640  -24.1290 C.2   116  GLU116      0.2287
    102  O        -11.0120   -1.7660  -24.3740 O.2   116  GLU116     -0.2864
    103  CB       -10.2730   -0.2310  -21.8260 C.3   116  GLU116      0.0415
    104  CG       -10.4890    0.2610  -20.3980 C.3   116  GLU116      0.1163
    105  CD        -9.4210   -0.2150  -19.4430 C.2   116  GLU116      0.3649
    106  OE1       -8.2990    0.3540  -19.4490 O.co2 116  GLU116     -0.2457
    107  OE2       -9.7020   -1.1750  -18.6920 O.co2 116  GLU116     -0.2457
    108  N         -5.9090    3.9240  -24.4200 N.3   158  GLU158     -0.1231
    109  CA        -6.2750    3.8290  -23.0060 C.3   158  GLU158      0.1699
    110  C         -7.4260    4.7450  -22.6300 C.2   158  GLU158      0.2592
    111  O         -8.0970    4.4870  -21.6270 O.2   158  GLU158     -0.2718
    112  CB        -5.0850    4.1620  -22.1060 C.3   158  GLU158      0.0402
    113  CG        -3.9900    3.1260  -22.1250 C.3   158  GLU158      0.1161
    114  CD        -2.9900    3.3440  -23.2350 C.2   158  GLU158      0.3649
    115  OE1       -3.4080    3.6780  -24.3650 O.co2 158  GLU158     -0.2457
    116  OE2       -1.7760    3.1770  -22.9720 O.co2 158  GLU158     -0.2457
    117  N         -7.6460    5.8270  -23.3730 N.am  159  ASN159     -0.1974
    118  CA        -8.6300    6.8320  -22.9880 C.3   159  ASN159      0.1688
    119  C         -9.9150    6.7270  -23.7900 C.2   159  ASN159      0.2292
    120  O        -10.7600    7.6170  -23.7030 O.2   159  ASN159     -0.2864
    121  CB        -8.0410    8.2370  -23.1310 C.3   159  ASN159      0.1181
    122  CG        -7.0860    8.5830  -22.0040 C.2   159  ASN159      0.2629
    123  OD1       -7.0680    7.9190  -20.9650 O.2   159  ASN159     -0.2716
    124  ND2       -6.3310    9.6440  -22.1790 N.am  159  ASN159     -0.0877
    125  N        -13.3020    4.4170  -24.5780 N.3   161  LEU161     -0.1245
    126  CA       -14.1490    3.3470  -24.0900 C.3   161  LEU161      0.1561
    127  C        -15.1740    2.9670  -25.1560 C.2   161  LEU161      0.2260
    128  O        -15.4820    3.7460  -26.0620 O.2   161  LEU161     -0.2867
    129  CB       -14.8520    3.7750  -22.8020 C.3   161  LEU161      0.0270
    130  CG       -13.9420    4.4020  -21.7460 C.3   161  LEU161      0.0019
    131  CD1      -14.7870    4.9500  -20.6220 C.3   161  LEU161      0.0001
    132  CD2      -12.9580    3.3780  -21.2150 C.3   161  LEU161      0.0001
    133  N        -12.9180    9.2460  -22.6600 N.3   171  ALA171     -0.1231
    134  CA       -12.8970    9.4130  -21.2260 C.3   171  ALA171      0.1694
    135  C        -11.6960   10.2670  -20.8410 C.2   171  ALA171      0.2592
    136  O        -10.7620   10.4820  -21.6170 O.2   171  ALA171     -0.2718
    137  CB       -12.8320    8.0430  -20.5420 C.3   171  ALA171      0.0304
    138  N        -11.7250   10.7330  -19.6160 N.am  172  ASP172     -0.1974
    139  CA       -10.5690   11.3810  -19.0180 C.3   172  ASP172      0.1709
    140  C        -10.1380   12.6540  -19.7200 C.2   172  ASP172      0.2293
    141  O         -9.4230   12.6460  -20.7320 O.2   172  ASP172     -0.2864
    142  CB        -9.3650   10.4580  -18.9150 C.3   172  ASP172      0.1436
    143  CG        -8.5640   10.7630  -17.6680 C.2   172  ASP172      0.3671
    144  OD1       -7.8050   11.7540  -17.6820 O.co2 172  ASP172     -0.2456
    145  OD2       -8.7630   10.0660  -16.6470 O.co2 172  ASP172     -0.2456
    146  N        -13.3620   -8.1110  -18.5470 N.3   309  PHE309     -0.1227
    147  CA       -12.6480   -6.9200  -18.1280 C.3   309  PHE309      0.1736
    148  C        -11.6010   -7.2840  -17.0820 C.2   309  PHE309      0.2595
    149  O        -11.6170   -8.3780  -16.5060 O.2   309  PHE309     -0.2718
    150  CB       -13.6260   -5.8970  -17.5710 C.3   309  PHE309      0.0547
    151  CG       -14.8130   -5.6640  -18.4530 C.ar  309  PHE309     -0.0202
    152  CD1      -14.6530   -5.5260  -19.8230 C.ar  309  PHE309     -0.0042
    153  CD2      -16.0950   -5.6010  -17.9180 C.ar  309  PHE309     -0.0042
    154  CE1      -15.7410   -5.3130  -20.6420 C.ar  309  PHE309     -0.0003
    155  CE2      -17.1910   -5.3900  -18.7330 C.ar  309  PHE309     -0.0003
    156  CZ       -17.0130   -5.2470  -20.0940 C.ar  309  PHE309     -0.0000
    157  N        -10.6750   -6.3560  -16.8430 N.am  310  ASP310     -0.1974
    158  CA        -9.5950   -6.6350  -15.9090 C.3   310  ASP310      0.1709
    159  C        -10.0870   -6.5380  -14.4740 C.2   310  ASP310      0.2293
    160  O        -10.9240   -5.6910  -14.1400 O.2   310  ASP310     -0.2864
    161  CB        -8.4220   -5.6900  -16.1360 C.3   310  ASP310      0.1436
    162  CG        -7.5120   -6.1690  -17.2520 C.2   310  ASP310      0.3671
    163  OD1       -7.2580   -7.3890  -17.3190 O.co2 310  ASP310     -0.2456
    164  OD2       -7.0720   -5.3440  -18.0710 O.co2 310  ASP310     -0.2456
    165  N         -9.4710   -6.0360  -10.3530 N.3   312  TYR312     -0.1241
    166  CA        -8.6370   -5.2930   -9.4230 C.3   312  TYR312      0.1605
    167  C         -9.0410   -5.6640   -8.0050 C.2   312  TYR312      0.2264
    168  O        -10.1630   -6.1110   -7.7570 O.2   312  TYR312     -0.2867
    169  CB        -8.7470   -3.7760   -9.6660 C.3   312  TYR312      0.0534
    170  CG        -8.2410   -3.3790  -11.0410 C.ar  312  TYR312     -0.0201
    171  CD1       -9.0600   -3.4980  -12.1570 C.ar  312  TYR312     -0.0009
    172  CD2       -6.9350   -2.9310  -11.2300 C.ar  312  TYR312     -0.0009
    173  CE1       -8.6230   -3.1680  -13.4050 C.ar  312  TYR312      0.0417
    174  CE2       -6.4730   -2.5920  -12.4990 C.ar  312  TYR312      0.0417
    175  CZ        -7.3280   -2.7170  -13.5810 C.ar  312  TYR312      0.1957
    176  OH        -6.9160   -2.3960  -14.8560 O.3   312  TYR312     -0.2866
@<TRIPOS>BOND
     1   128   127    2
     2   127   126    1
     3   125   126    1
     4   108   109    1
     5   102   101    2
     6   115   114   ar
     7   101   100    1
     8   126   129    1
     9   119   120    2
    10   119   118    1
    11   117   118    1
    12   117   110   am
    13   114   116   ar
    14   114   113    1
    15   121   118    1
    16   121   122    1
    17    98    97    2
    18   109   110    1
    19   109   112    1
    20    47    48    1
    21   129   130    1
    22   100    99    1
    23   100   103    1
    24   133   134    1
    25   110   111    2
    26    97    99   am
    27    97    96    1
    28   124   122   am
    29   113   112    1
    30    70    68   ar
    31   122   123    2
    32    95    96    1
    33   103   104    1
    34   130   132    1
    35   130   131    1
    36    69    68   ar
    37    87    84    1
    38   136   135    2
    39    48    49    1
    40    48    51    1
    41    93    94    1
    42    93    92    1
    43    94    88    1
    44    53    51    1
    45    68    67    1
    46    90    91    2
    47    90    89    1
    48   134   135    1
    49   134   137    1
    50    88    85   am
    51    88    89    1
    52   135   138   am
    53    84    85    1
    54    84    83    1
    55    49    50    2
    56    51    52    1
    57   141   140    2
    58   154   156   ar
    59   154   152   ar
    60    85    86    2
    61    92    89    1
    62   104   105    1
    63   156   155   ar
    64    67    66    1
    65   152   151   ar
    66   140   139    1
    67    74    73    2
    68   138   139    1
    69    83    73   am
    70   106   105   ar
    71   105   107   ar
    72    73    72    1
    73    66    63    1
    74   139   142    1
    75   142   143    1
    76   155   153   ar
    77   146   147    1
    78   151   153   ar
    79   151   150    1
    80    65    64    2
    81   147   150    1
    82   147   148    1
    83   164   162   ar
    84    64    63    1
    85    64    71   am
    86   144   143   ar
    87    63    62    1
    88   143   145   ar
    89    72    71    1
    90    72    75    1
    91   163   162   ar
    92   162   161    1
    93   148   157   am
    94   148   149    2
    95    80    78   ar
    96    80    81   ar
    97    78    76   ar
    98   157   158    1
    99    62    56   am
   100    82    81    1
   101    81    79   ar
   102    76    75    1
   103    76    77   ar
   104    79    77   ar
   105   161   158    1
   106   158   159    1
   107    61    59    1
   108    56    57    2
   109    56    55    1
   110    58    55    1
   111    58    59    1
   112    55    54    1
   113    59    60    1
   114   176   175    1
   115    46    43    1
   116   159   160    2
   117    15    14    2
   118    10     9    1
   119    18    17    1
   120    19    17    1
   121    42    43    1
   122    16    17    1
   123    16    13    1
   124   175   173   ar
   125   175   174   ar
   126    27    26    2
   127   173   171   ar
   128    14    13    1
   129    14    20   am
   130    43    44    1
   131     9    11    1
   132     9     8    2
   133    40    39    1
   134    21    20    1
   135    21    22    1
   136    41    39    1
   137    13    12    1
   138    45    44    2
   139    39    36    1
   140   174   172   ar
   141    32    31    1
   142    32    33    1
   143    24    22   am
   144    24    25    1
   145    26    31   am
   146    26    25    1
   147     8     7    1
   148   171   170   ar
   149     7     6    1
   150    22    23    2
   151    33    34    2
   152    29    28    1
   153    25    28    1
   154   172   170   ar
   155     6     5    1
   156    36    37    1
   157    36    35    1
   158   170   169    1
   159    38    37    2
   160    28    30    1
   161   165   166    1
   162     5     2    1
   163   169   166    1
   164     4     3    2
   165   166   167    1
   166     3     2    1
   167     2     1    1
   168   167   168    2
