@<TRIPOS>MOLECULE
tmp/6frzA04.pdb
 112 108 0 0 0
SMALL
GASTEIGER

@<TRIPOS>ATOM
      1  N        -48.7390   -4.2760   19.8100 N.3    96  LEU96      -0.1231
      2  CA       -47.3620   -3.9930   20.2020 C.3    96  LEU96       0.1693
      3  C        -46.4050   -4.5660   19.1680 C.2    96  LEU96       0.2592
      4  O        -46.6580   -5.6330   18.5970 O.2    96  LEU96      -0.2718
      5  CB       -47.0290   -4.5510   21.5950 C.3    96  LEU96       0.0284
      6  CG       -47.7420   -3.9060   22.7820 C.3    96  LEU96       0.0019
      7  CD1      -47.4550   -4.6810   24.0770 C.3    96  LEU96       0.0001
      8  CD2      -47.3430   -2.4450   22.9830 C.3    96  LEU96       0.0001
      9  N        -45.3030   -3.8470   18.9520 N.am   97  TRP97      -0.1962
     10  CA       -44.3020   -4.1500   17.9350 C.3    97  TRP97       0.1771
     11  C        -43.0930   -4.7590   18.6400 C.2    97  TRP97       0.2619
     12  O        -43.2530   -5.4490   19.6450 O.2    97  TRP97      -0.2715
     13  CB       -44.0030   -2.8460   17.1710 C.3    97  TRP97       0.0590
     14  CG       -42.9480   -2.8060   16.1110 C.ar   97  TRP97       0.0006
     15  CD1      -42.9910   -3.3990   14.8890 C.ar   97  TRP97       0.0946
     16  CD2      -41.7340   -2.0500   16.1540 C.ar   97  TRP97       0.0152
     17  NE1      -41.8600   -3.0780   14.1680 N.ar   97  TRP97      -0.2442
     18  CE2      -41.0720   -2.2500   14.9270 C.ar   97  TRP97       0.0810
     19  CE3      -41.1360   -1.2310   17.1200 C.ar   97  TRP97       0.0012
     20  CZ2      -39.8320   -1.6740   14.6430 C.ar   97  TRP97       0.0191
     21  CZ3      -39.9060   -0.6620   16.8370 C.ar   97  TRP97       0.0001
     22  CH2      -39.2730   -0.8770   15.6020 C.ar   97  TRP97       0.0015
     23  N        -41.8770   -4.5130   18.1720 N.am   98  GLU98      -0.1977
     24  CA       -40.7550   -5.2680   18.6940 C.3    98  GLU98       0.1602
     25  C        -40.0220   -4.5640   19.8320 C.2    98  GLU98       0.2287
     26  O        -38.9950   -5.0780   20.2810 O.2    98  GLU98      -0.2864
     27  CB       -39.7830   -5.6110   17.5540 C.3    98  GLU98       0.0415
     28  CG       -39.1200   -4.4040   16.9000 C.3    98  GLU98       0.1163
     29  CD       -37.9050   -4.7870   16.0590 C.2    98  GLU98       0.3649
     30  OE1      -36.7960   -4.8980   16.6270 O.co2  98  GLU98      -0.2457
     31  OE2      -38.0600   -4.9810   14.8330 O.co2  98  GLU98      -0.2457
     32  N        -41.4660   -3.1340   23.1420 N.3   100  PRO100     -0.2116
     33  CA       -42.3450   -2.7280   24.2590 C.3   100  PRO100      0.1372
     34  C        -41.5350   -2.3310   25.4800 C.2   100  PRO100      0.2244
     35  O        -40.5440   -2.9860   25.8240 O.2   100  PRO100     -0.2868
     36  CB       -43.1810   -3.9850   24.5360 C.3   100  PRO100      0.0268
     37  CG       -42.2920   -5.1230   24.0880 C.3   100  PRO100      0.0207
     38  CD       -41.6010   -4.5750   22.8440 C.3   100  PRO100      0.0892
     39  N        -44.2130   -4.8700   29.0080 N.3   105  ARG105     -0.1245
     40  CA       -43.6660   -6.2200   29.1230 C.3   105  ARG105      0.1563
     41  C        -44.0480   -6.9110   30.4190 C.2   105  ARG105      0.2260
     42  O        -43.9670   -8.1400   30.4920 O.2   105  ARG105     -0.2867
     43  CB       -42.1310   -6.1950   29.0140 C.3   105  ARG105      0.0307
     44  CG       -41.6130   -5.4550   27.8080 C.3   105  ARG105      0.0489
     45  CD       -40.1130   -5.6560   27.5420 C.3   105  ARG105      0.2205
     46  NE       -39.5610   -6.9100   28.0320 N.pl3 105  ARG105     -0.0865
     47  CZ       -38.3320   -7.0430   28.5210 C.cat 105  ARG105      0.5346
     48  NH1      -37.9060   -8.2310   28.9370 N.pl3 105  ARG105      0.1354
     49  NH2      -37.5260   -5.9900   28.5850 N.pl3 105  ARG105      0.1354
     50  N        -49.0680   -6.9720   15.6340 N.3   136  VAL136     -0.1231
     51  CA       -48.2580   -7.8040   16.5260 C.3   136  VAL136      0.1692
     52  C        -46.9670   -8.1810   15.8080 C.2   136  VAL136      0.2591
     53  O        -46.8220   -7.9850   14.6000 O.2   136  VAL136     -0.2718
     54  CB       -49.0090   -9.0710   16.9780 C.3   136  VAL136      0.0266
     55  CG1      -50.2910   -8.6970   17.6740 C.3   136  VAL136      0.0020
     56  CG2      -49.3330   -9.9250   15.7650 C.3   136  VAL136      0.0020
     57  N        -46.0140   -8.7350   16.5610 N.am  137  ALA137     -0.1980
     58  CA       -44.7040   -8.9910   15.9750 C.3   137  ALA137      0.1597
     59  C        -44.0230  -10.1930   16.6140 C.2   137  ALA137      0.2287
     60  O        -44.0830  -10.3850   17.8300 O.2   137  ALA137     -0.2864
     61  CB       -43.7950   -7.7660   16.1380 C.3   137  ALA137      0.0319
     62  N        -39.9260  -12.1910   15.9390 N.3   139  GLN139     -0.1245
     63  CA       -38.6630  -12.2080   15.1930 C.3   139  GLN139      0.1566
     64  C        -38.0470  -13.5870   15.3910 C.2   139  GLN139      0.2260
     65  O        -37.1330  -13.7500   16.2010 O.2   139  GLN139     -0.2867
     66  CB       -37.7080  -11.1030   15.6570 C.3   139  GLN139      0.0367
     67  CG       -38.3340   -9.7500   15.8720 C.3   139  GLN139      0.0905
     68  CD       -37.5130   -8.9030   16.8230 C.2   139  GLN139      0.2608
     69  OE1      -37.6640   -8.9930   18.0400 O.2   139  GLN139     -0.2717
     70  NE2      -36.6210   -8.0890   16.2690 N.am  139  GLN139     -0.0878
     71  N        -41.0750  -14.8800   21.9270 N.3   143  THR143     -0.1218
     72  CA       -40.8010  -14.8140   23.3500 C.3   143  THR143      0.1862
     73  C        -42.0710  -15.1290   24.1400 C.2   143  THR143      0.2287
     74  O        -43.1790  -15.0620   23.6140 O.2   143  THR143     -0.2866
     75  CB       -40.2890  -13.4270   23.7410 C.3   143  THR143      0.1770
     76  OG1      -41.3350  -12.4600   23.5570 O.3   143  THR143     -0.2211
     77  CG2      -39.0800  -13.0220   22.9020 C.3   143  THR143      0.0375
     78  N        -43.4870  -13.2170   26.2570 N.3   145  PHE145     -0.1227
     79  CA       -44.3250  -12.0230   26.1970 C.3   145  PHE145      0.1736
     80  C        -45.0180  -11.8980   24.8480 C.2   145  PHE145      0.2595
     81  O        -46.1870  -11.5040   24.7810 O.2   145  PHE145     -0.2718
     82  CB       -43.5030  -10.7710   26.4740 C.3   145  PHE145      0.0547
     83  CG       -44.3190   -9.5170   26.4370 C.ar  145  PHE145     -0.0202
     84  CD1      -45.2880   -9.2900   27.3980 C.ar  145  PHE145     -0.0042
     85  CD2      -44.1510   -8.5870   25.4200 C.ar  145  PHE145     -0.0042
     86  CE1      -46.0710   -8.1550   27.3590 C.ar  145  PHE145     -0.0003
     87  CE2      -44.9350   -7.4400   25.3760 C.ar  145  PHE145     -0.0003
     88  CZ       -45.8920   -7.2230   26.3610 C.ar  145  PHE145     -0.0000
     89  N        -44.3100  -12.2110   23.7630 N.am  146  GLN146     -0.1979
     90  CA       -44.9250  -12.1020   22.4440 C.3   146  GLN146      0.1601
     91  C        -46.0800  -13.0800   22.3000 C.2   146  GLN146      0.2287
     92  O        -47.0890  -12.7670   21.6550 O.2   146  GLN146     -0.2864
     93  CB       -43.8800  -12.3290   21.3540 C.3   146  GLN146      0.0394
     94  CG       -42.9910  -11.1130   21.1590 C.3   146  GLN146      0.0908
     95  CD       -41.7120  -11.4080   20.3960 C.2   146  GLN146      0.2608
     96  OE1      -41.3840  -12.5580   20.1360 O.2   146  GLN146     -0.2717
     97  NE2      -40.9900  -10.3540   20.0180 N.am  146  GLN146     -0.0878
     98  N        -48.9330  -11.2560   23.7070 N.3   149  VAL149     -0.1231
     99  CA       -49.4470  -10.2300   22.8070 C.3   149  VAL149      0.1692
    100  C        -50.2930  -10.8500   21.7000 C.2   149  VAL149      0.2591
    101  O        -51.3550  -10.3180   21.3470 O.2   149  VAL149     -0.2718
    102  CB       -48.3010   -9.4060   22.2130 C.3   149  VAL149      0.0266
    103  CG1      -48.8950   -8.3980   21.2140 C.3   149  VAL149      0.0020
    104  CG2      -47.5430   -8.6860   23.3120 C.3   149  VAL149      0.0020
    105  N        -49.8240  -11.9630   21.1150 N.am  150  LEU150     -0.1980
    106  CA       -50.5880  -12.6150   20.0520 C.3   150  LEU150      0.1596
    107  C        -51.9510  -13.0650   20.5590 C.2   150  LEU150      0.2287
    108  O        -52.9620  -12.9190   19.8620 O.2   150  LEU150     -0.2864
    109  CB       -49.8210  -13.8180   19.4900 C.3   150  LEU150      0.0297
    110  CG       -48.5000  -13.5280   18.7830 C.3   150  LEU150      0.0022
    111  CD1      -47.7240  -14.8160   18.4750 C.3   150  LEU150      0.0001
    112  CD2      -48.7850  -12.7940   17.5240 C.3   150  LEU150      0.0001
@<TRIPOS>BOND
     1    17    15   ar
     2    17    18   ar
     3    53    52    2
     4    20    18   ar
     5    20    22   ar
     6    31    29   ar
     7    15    14   ar
     8    18    16   ar
     9    63    64    1
    10    63    66    1
    11    63    62    1
    12    64    65    2
    13    22    21   ar
    14    50    51    1
    15    66    67    1
    16    56    54    1
    17    52    51    1
    18    52    57   am
    19    67    68    1
    20    58    61    1
    21    58    57    1
    22    58    59    1
    23    29    30   ar
    24    29    28    1
    25    14    16   ar
    26    14    13    1
    27    16    19   ar
    28    70    68   am
    29    51    54    1
    30    59    60    2
    31    68    69    2
    32    21    19   ar
    33    28    27    1
    34    54    55    1
    35    13    10    1
    36   112   110    1
    37    27    24    1
    38    10    11    1
    39    10     9    1
    40    23    11   am
    41    23    24    1
    42   111   110    1
    43     4     3    2
    44    11    12    2
    45    24    25    1
    46   110   109    1
    47     9     3   am
    48     3     2    1
    49   109   106    1
    50     1     2    1
    51    25    26    2
    52   108   107    2
    53    97    95   am
    54   106   107    1
    55   106   105    1
    56    96    95    2
    57     2     5    1
    58    95    94    1
    59   105   100   am
    60    94    93    1
    61   103   102    1
    62   101   100    2
    63    93    90    1
    64     5     6    1
    65    92    91    2
    66   100    99    1
    67    71    72    1
    68   102    99    1
    69   102   104    1
    70    91    90    1
    71    90    89    1
    72     6     8    1
    73     6     7    1
    74    99    98    1
    75    38    32    1
    76    38    37    1
    77    77    75    1
    78    32    33    1
    79    72    75    1
    80    72    73    1
    81    76    75    1
    82    74    73    2
    83    89    80   am
    84    37    36    1
    85    33    36    1
    86    33    34    1
    87    81    80    2
    88    80    79    1
    89    87    85   ar
    90    87    88   ar
    91    85    83   ar
    92    34    35    2
    93    79    78    1
    94    79    82    1
    95    88    86   ar
    96    83    82    1
    97    83    84   ar
    98    86    84   ar
    99    45    44    1
   100    45    46    1
   101    44    43    1
   102    46    47    2
   103    47    49    1
   104    47    48    1
   105    39    40    1
   106    43    40    1
   107    40    41    1
   108    41    42    2
