@<TRIPOS>MOLECULE
tmp/6frzA00.pdb
 140 133 0 0 0
SMALL
GASTEIGER

@<TRIPOS>ATOM
      1  N        -49.8260   -1.5670    4.8510 N.3    21  HIS21      -0.1241
      2  CA       -48.7500   -1.6090    5.8460 C.3    21  HIS21       0.1621
      3  C        -47.8020   -0.4430    5.5590 C.2    21  HIS21       0.2264
      4  O        -46.9310   -0.5430    4.6780 O.2    21  HIS21      -0.2867
      5  CB       -48.0340   -2.9670    5.8280 C.3    21  HIS21       0.0745
      6  CG       -46.9490   -3.0880    6.8610 C.ar   21  HIS21       0.0817
      7  ND1      -46.8830   -4.1150    7.7860 N.ar   21  HIS21      -0.2268
      8  CD2      -45.8950   -2.2770    7.1280 C.ar   21  HIS21       0.1154
      9  CE1      -45.8270   -3.9380    8.5600 C.ar   21  HIS21       0.1986
     10  NE2      -45.2100   -2.8280    8.1810 N.ar   21  HIS21      -0.2212
     11  N        -46.0900    3.5490    7.4450 N.3    23  HIS23      -0.1241
     12  CA       -45.8000    4.3140    8.6550 C.3    23  HIS23       0.1621
     13  C        -45.6760    5.7820    8.2830 C.2    23  HIS23       0.2264
     14  O        -45.0070    6.1110    7.3020 O.2    23  HIS23      -0.2867
     15  CB       -44.4870    3.8490    9.3020 C.3    23  HIS23       0.0745
     16  CG       -44.4490    2.3890    9.6390 C.ar   23  HIS23       0.0817
     17  ND1      -44.8780    1.9090   10.8580 N.ar   23  HIS23      -0.2268
     18  CD2      -44.0070    1.3080    8.9430 C.ar   23  HIS23       0.1154
     19  CE1      -44.7230    0.5980   10.8930 C.ar   23  HIS23       0.1986
     20  NE2      -44.1930    0.2060    9.7460 N.ar   23  HIS23      -0.2212
     21  N        -41.6060    5.9990   11.9530 N.3    26  GLY26      -0.1225
     22  CA       -41.1650    4.8920   12.7790 C.3    26  GLY26       0.1811
     23  C        -40.2730    5.3840   13.8930 C.2    26  GLY26       0.2280
     24  O        -39.1530    5.8340   13.6430 O.2    26  GLY26      -0.2866
     25  N        -43.7770    1.6210   18.7200 N.3    72  ALA72      -0.1245
     26  CA       -43.1490    2.1680   17.5280 C.3    72  ALA72       0.1562
     27  C        -43.3620    3.6650   17.4220 C.2    72  ALA72       0.2260
     28  O        -43.1170    4.2510   16.3570 O.2    72  ALA72      -0.2867
     29  CB       -43.6780    1.4640   16.2740 C.3    72  ALA72       0.0290
     30  N        -45.3030   -3.8470   18.9520 N.3    97  TRP97      -0.1227
     31  CA       -44.3020   -4.1500   17.9350 C.3    97  TRP97       0.1737
     32  C        -43.0930   -4.7590   18.6400 C.2    97  TRP97       0.2595
     33  O        -43.2530   -5.4490   19.6450 O.2    97  TRP97      -0.2718
     34  CB       -44.0030   -2.8460   17.1710 C.3    97  TRP97       0.0564
     35  CG       -42.9480   -2.8060   16.1110 C.ar   97  TRP97       0.0003
     36  CD1      -42.9910   -3.3990   14.8890 C.ar   97  TRP97       0.0946
     37  CD2      -41.7340   -2.0500   16.1540 C.ar   97  TRP97       0.0152
     38  NE1      -41.8600   -3.0780   14.1680 N.ar   97  TRP97      -0.2442
     39  CE2      -41.0720   -2.2500   14.9270 C.ar   97  TRP97       0.0810
     40  CE3      -41.1360   -1.2310   17.1200 C.ar   97  TRP97       0.0012
     41  CZ2      -39.8320   -1.6740   14.6430 C.ar   97  TRP97       0.0191
     42  CZ3      -39.9060   -0.6620   16.8370 C.ar   97  TRP97       0.0001
     43  CH2      -39.2730   -0.8770   15.6020 C.ar   97  TRP97       0.0015
     44  N        -41.8770   -4.5130   18.1720 N.am   98  GLU98      -0.1979
     45  CA       -40.7550   -5.2680   18.6940 C.3    98  GLU98       0.1602
     46  C        -40.0220   -4.5640   19.8320 C.2    98  GLU98       0.2287
     47  O        -38.9950   -5.0780   20.2810 O.2    98  GLU98      -0.2864
     48  CB       -39.7830   -5.6110   17.5540 C.3    98  GLU98       0.0415
     49  CG       -39.1200   -4.4040   16.9000 C.3    98  GLU98       0.1163
     50  CD       -37.9050   -4.7870   16.0590 C.2    98  GLU98       0.3649
     51  OE1      -36.7960   -4.8980   16.6270 O.co2  98  GLU98      -0.2457
     52  OE2      -38.0600   -4.9810   14.8330 O.co2  98  GLU98      -0.2457
     53  N        -51.7470   -4.6490   15.5150 N.3   135  LYS135     -0.1245
     54  CA       -50.4360   -5.0400   15.0020 C.3   135  LYS135      0.1561
     55  C        -49.6890   -5.8580   16.0500 C.2   135  LYS135      0.2260
     56  O        -49.6630   -5.4820   17.2220 O.2   135  LYS135     -0.2867
     57  CB       -49.6260   -3.7850   14.6230 C.3   135  LYS135      0.0271
     58  CG       -48.1660   -4.0240   14.2990 C.3   135  LYS135      0.0035
     59  CD       -48.0940   -4.9390   13.0780 C.3   135  LYS135      0.0206
     60  CE       -46.7230   -4.9270   12.5200 C.3   135  LYS135      0.1093
     61  NZ       -46.4520   -3.5000   12.3380 N.3   135  LYS135     -0.1314
     62  N        -45.9160   -8.5360   12.0170 N.3   167  HIS167     -0.1241
     63  CA       -44.5210   -8.4520   11.6220 C.3   167  HIS167      0.1621
     64  C        -43.9130   -9.8450   11.7750 C.2   167  HIS167      0.2264
     65  O        -44.1200  -10.4900   12.8030 O.2   167  HIS167     -0.2867
     66  CB       -43.8350   -7.4260   12.5320 C.3   167  HIS167      0.0745
     67  CG       -42.3450   -7.3870   12.4260 C.ar  167  HIS167      0.0817
     68  ND1      -41.6700   -6.3400   11.8200 N.ar  167  HIS167     -0.2268
     69  CD2      -41.3970   -8.2300   12.9060 C.ar  167  HIS167      0.1154
     70  CE1      -40.3680   -6.5700   11.9070 C.ar  167  HIS167      0.1986
     71  NE2      -40.1770   -7.7070   12.5540 N.ar  167  HIS167     -0.2212
     72  N        -44.6570   -8.8790    6.1060 N.3   196  HIS196     -0.1241
     73  CA       -43.2570   -9.0200    5.6750 C.3   196  HIS196      0.1621
     74  C        -43.0300  -10.3350    4.9420 C.2   196  HIS196      0.2264
     75  O        -41.9120  -10.8540    4.9010 O.2   196  HIS196     -0.2867
     76  CB       -42.2770   -8.8590    6.8420 C.3   196  HIS196      0.0745
     77  CG       -42.4100   -7.5420    7.5560 C.ar  196  HIS196      0.0817
     78  ND1      -42.8970   -6.4070    6.9390 N.ar  196  HIS196     -0.2268
     79  CD2      -42.1300   -7.1900    8.8320 C.ar  196  HIS196      0.1154
     80  CE1      -42.9080   -5.4110    7.8110 C.ar  196  HIS196      0.1986
     81  NE2      -42.4440   -5.8600    8.9700 N.ar  196  HIS196     -0.2212
     82  N        -38.0380   -2.2460   -0.6040 N.3   223  HIS223     -0.1241
     83  CA       -36.9310   -2.3760    0.3370 C.3   223  HIS223      0.1621
     84  C        -35.8090   -3.1810   -0.3130 C.2   223  HIS223      0.2264
     85  O        -35.9220   -4.3990   -0.4700 O.2   223  HIS223     -0.2867
     86  CB       -37.3880   -3.0520    1.6240 C.3   223  HIS223      0.0745
     87  CG       -38.2610   -2.1930    2.4840 C.ar  223  HIS223      0.0817
     88  ND1      -38.0690   -2.0750    3.8440 N.ar  223  HIS223     -0.2268
     89  CD2      -39.3370   -1.4270    2.1880 C.ar  223  HIS223      0.1154
     90  CE1      -38.9820   -1.2620    4.3470 C.ar  223  HIS223      0.1986
     91  NE2      -39.7680   -0.8580    3.3640 N.ar  223  HIS223     -0.2212
     92  N        -30.6780   -4.0570    7.1140 N.3   237  LEU237     -0.1245
     93  CA       -32.0970   -3.7470    7.2640 C.3   237  LEU237      0.1561
     94  C        -32.8870   -4.0450    5.9940 C.2   237  LEU237      0.2260
     95  O        -33.9570   -4.6570    6.0580 O.2   237  LEU237     -0.2867
     96  CB       -32.2760   -2.2820    7.6600 C.3   237  LEU237      0.0270
     97  CG       -33.7270   -1.8220    7.8280 C.3   237  LEU237      0.0019
     98  CD1      -34.3160   -2.3890    9.1180 C.3   237  LEU237      0.0001
     99  CD2      -33.8230   -0.3100    7.7970 C.3   237  LEU237      0.0001
    100  N        -44.3130   -0.4700    3.0580 N.3   267  ASP267     -0.1239
    101  CA       -43.6760   -0.3530    4.3720 C.3   267  ASP267      0.1674
    102  C        -42.7360    0.8460    4.4050 C.2   267  ASP267      0.2266
    103  O        -41.5880    0.7570    4.8490 O.2   267  ASP267     -0.2867
    104  CB       -42.9410   -1.6390    4.7510 C.3   267  ASP267      0.1410
    105  CG       -42.6470   -1.7350    6.2520 C.2   267  ASP267      0.3668
    106  OD1      -43.2550   -1.0220    7.0590 O.co2 267  ASP267     -0.2456
    107  OD2      -41.8040   -2.5610    6.6010 O.co2 267  ASP267     -0.2456
    108  N        -41.8760    5.0480    5.3070 N.3   269  LEU269     -0.1245
    109  CA       -41.9930    5.9920    6.4090 C.3   269  LEU269      0.1561
    110  C        -41.4670    7.3380    5.9490 C.2   269  LEU269      0.2260
    111  O        -40.7580    7.4450    4.9460 O.2   269  LEU269     -0.2867
    112  CB       -41.2100    5.5670    7.6560 C.3   269  LEU269      0.0270
    113  CG       -40.5330    4.2150    7.7800 C.3   269  LEU269      0.0019
    114  CD1      -39.2840    4.1180    6.8960 C.3   269  LEU269      0.0001
    115  CD2      -40.2010    3.9930    9.2550 C.3   269  LEU269      0.0001
    116  N        -37.7700    8.1870   10.7780 N.3   272  PHE272     -0.1241
    117  CA       -37.3000    6.8570   11.1820 C.3   272  PHE272      0.1605
    118  C        -36.1940    7.0550   12.2210 C.2   272  PHE272      0.2264
    119  O        -35.0460    7.3230   11.8600 O.2   272  PHE272     -0.2867
    120  CB       -36.8200    6.0980    9.9430 C.3   272  PHE272      0.0534
    121  CG       -36.6080    4.6140   10.1310 C.ar  272  PHE272     -0.0203
    122  CD1      -36.8000    3.9840   11.3550 C.ar  272  PHE272     -0.0042
    123  CD2      -36.1920    3.8460    9.0510 C.ar  272  PHE272     -0.0042
    124  CE1      -36.5730    2.6190   11.4920 C.ar  272  PHE272     -0.0003
    125  CE2      -35.9750    2.4790    9.1810 C.ar  272  PHE272     -0.0003
    126  CZ       -36.1660    1.8650   10.4020 C.ar  272  PHE272     -0.0000
    127  N        -35.7950    4.7310   15.0200 N.3   274  SER274     -0.1217
    128  CA       -35.4990    3.5000   15.7480 C.3   274  SER274      0.1889
    129  C        -34.3810    2.6840   15.1090 C.2   274  SER274      0.2288
    130  O        -34.1990    1.5210   15.4690 O.2   274  SER274     -0.2866
    131  CB       -36.7670    2.6410   15.8780 C.3   274  SER274      0.2089
    132  OG       -37.4510    2.5660   14.6360 O.3   274  SER274     -0.2183
    133  N        -32.7340    5.4910    2.6670 N.3   283  MET283     -0.1245
    134  CA       -33.9240    4.8910    2.0690 C.3   283  MET283      0.1570
    135  C        -34.5390    5.8010    1.0160 C.2   283  MET283      0.2261
    136  O        -34.9250    5.3370   -0.0640 O.2   283  MET283     -0.2867
    137  CB       -34.9430    4.5580    3.1560 C.3   283  MET283      0.0387
    138  CG       -34.5440    3.3180    3.9150 C.3   283  MET283      0.0595
    139  SD       -35.6080    2.9860    5.3190 S.3   283  MET283     -0.1393
    140  CE       -37.0450    2.3610    4.4510 C.3   283  MET283      0.0692
@<TRIPOS>BOND
     1    82    83    1
     2    85    84    2
     3    84    83    1
     4   136   135    2
     5    83    86    1
     6   135   134    1
     7    86    87    1
     8   134   133    1
     9   134   137    1
    10    89    87   ar
    11    89    91   ar
    12    87    88   ar
    13   100   101    1
    14   137   138    1
    15    91    90   ar
    16    88    90   ar
    17   138   139    1
    18   101   102    1
    19   101   104    1
    20   102   103    2
    21   140   139    1
    22     4     3    2
    23   104   105    1
    24     1     2    1
    25    75    74    2
    26    74    73    1
    27   111   110    2
    28   108   109    1
    29     3     2    1
    30    73    72    1
    31    73    76    1
    32     5     2    1
    33     5     6    1
    34   110   109    1
    35    94    95    2
    36    94    93    1
    37   105   107   ar
    38   105   106   ar
    39   109   112    1
    40    76    77    1
    41     6     8   ar
    42     6     7   ar
    43   114   113    1
    44    78    77   ar
    45    78    80   ar
    46    92    93    1
    47     8    10   ar
    48    93    96    1
    49    14    13    2
    50    11    12    1
    51    77    79   ar
    52   112   113    1
    53    96    97    1
    54   113   115    1
    55     7     9   ar
    56    99    97    1
    57    80    81   ar
    58    97    98    1
    59    10     9   ar
    60    13    12    1
    61    12    15    1
    62    79    81   ar
    63    18    16   ar
    64    18    20   ar
    65   123   125   ar
    66   123   121   ar
    67   125   126   ar
    68    15    16    1
    69    16    17   ar
    70    20    19   ar
    71   120   121    1
    72   120   117    1
    73   121   122   ar
    74   126   124   ar
    75   116   117    1
    76    17    19   ar
    77   117   118    1
    78   122   124   ar
    79    63    64    1
    80    63    62    1
    81    63    66    1
    82    64    65    2
    83    68    70   ar
    84    68    67   ar
    85   119   118    2
    86    70    71   ar
    87    21    22    1
    88    61    60    1
    89    67    66    1
    90    67    69   ar
    91    60    59    1
    92    71    69   ar
    93    22    23    1
    94    59    58    1
    95    24    23    2
    96    38    36   ar
    97    38    39   ar
    98    58    57    1
    99    57    54    1
   100   132   131    1
   101    41    39   ar
   102    41    43   ar
   103    52    50   ar
   104    36    35   ar
   105    39    37   ar
   106    54    53    1
   107    54    55    1
   108   127   128    1
   109   129   130    2
   110   129   128    1
   111    43    42   ar
   112   128   131    1
   113    55    56    2
   114    50    51   ar
   115    50    49    1
   116    35    37   ar
   117    35    34    1
   118    37    40   ar
   119    29    26    1
   120    28    27    2
   121    42    40   ar
   122    49    48    1
   123    34    31    1
   124    27    26    1
   125    26    25    1
   126    48    45    1
   127    31    32    1
   128    31    30    1
   129    44    32   am
   130    44    45    1
   131    32    33    2
   132    45    46    1
   133    46    47    2
