@<TRIPOS>MOLECULE
tmp/6fs2B00.pdb
 88 83 0 0 0
SMALL
GASTEIGER

@<TRIPOS>ATOM
      1  N          2.4620    5.5190  -14.5960 N.3    58  MET58      -0.1245
      2  CA         1.2910    5.8980  -13.7960 C.3    58  MET58       0.1570
      3  C          1.5530    7.2060  -13.0210 C.2    58  MET58       0.2261
      4  O          0.7120    8.1030  -13.0530 O.2    58  MET58      -0.2867
      5  CB         0.7920    4.7460  -12.9060 C.3    58  MET58       0.0387
      6  CG        -0.6240    4.9630  -12.3400 C.3    58  MET58       0.0595
      7  SD        -1.8720    5.7690  -13.4130 S.3    58  MET58      -0.1393
      8  CE        -2.0270    4.5550  -14.8000 C.3    58  MET58       0.0692
      9  N          1.4080   10.1510  -15.4390 N.3    61  LYS61      -0.1231
     10  CA        -0.0020   10.3860  -15.7920 C.3    61  LYS61       0.1693
     11  C         -0.7020   11.1250  -14.6920 C.2    61  LYS61       0.2591
     12  O         -1.4240   12.0650  -14.9730 O.2    61  LYS61      -0.2718
     13  CB        -0.7310    9.0680  -16.1200 C.3    61  LYS61       0.0285
     14  CG        -1.5590    9.1190  -17.3970 C.3    61  LYS61       0.0035
     15  CD        -1.6550    7.7240  -18.0710 C.3    61  LYS61       0.0206
     16  CE        -1.8760    7.7390  -19.5780 C.3    61  LYS61       0.1093
     17  NZ        -1.1190    8.8330  -20.2930 N.3    61  LYS61      -0.1314
     18  N         -0.4310   10.7550  -13.4330 N.am   62  LEU62      -0.1980
     19  CA        -1.0360   11.3920  -12.2770 C.3    62  LEU62       0.1596
     20  C         -0.4860   12.7940  -12.0220 C.2    62  LEU62       0.2287
     21  O         -1.1340   13.5820  -11.3250 O.2    62  LEU62      -0.2864
     22  CB        -0.9260   10.4880  -11.0320 C.3    62  LEU62       0.0297
     23  CG        -1.7620    9.1880  -11.0570 C.3    62  LEU62       0.0022
     24  CD1       -1.3830    8.2660   -9.9150 C.3    62  LEU62       0.0001
     25  CD2       -3.2500    9.4790  -11.0660 C.3    62  LEU62       0.0001
     26  N         -6.5230   14.7760   -3.9290 N.3    72  SER72      -0.1217
     27  CA        -7.2970   14.3590   -5.1030 C.3    72  SER72       0.1889
     28  C         -7.0060   12.8970   -5.6060 C.2    72  SER72       0.2288
     29  O         -7.7280   12.4170   -6.4850 O.2    72  SER72      -0.2866
     30  CB        -7.1140   15.3670   -6.2340 C.3    72  SER72       0.2089
     31  OG        -5.9150   15.0970   -6.9450 O.3    72  SER72      -0.2183
     32  N         -9.7340   10.0240   -5.5860 N.3    75  ARG75      -0.1231
     33  CA       -10.6430    9.8180   -6.7100 C.3    75  ARG75       0.1694
     34  C        -10.2890    8.6280   -7.5880 C.2    75  ARG75       0.2591
     35  O        -11.1710    7.8210   -7.8630 O.2    75  ARG75      -0.2718
     36  CB       -10.7840   11.0980   -7.5470 C.3    75  ARG75       0.0321
     37  CG       -11.3420   12.2900   -6.7700 C.3    75  ARG75       0.0489
     38  CD       -12.7860   12.1310   -6.2900 C.3    75  ARG75       0.2205
     39  NE       -13.0800   13.1050   -5.2350 N.pl3  75  ARG75      -0.0865
     40  CZ       -13.5950   14.3160   -5.4390 C.cat  75  ARG75       0.5346
     41  NH1      -13.7790   15.1460   -4.4180 N.pl3  75  ARG75       0.1354
     42  NH2      -13.9280   14.7050   -6.6630 N.pl3  75  ARG75       0.1354
     43  N         -9.0130    8.5230   -8.0300 N.am   76  VAL76      -0.1980
     44  CA        -8.4930    7.4470   -8.8890 C.3    76  VAL76       0.1595
     45  C         -8.5520    6.1180   -8.1650 C.2    76  VAL76       0.2287
     46  O         -8.8940    5.1210   -8.7890 O.2    76  VAL76      -0.2864
     47  CB        -7.0510    7.6770   -9.4000 C.3    76  VAL76       0.0276
     48  CG1       -6.8410    6.9890  -10.7430 C.3    76  VAL76       0.0022
     49  CG2       -6.6900    9.1540   -9.4670 C.3    76  VAL76       0.0022
     50  N        -11.9450    4.8750   -8.1020 N.3    79  HIS79      -0.1226
     51  CA       -12.2120    4.3290   -9.4400 C.3    79  HIS79       0.1752
     52  C        -11.5600    2.9600   -9.7080 C.2    79  HIS79       0.2595
     53  O        -12.2080    2.1050  -10.3010 O.2    79  HIS79      -0.2718
     54  CB       -11.8420    5.3320  -10.5420 C.3    79  HIS79       0.0759
     55  CG       -11.9600    4.7890  -11.9410 C.ar   79  HIS79       0.0818
     56  ND1      -13.2000    4.6390  -12.5660 N.ar   79  HIS79      -0.2268
     57  CD2      -10.9880    4.3790  -12.7960 C.ar   79  HIS79       0.1154
     58  CE1      -12.9380    4.1520  -13.7690 C.ar   79  HIS79       0.1986
     59  NE2      -11.6260    3.9690  -13.9550 N.ar   79  HIS79      -0.2212
     60  N        -10.2900    2.7640   -9.3080 N.am   80  VAL80      -0.1980
     61  CA        -9.5400    1.5220   -9.5780 C.3    80  VAL80       0.1595
     62  C         -9.9650    0.4140   -8.6210 C.2    80  VAL80       0.2287
     63  O        -10.3860   -0.6350   -9.0810 O.2    80  VAL80      -0.2864
     64  CB        -7.9920    1.7110   -9.6390 C.3    80  VAL80       0.0276
     65  CG1       -7.3090    0.4410  -10.1010 C.3    80  VAL80       0.0022
     66  CG2       -7.6090    2.8450  -10.5710 C.3    80  VAL80       0.0022
     67  N         -3.5420   -7.5100   -5.4530 N.3    90  ARG90      -0.1245
     68  CA        -4.0830   -6.1920   -5.7590 C.3    90  ARG90       0.1563
     69  C         -3.8640   -5.2440   -4.5500 C.2    90  ARG90       0.2260
     70  O         -3.4260   -4.1050   -4.7320 O.2    90  ARG90      -0.2867
     71  CB        -5.5740   -6.3930   -6.0750 C.3    90  ARG90       0.0307
     72  CG        -6.2590   -5.2600   -6.8020 C.3    90  ARG90       0.0489
     73  CD        -6.3360   -5.4960   -8.2960 C.3    90  ARG90       0.2205
     74  NE        -6.6950   -4.2560   -8.9830 N.pl3  90  ARG90      -0.0865
     75  CZ        -7.9080   -3.9850   -9.4380 C.cat  90  ARG90       0.5346
     76  NH1       -8.1480   -2.8410  -10.0570 N.pl3  90  ARG90       0.1354
     77  NH2       -8.8850   -4.8690   -9.3040 N.pl3  90  ARG90       0.1354
     78  N          2.5630    0.8080   -4.8830 N.3    97  PHE97      -0.1241
     79  CA         2.5030    2.0120   -5.7120 C.3    97  PHE97       0.1605
     80  C          2.4120    3.2670   -4.8330 C.2    97  PHE97       0.2264
     81  O          2.9040    4.3120   -5.2440 O.2    97  PHE97      -0.2867
     82  CB         1.4220    1.9450   -6.8170 C.3    97  PHE97       0.0534
     83  CG         1.3530    3.1720   -7.7120 C.ar   97  PHE97      -0.0203
     84  CD1        2.4350    3.5370   -8.5140 C.ar   97  PHE97      -0.0042
     85  CD2        0.2150    3.9810   -7.7320 C.ar   97  PHE97      -0.0042
     86  CE1        2.3790    4.6830   -9.3200 C.ar   97  PHE97      -0.0003
     87  CE2        0.1690    5.1440   -8.5200 C.ar   97  PHE97      -0.0003
     88  CZ         1.2530    5.4890   -9.3020 C.ar   97  PHE97      -0.0000
@<TRIPOS>BOND
     1    17    16    1
     2    16    15    1
     3    15    14    1
     4    14    13    1
     5    13    10    1
     6    10     9    1
     7    10    11    1
     8    12    11    2
     9     8     7    1
    10    11    18   am
    11     1     2    1
    12    59    58   ar
    13    59    57   ar
    14     2     3    1
    15     2     5    1
    16    58    56   ar
    17    18    19    1
    18     7     6    1
    19     4     3    2
    20     5     6    1
    21    57    55   ar
    22    56    55   ar
    23    19    20    1
    24    19    22    1
    25    20    21    2
    26    55    54    1
    27    25    23    1
    28    23    22    1
    29    23    24    1
    30    48    47    1
    31    66    64    1
    32    54    51    1
    33    53    52    2
    34    65    64    1
    35    76    75    1
    36    52    51    1
    37    52    60   am
    38    64    61    1
    39    61    60    1
    40    61    62    1
    41    49    47    1
    42    51    50    1
    43    75    77    1
    44    75    74    2
    45    47    44    1
    46    86    88   ar
    47    86    84   ar
    48    88    87   ar
    49    63    62    2
    50    74    73    1
    51    44    45    1
    52    44    43    1
    53    46    45    2
    54    87    85   ar
    55    84    83   ar
    56    73    72    1
    57    43    34   am
    58    35    34    2
    59    85    83   ar
    60    83    82    1
    61    34    33    1
    62    36    37    1
    63    36    33    1
    64    31    30    1
    65    82    79    1
    66    72    71    1
    67    37    38    1
    68    33    32    1
    69    42    40    1
    70    29    28    2
    71    38    39    1
    72    30    27    1
    73    71    68    1
    74    68    67    1
    75    68    69    1
    76    79    78    1
    77    79    80    1
    78    28    27    1
    79    40    39    2
    80    40    41    1
    81    81    80    2
    82    27    26    1
    83    70    69    2
