@<TRIPOS>MOLECULE
tmp/6fs2B01.pdb
 147 138 0 0 0
SMALL
GASTEIGER

@<TRIPOS>ATOM
      1  N          7.6010   -4.0580  -11.6740 N.3    51  HIS51      -0.1241
      2  CA         6.6460   -3.1820  -12.3720 C.3    51  HIS51       0.1621
      3  C          7.0870   -1.7310  -12.3170 C.2    51  HIS51       0.2264
      4  O          6.2400   -0.8420  -12.2430 O.2    51  HIS51      -0.2867
      5  CB         5.2090   -3.3570  -11.8140 C.3    51  HIS51       0.0745
      6  CG         4.6520   -4.7220  -12.0640 C.ar   51  HIS51       0.0817
      7  ND1        4.6940   -5.7030  -11.0980 N.ar   51  HIS51      -0.2268
      8  CD2        4.0750   -5.2340  -13.1700 C.ar   51  HIS51       0.1154
      9  CE1        4.1610   -6.7840  -11.6480 C.ar   51  HIS51       0.1986
     10  NE2        3.7920   -6.5600  -12.8970 N.ar   51  HIS51      -0.2212
     11  N          5.5970    0.4530  -15.6190 N.3    54  ALA54      -0.1231
     12  CA         4.1760    0.7550  -15.4070 C.3    54  ALA54       0.1694
     13  C          4.0110    1.8000  -14.3020 C.2    54  ALA54       0.2592
     14  O          3.2910    2.7820  -14.5020 O.2    54  ALA54      -0.2718
     15  CB         3.4260   -0.5180  -15.0340 C.3    54  ALA54       0.0304
     16  N          4.7320    1.6170  -13.1580 N.am   55  PHE55      -0.1976
     17  CA         4.7610    2.5370  -12.0100 C.3    55  PHE55       0.1639
     18  C          5.2170    3.9500  -12.4070 C.2    55  PHE55       0.2290
     19  O          4.6070    4.9250  -11.9760 O.2    55  PHE55      -0.2864
     20  CB         5.6260    1.9540  -10.8790 C.3    55  PHE55       0.0560
     21  CG         4.9170    0.9950   -9.9460 C.ar   55  PHE55      -0.0200
     22  CD1        3.7060    0.4030  -10.3080 C.ar   55  PHE55      -0.0042
     23  CD2        5.4420    0.7040   -8.6920 C.ar   55  PHE55      -0.0042
     24  CE1        3.0520   -0.4800   -9.4470 C.ar   55  PHE55      -0.0003
     25  CE2        4.7820   -0.1770   -7.8270 C.ar   55  PHE55      -0.0003
     26  CZ         3.6010   -0.7740   -8.2180 C.ar   55  PHE55      -0.0000
     27  N          2.4620    5.5190  -14.5960 N.3    58  MET58      -0.1245
     28  CA         1.2910    5.8980  -13.7960 C.3    58  MET58       0.1570
     29  C          1.5530    7.2060  -13.0210 C.2    58  MET58       0.2261
     30  O          0.7120    8.1030  -13.0530 O.2    58  MET58      -0.2867
     31  CB         0.7920    4.7460  -12.9060 C.3    58  MET58       0.0387
     32  CG        -0.6240    4.9630  -12.3400 C.3    58  MET58       0.0595
     33  SD        -1.8720    5.7690  -13.4130 S.3    58  MET58      -0.1393
     34  CE        -2.0270    4.5550  -14.8000 C.3    58  MET58       0.0692
     35  N         -0.4310   10.7550  -13.4330 N.3    62  LEU62      -0.1245
     36  CA        -1.0360   11.3920  -12.2770 C.3    62  LEU62       0.1561
     37  C         -0.4860   12.7940  -12.0220 C.2    62  LEU62       0.2260
     38  O         -1.1340   13.5820  -11.3250 O.2    62  LEU62      -0.2867
     39  CB        -0.9260   10.4880  -11.0320 C.3    62  LEU62       0.0270
     40  CG        -1.7620    9.1880  -11.0570 C.3    62  LEU62       0.0019
     41  CD1       -1.3830    8.2660   -9.9150 C.3    62  LEU62       0.0001
     42  CD2       -3.2500    9.4790  -11.0660 C.3    62  LEU62       0.0001
     43  N         -5.9770   12.2010   -5.0510 N.3    73  LEU73      -0.1245
     44  CA        -5.6110   10.8220   -5.4160 C.3    73  LEU73       0.1561
     45  C         -6.7040    9.8520   -5.0230 C.2    73  LEU73       0.2260
     46  O         -6.8790    8.8100   -5.6710 O.2    73  LEU73      -0.2867
     47  CB        -4.2520   10.3780   -4.8380 C.3    73  LEU73       0.0270
     48  CG        -3.0000   11.0080   -5.4860 C.3    73  LEU73       0.0019
     49  CD1       -1.7270   10.6080   -4.7560 C.3    73  LEU73       0.0001
     50  CD2       -2.9020   10.6970   -6.9880 C.3    73  LEU73       0.0001
     51  N         -9.0130    8.5230   -8.0300 N.3    76  VAL76      -0.1231
     52  CA        -8.4930    7.4470   -8.8890 C.3    76  VAL76       0.1692
     53  C         -8.5520    6.1180   -8.1650 C.2    76  VAL76       0.2591
     54  O         -8.8940    5.1210   -8.7890 O.2    76  VAL76      -0.2718
     55  CB        -7.0510    7.6770   -9.4000 C.3    76  VAL76       0.0266
     56  CG1       -6.8410    6.9890  -10.7430 C.3    76  VAL76       0.0020
     57  CG2       -6.6900    9.1540   -9.4670 C.3    76  VAL76       0.0020
     58  N         -8.1690    6.0970   -6.8740 N.am   77  MET77      -0.1979
     59  CA        -8.1760    4.8900   -6.0440 C.3    77  MET77       0.1605
     60  C         -9.6130    4.3630   -5.9020 C.2    77  MET77       0.2287
     61  O         -9.8510    3.1660   -6.1140 O.2    77  MET77      -0.2864
     62  CB        -7.5040    5.1200   -4.6790 C.3    77  MET77       0.0413
     63  CG        -6.0940    5.6900   -4.7590 C.3    77  MET77       0.0598
     64  SD        -5.3340    5.6120   -3.1410 S.3    77  MET77      -0.1393
     65  CE        -5.6180    7.2650   -2.5110 C.3    77  MET77       0.0692
     66  N        -10.2900    2.7640   -9.3080 N.3    80  VAL80      -0.1231
     67  CA        -9.5400    1.5220   -9.5780 C.3    80  VAL80       0.1692
     68  C         -9.9650    0.4140   -8.6210 C.2    80  VAL80       0.2592
     69  O        -10.3860   -0.6350   -9.0810 O.2    80  VAL80      -0.2718
     70  CB        -7.9920    1.7110   -9.6390 C.3    80  VAL80       0.0266
     71  CG1       -7.3090    0.4410  -10.1010 C.3    80  VAL80       0.0020
     72  CG2       -7.6090    2.8450  -10.5710 C.3    80  VAL80       0.0020
     73  N         -9.9000    0.6610   -7.3040 N.am   81  PHE81      -0.1976
     74  CA       -10.2620   -0.3120   -6.2720 C.3    81  PHE81       0.1639
     75  C        -11.7770   -0.6160   -6.1420 C.2    81  PHE81       0.2290
     76  O        -12.1280   -1.5420   -5.4100 O.2    81  PHE81      -0.2864
     77  CB        -9.6740    0.1030   -4.9230 C.3    81  PHE81       0.0560
     78  CG        -8.6610   -0.8850   -4.4050 C.ar   81  PHE81      -0.0200
     79  CD1       -7.6210   -1.3330   -5.2180 C.ar   81  PHE81      -0.0042
     80  CD2       -8.7420   -1.3720   -3.1050 C.ar   81  PHE81      -0.0042
     81  CE1       -6.6890   -2.2640   -4.7420 C.ar   81  PHE81      -0.0003
     82  CE2       -7.8090   -2.2970   -2.6260 C.ar   81  PHE81      -0.0003
     83  CZ        -6.7820   -2.7290   -3.4410 C.ar   81  PHE81      -0.0000
     84  N         -3.5420   -7.5100   -5.4530 N.3    90  ARG90      -0.1245
     85  CA        -4.0830   -6.1920   -5.7590 C.3    90  ARG90       0.1563
     86  C         -3.8640   -5.2440   -4.5500 C.2    90  ARG90       0.2260
     87  O         -3.4260   -4.1050   -4.7320 O.2    90  ARG90      -0.2867
     88  CB        -5.5740   -6.3930   -6.0750 C.3    90  ARG90       0.0307
     89  CG        -6.2590   -5.2600   -6.8020 C.3    90  ARG90       0.0489
     90  CD        -6.3360   -5.4960   -8.2960 C.3    90  ARG90       0.2205
     91  NE        -6.6950   -4.2560   -8.9830 N.pl3  90  ARG90      -0.0865
     92  CZ        -7.9080   -3.9850   -9.4380 C.cat  90  ARG90       0.5346
     93  NH1       -8.1480   -2.8410  -10.0570 N.pl3  90  ARG90       0.1354
     94  NH2       -8.8850   -4.8690   -9.3040 N.pl3  90  ARG90       0.1354
     95  N         -0.1770   -4.5300   -4.3210 N.3    93  THR93      -0.1203
     96  CA         0.2220   -3.6630   -5.4500 C.3    93  THR93       0.1994
     97  C         -0.1760   -2.2200   -5.2230 C.2    93  THR93       0.2617
     98  O          0.5300   -1.3120   -5.6610 O.2    93  THR93      -0.2717
     99  CB        -0.2780   -4.2080   -6.7840 C.3    93  THR93       0.1784
    100  OG1        0.0490   -5.5930   -6.8640 O.3    93  THR93      -0.2211
    101  CG2        0.3150   -3.4780   -7.9730 C.3    93  THR93       0.0376
    102  N         -1.3050   -2.0090   -4.5570 N.am   94  LEU94      -0.1979
    103  CA        -1.8210   -0.6950   -4.1870 C.3    94  LEU94       0.1596
    104  C         -0.8700   -0.0160   -3.1790 C.2    94  LEU94       0.2287
    105  O         -0.5780    1.1770   -3.3170 O.2    94  LEU94      -0.2864
    106  CB        -3.2350   -0.8970   -3.5790 C.3    94  LEU94       0.0297
    107  CG        -3.8880    0.2700   -2.8560 C.3    94  LEU94       0.0022
    108  CD1       -4.8920    0.9520   -3.7560 C.3    94  LEU94       0.0001
    109  CD2       -4.5560   -0.2070   -1.6220 C.3    94  LEU94       0.0001
    110  N          2.5630    0.8080   -4.8830 N.3    97  PHE97      -0.1227
    111  CA         2.5030    2.0120   -5.7120 C.3    97  PHE97       0.1736
    112  C          2.4120    3.2670   -4.8330 C.2    97  PHE97       0.2596
    113  O          2.9040    4.3120   -5.2440 O.2    97  PHE97      -0.2718
    114  CB         1.4220    1.9450   -6.8170 C.3    97  PHE97       0.0547
    115  CG         1.3530    3.1720   -7.7120 C.ar   97  PHE97      -0.0202
    116  CD1        2.4350    3.5370   -8.5140 C.ar   97  PHE97      -0.0042
    117  CD2        0.2150    3.9810   -7.7320 C.ar   97  PHE97      -0.0042
    118  CE1        2.3790    4.6830   -9.3200 C.ar   97  PHE97      -0.0003
    119  CE2        0.1690    5.1440   -8.5200 C.ar   97  PHE97      -0.0003
    120  CZ         1.2530    5.4890   -9.3020 C.ar   97  PHE97      -0.0000
    121  N          1.8640    3.1330   -3.6230 N.am   98  GLY98      -0.1957
    122  CA         1.7970    4.2050   -2.6270 C.3    98  GLY98       0.1869
    123  C          3.1760    4.5640   -2.1040 C.2    98  GLY98       0.2309
    124  O          3.4840    5.7380   -1.9070 O.2    98  GLY98      -0.2863
    125  N          5.0010    6.3350   -5.0100 N.3   101  VAL101     -0.1245
    126  CA         4.4620    7.7000   -4.9680 C.3   101  VAL101      0.1561
    127  C          5.0950    8.4690   -3.8030 C.2   101  VAL101      0.2260
    128  O          5.5460    9.5910   -4.0190 O.2   101  VAL101     -0.2867
    129  CB         2.9110    7.7310   -4.9530 C.3   101  VAL101      0.0252
    130  CG1        2.3820    9.1400   -4.6900 C.3   101  VAL101      0.0019
    131  CG2        2.3450    7.2050   -6.2670 C.3   101  VAL101      0.0019
    132  N         -1.2970   10.8060    2.3560 N.3   117  LEU117     -0.1245
    133  CA        -1.4080    9.7960    1.2910 C.3   117  LEU117      0.1561
    134  C         -1.7510    8.4360    1.9060 C.2   117  LEU117      0.2260
    135  O         -2.7170    7.7970    1.4540 O.2   117  LEU117     -0.2867
    136  CB        -0.1090    9.6890    0.4410 C.3   117  LEU117      0.0270
    137  CG        -0.0100    8.5580   -0.6520 C.3   117  LEU117      0.0019
    138  CD1       -1.1810    8.5480   -1.6060 C.3   117  LEU117      0.0001
    139  CD2        1.2120    8.7110   -1.4530 C.3   117  LEU117      0.0001
    140  N         -5.0250    6.0880    1.4520 N.3   121  ILE121     -0.1245
    141  CA        -4.9450    4.7200    0.9030 C.3   121  ILE121      0.1561
    142  C         -5.8090    3.7910    1.7430 C.2   121  ILE121      0.2260
    143  O         -6.6240    3.0460    1.1820 O.2   121  ILE121     -0.2867
    144  CB        -3.4850    4.1770    0.6510 C.3   121  ILE121      0.0252
    145  CG1       -2.7230    5.0190   -0.4130 C.3   121  ILE121      0.0019
    146  CG2       -3.4720    2.7000    0.2440 C.3   121  ILE121      0.0019
    147  CD1       -1.2440    4.8440   -0.4000 C.3   121  ILE121      0.0001
@<TRIPOS>BOND
     1    11    12    1
     2    12    15    1
     3    12    13    1
     4    34    33    1
     5    27    28    1
     6    14    13    2
     7    13    16   am
     8    28    29    1
     9    28    31    1
    10    35    36    1
    11    33    32    1
    12     8    10   ar
    13     8     6   ar
    14    16    17    1
    15    30    29    2
    16    31    32    1
    17    10     9   ar
    18    18    17    1
    19    18    19    2
    20     2     3    1
    21     2     5    1
    22     2     1    1
    23     3     4    2
    24    36    37    1
    25    36    39    1
    26     6     5    1
    27     6     7   ar
    28    37    38    2
    29    17    20    1
    30     9     7   ar
    31    42    40    1
    32    40    39    1
    33    40    41    1
    34    20    21    1
    35    56    55    1
    36    72    70    1
    37    22    21   ar
    38    22    24   ar
    39    71    70    1
    40    93    92    1
    41    21    23   ar
    42    70    67    1
    43    67    66    1
    44    67    68    1
    45    57    55    1
    46    24    26   ar
    47    92    94    1
    48    92    91    2
    49    55    52    1
    50   118   120   ar
    51   118   116   ar
    52   120   119   ar
    53    69    68    2
    54    91    90    1
    55    52    53    1
    56    52    51    1
    57    54    53    2
    58    23    25   ar
    59    68    73   am
    60   119   117   ar
    61   116   115   ar
    62    90    89    1
    63    26    25   ar
    64    53    58   am
    65   101    99    1
    66   117   115   ar
    67   115   114    1
    68    73    74    1
    69    50    48    1
    70    58    59    1
    71   100    99    1
    72   114   111    1
    73    89    88    1
    74    99    96    1
    75    74    75    1
    76    74    77    1
    77   131   129    1
    78    75    76    2
    79    61    60    2
    80    88    85    1
    81    59    60    1
    82    59    62    1
    83    85    84    1
    84    85    86    1
    85   111   110    1
    86   111   112    1
    87    46    45    2
    88    98    97    2
    89    48    47    1
    90    48    49    1
    91    96    97    1
    92    96    95    1
    93    44    43    1
    94    44    45    1
    95    44    47    1
    96   113   112    2
    97    97   102   am
    98    79    81   ar
    99    79    78   ar
   100   125   126    1
   101   126   129    1
   102   126   127    1
   103   129   130    1
   104    77    78    1
   105   112   121   am
   106    63    62    1
   107    63    64    1
   108    81    83   ar
   109    87    86    2
   110   102   103    1
   111    78    80   ar
   112   103   106    1
   113   103   104    1
   114   128   127    2
   115   108   107    1
   116   121   122    1
   117   106   107    1
   118    83    82   ar
   119   105   104    2
   120    64    65    1
   121    80    82   ar
   122   107   109    1
   123   122   123    1
   124   123   124    2
   125   138   137    1
   126   139   137    1
   127   137   136    1
   128   145   147    1
   129   145   144    1
   130   146   144    1
   131   136   133    1
   132   144   141    1
   133   141   140    1
   134   141   142    1
   135   143   142    2
   136   133   134    1
   137   133   132    1
   138   135   134    2
