@<TRIPOS>MOLECULE
tmp/6fs7A00.pdb
 141 131 0 0 0
SMALL
GASTEIGER

@<TRIPOS>ATOM
      1  N        -44.2950   -1.1170  -41.7720 N.3    25  ALA25      -0.1231
      2  CA       -44.1090    0.3050  -41.4950 C.3    25  ALA25       0.1694
      3  C        -43.1130    0.9300  -42.4650 C.2    25  ALA25       0.2591
      4  O        -43.3270    2.0430  -42.9550 O.2    25  ALA25      -0.2718
      5  CB       -43.6510    0.5090  -40.0500 C.3    25  ALA25       0.0304
      6  N        -42.0080    0.2370  -42.7450 N.am   26  MET26      -0.1979
      7  CA       -41.0150    0.7910  -43.6560 C.3    26  MET26       0.1605
      8  C        -41.5850    0.9210  -45.0630 C.2    26  MET26       0.2287
      9  O        -41.3780    1.9400  -45.7300 O.2    26  MET26      -0.2864
     10  CB       -39.7510   -0.0720  -43.6490 C.3    26  MET26       0.0413
     11  CG       -38.9180    0.0930  -42.3820 C.3    26  MET26       0.0598
     12  SD       -37.3590   -0.8140  -42.3870 S.3    26  MET26      -0.1393
     13  CE       -36.3890    0.1710  -43.5270 C.3    26  MET26       0.0692
     14  N        -43.8890    3.9280  -45.3010 N.3    29  TYR29      -0.1241
     15  CA       -43.1600    5.1850  -45.4100 C.3    29  TYR29       0.1605
     16  C        -42.1260    5.1790  -46.5340 C.2    29  TYR29       0.2264
     17  O        -41.2690    6.0680  -46.5760 O.2    29  TYR29      -0.2867
     18  CB       -42.4940    5.5290  -44.0700 C.3    29  TYR29       0.0534
     19  CG       -43.4720    6.0290  -43.0210 C.ar   29  TYR29      -0.0201
     20  CD1      -44.2710    5.1430  -42.3090 C.ar   29  TYR29      -0.0009
     21  CD2      -43.6060    7.3880  -42.7520 C.ar   29  TYR29      -0.0009
     22  CE1      -45.1720    5.5910  -41.3540 C.ar   29  TYR29       0.0417
     23  CE2      -44.5070    7.8490  -41.7950 C.ar   29  TYR29       0.0417
     24  CZ       -45.2880    6.9430  -41.1020 C.ar   29  TYR29       0.1957
     25  OH       -46.1880    7.3810  -40.1510 O.3    29  TYR29      -0.2866
     26  N        -39.5690    3.0080  -47.5720 N.3    31  GLU31      -0.1245
     27  CA       -38.1870    2.5850  -47.3710 C.3    31  GLU31       0.1567
     28  C        -38.0800    1.0730  -47.5220 C.2    31  GLU31       0.2260
     29  O        -38.9820    0.3350  -47.1170 O.2    31  GLU31      -0.2867
     30  CB       -37.6730    3.0090  -45.9890 C.3    31  GLU31       0.0388
     31  CG       -37.8190    4.4970  -45.6940 C.3    31  GLU31       0.1160
     32  CD       -36.5400    5.2830  -45.9110 C.2    31  GLU31       0.3649
     33  OE1      -35.5330    4.6960  -46.3600 O.co2  31  GLU31      -0.2457
     34  OE2      -36.5400    6.4980  -45.6140 O.co2  31  GLU31      -0.2457
     35  N        -31.7510    0.8440  -40.4940 N.3    39  LYS39      -0.1245
     36  CA       -33.0550    1.3770  -40.1240 C.3    39  LYS39       0.1561
     37  C        -34.0320    0.2500  -39.8160 C.2    39  LYS39       0.2260
     38  O        -34.8550    0.3620  -38.9010 O.2    39  LYS39      -0.2867
     39  CB       -33.5840    2.2570  -41.2530 C.3    39  LYS39       0.0271
     40  CG       -34.7760    3.1170  -40.8820 C.3    39  LYS39       0.0035
     41  CD       -35.1520    4.0350  -42.0340 C.3    39  LYS39       0.0206
     42  CE       -34.1920    5.2020  -42.1540 C.3    39  LYS39       0.1093
     43  NZ       -34.4630    6.0250  -43.3630 N.3    39  LYS39      -0.1314
     44  N        -33.2930   -0.6950  -36.4240 N.3    42  ALA42      -0.1231
     45  CA       -33.7330    0.3380  -35.4880 C.3    42  ALA42       0.1694
     46  C        -35.2400    0.2780  -35.2610 C.2    42  ALA42       0.2592
     47  O        -35.7080    0.4260  -34.1260 O.2    42  ALA42      -0.2718
     48  CB       -33.3180    1.7190  -35.9960 C.3    42  ALA42       0.0304
     49  N        -36.0180    0.0730  -36.3260 N.am   43  THR43      -0.1953
     50  CA       -37.4700    0.0150  -36.1740 C.3    43  THR43       0.1897
     51  C        -37.8990   -1.2200  -35.3890 C.2    43  THR43       0.2313
     52  O        -38.8320   -1.1490  -34.5830 O.2    43  THR43      -0.2863
     53  CB       -38.1560    0.0500  -37.5440 C.3    43  THR43       0.1794
     54  OG1      -37.6730   -1.0210  -38.3620 O.3    43  THR43      -0.2208
     55  CG2      -37.8920    1.3840  -38.2410 C.3    43  THR43       0.0378
     56  N        -37.0350   -0.5030  -31.6330 N.3    46  HIS46      -0.1241
     57  CA       -37.9610    0.4650  -31.0550 C.3    46  HIS46       0.1621
     58  C        -39.3480   -0.1390  -30.8670 C.2    46  HIS46       0.2264
     59  O        -39.9900    0.0680  -29.8290 O.2    46  HIS46      -0.2867
     60  CB       -37.9990    1.6990  -31.9580 C.3    46  HIS46       0.0745
     61  CG       -39.1020    2.6580  -31.6480 C.ar   46  HIS46       0.0817
     62  ND1      -40.3690    2.5220  -32.1700 N.ar   46  HIS46      -0.2268
     63  CD2      -39.1220    3.7850  -30.8980 C.ar   46  HIS46       0.1154
     64  CE1      -41.1260    3.5170  -31.7440 C.ar   46  HIS46       0.1986
     65  NE2      -40.3930    4.2970  -30.9700 N.ar   46  HIS46      -0.2212
     66  N        -47.9500    2.5530  -31.8050 N.3    64  GLU64      -0.1245
     67  CA       -46.9390    2.0480  -32.7190 C.3    64  GLU64       0.1567
     68  C        -47.3020    0.6360  -33.1760 C.2    64  GLU64       0.2260
     69  O        -48.0690   -0.0830  -32.5280 O.2    64  GLU64      -0.2867
     70  CB       -45.5690    2.0780  -32.0280 C.3    64  GLU64       0.0388
     71  CG       -44.3550    1.8790  -32.9190 C.3    64  GLU64       0.1160
     72  CD       -44.2680    2.8710  -34.0550 C.2    64  GLU64       0.3649
     73  OE1      -43.6020    3.9220  -33.8910 O.co2  64  GLU64      -0.2457
     74  OE2      -44.8520    2.5880  -35.1220 O.co2  64  GLU64      -0.2457
     75  N        -47.8360   11.6520  -34.4580 N.3    90  LEU90      -0.1245
     76  CA       -48.2050   10.3320  -33.9490 C.3    90  LEU90       0.1561
     77  C        -47.3150    9.9430  -32.7740 C.2    90  LEU90       0.2260
     78  O        -46.0850    9.8900  -32.9320 O.2    90  LEU90      -0.2867
     79  CB       -48.0750    9.2640  -35.0320 C.3    90  LEU90       0.0270
     80  CG       -49.2890    8.7030  -35.7800 C.3    90  LEU90       0.0019
     81  CD1      -48.8720    7.4120  -36.4750 C.3    90  LEU90       0.0001
     82  CD2      -50.5020    8.4520  -34.8910 C.3    90  LEU90       0.0001
     83  N        -46.3140    7.0220  -29.5180 N.3    92  ASP92      -0.1239
     84  CA       -46.0830    5.5810  -29.4650 C.3    92  ASP92       0.1674
     85  C        -47.0600    4.8420  -28.5590 C.2    92  ASP92       0.2266
     86  O        -47.4880    3.7310  -28.8950 O.2    92  ASP92      -0.2867
     87  CB       -44.6510    5.3080  -28.9960 C.3    92  ASP92       0.1410
     88  CG       -43.6200    5.7360  -30.0150 C.2    92  ASP92       0.3668
     89  OD1      -43.8290    5.4570  -31.2100 O.co2  92  ASP92      -0.2456
     90  OD2      -42.6250    6.3730  -29.6260 O.co2  92  ASP92      -0.2456
     91  N        -44.0930    9.3030  -26.1190 N.3   103  GLU103     -0.1231
     92  CA       -43.1890    9.1210  -27.2480 C.3   103  GLU103      0.1699
     93  C        -41.9600    8.3760  -26.7490 C.2   103  GLU103      0.2592
     94  O        -41.2560    8.8630  -25.8550 O.2   103  GLU103     -0.2718
     95  CB       -42.7830   10.4610  -27.8650 C.3   103  GLU103      0.0402
     96  CG       -41.7070   10.3530  -28.9460 C.3   103  GLU103      0.1161
     97  CD       -42.1040    9.4420  -30.0950 C.2   103  GLU103      0.3649
     98  OE1      -43.3000    9.4230  -30.4550 O.co2 103  GLU103     -0.2457
     99  OE2      -41.2180    8.7430  -30.6370 O.co2 103  GLU103     -0.2457
    100  N        -41.7030    7.2060  -27.3250 N.am  104  ILE104     -0.1966
    101  CA       -40.5600    6.3810  -26.9550 C.3   104  ILE104      0.1727
    102  C        -39.4170    6.6740  -27.9140 C.2   104  ILE104      0.2616
    103  O        -39.6060    6.6710  -29.1370 O.2   104  ILE104     -0.2715
    104  CB       -40.9160    4.8850  -26.9790 C.3   104  ILE104      0.0290
    105  CG1      -42.0050    4.5560  -25.9510 C.3   104  ILE104      0.0022
    106  CG2      -39.6700    4.0410  -26.7430 C.3   104  ILE104      0.0023
    107  CD1      -41.6190    4.8210  -24.5160 C.3   104  ILE104      0.0001
    108  N        -38.2380    6.9150  -27.3610 N.am  105  GLY105     -0.1955
    109  CA       -37.0220    7.0660  -28.1470 C.3   105  GLY105      0.1869
    110  C        -35.9800    6.0460  -27.7460 C.2   105  GLY105      0.2309
    111  O        -35.7920    5.7720  -26.5580 O.2   105  GLY105     -0.2863
    112  N        -30.4020   13.0580  -27.7220 N.3   114  TYR114     -0.1241
    113  CA       -31.5990   12.5780  -28.4020 C.3   114  TYR114      0.1605
    114  C        -32.8630   13.1450  -27.7650 C.2   114  TYR114      0.2264
    115  O        -33.8230   13.4800  -28.4700 O.2   114  TYR114     -0.2867
    116  CB       -31.6220   11.0480  -28.3930 C.3   114  TYR114      0.0534
    117  CG       -32.6060   10.4430  -29.3650 C.ar  114  TYR114     -0.0201
    118  CD1      -32.4070   10.5390  -30.7340 C.ar  114  TYR114     -0.0009
    119  CD2      -33.7220    9.7570  -28.9160 C.ar  114  TYR114     -0.0009
    120  CE1      -33.3010    9.9820  -31.6290 C.ar  114  TYR114      0.0417
    121  CE2      -34.6210    9.1950  -29.8020 C.ar  114  TYR114      0.0417
    122  CZ       -34.4060    9.3090  -31.1570 C.ar  114  TYR114      0.1957
    123  OH       -35.3030    8.7530  -32.0410 O.3   114  TYR114     -0.2866
    124  N        -35.8540   15.0330  -29.7330 N.3   118  LYS118     -0.1245
    125  CA       -37.2610   14.6500  -29.6610 C.3   118  LYS118      0.1561
    126  C        -38.1240   15.8010  -29.1680 C.2   118  LYS118      0.2260
    127  O        -39.1400   16.1410  -29.7870 O.2   118  LYS118     -0.2867
    128  CB       -37.4270   13.4420  -28.7420 C.3   118  LYS118      0.0271
    129  CG       -37.1020   12.1290  -29.3970 C.3   118  LYS118      0.0035
    130  CD       -38.1920   11.7470  -30.3620 C.3   118  LYS118      0.0206
    131  CE       -38.1160   10.2830  -30.7090 C.3   118  LYS118      0.1093
    132  NZ       -38.8810    9.9990  -31.9400 N.3   118  LYS118     -0.1314
    133  N        -38.5440   18.3430  -31.8370 N.3   121  LYS121     -0.1245
    134  CA       -39.3450   17.9740  -33.0010 C.3   121  LYS121      0.1561
    135  C        -40.8430   17.9610  -32.7110 C.2   121  LYS121      0.2260
    136  O        -41.6410   18.1410  -33.6390 O.2   121  LYS121     -0.2867
    137  CB       -38.9040   16.6170  -33.5480 C.3   121  LYS121      0.0271
    138  CG       -39.5320   16.3210  -34.9030 C.3   121  LYS121      0.0035
    139  CD       -38.9700   15.0780  -35.5620 C.3   121  LYS121      0.0206
    140  CE       -39.7420   14.7420  -36.8310 C.3   121  LYS121      0.1093
    141  NZ       -39.0180   13.7500  -37.6770 N.3   121  LYS121     -0.1314
@<TRIPOS>BOND
     1    26    27    1
     2    28    27    1
     3    28    29    2
     4    27    30    1
     5    17    16    2
     6    16    15    1
     7    33    32   ar
     8    30    31    1
     9    32    31    1
    10    32    34   ar
    11     9     8    2
    12    15    14    1
    13    15    18    1
    14     8     7    1
    15    18    19    1
    16     7    10    1
    17     7     6    1
    18    10    11    1
    19    13    12    1
    20    43    42    1
    21    19    21   ar
    22    19    20   ar
    23     4     3    2
    24    21    23   ar
    25     6     3   am
    26     3     2    1
    27    12    11    1
    28    20    22   ar
    29    42    41    1
    30    41    40    1
    31    23    24   ar
    32     1     2    1
    33     2     5    1
    34    22    24   ar
    35    39    40    1
    36    39    36    1
    37    24    25    1
    38    35    36    1
    39    36    37    1
    40    37    38    2
    41    54    53    1
    42    55    53    1
    43   141   140    1
    44    53    50    1
    45   140   139    1
    46    81    80    1
    47    44    45    1
    48    49    50    1
    49    49    46   am
    50    50    51    1
    51    48    45    1
    52    80    79    1
    53    80    82    1
    54   139   138    1
    55    45    46    1
    56    51    52    2
    57    46    47    2
    58    74    72   ar
    59    79    76    1
    60   138   137    1
    61    75    76    1
    62    72    73   ar
    63    72    71    1
    64    76    77    1
    65   136   135    2
    66   137   134    1
    67    68    67    1
    68    68    69    2
    69   134   135    1
    70   134   133    1
    71    78    77    2
    72    71    70    1
    73    67    70    1
    74    67    66    1
    75    62    64   ar
    76    62    61   ar
    77   123   122    1
    78    60    61    1
    79    60    57    1
    80   132   131    1
    81    64    65   ar
    82    61    63   ar
    83    56    57    1
    84   120   122   ar
    85   120   118   ar
    86    89    88   ar
    87   122   121   ar
    88    57    58    1
    89    65    63   ar
    90    58    59    2
    91   118   117   ar
    92   131   130    1
    93    99    97   ar
    94    98    97   ar
    95   130   129    1
    96    97    96    1
    97    88    90   ar
    98    88    87    1
    99   121   119   ar
   100   127   126    2
   101   124   125    1
   102   125   126    1
   103   125   128    1
   104    83    84    1
   105    84    87    1
   106    84    85    1
   107   129   128    1
   108   117   119   ar
   109   117   116    1
   110   103   102    2
   111    96    95    1
   112    86    85    2
   113   115   114    2
   114   113   116    1
   115   113   114    1
   116   113   112    1
   117   109   110    1
   118   109   108    1
   119   102   108   am
   120   102   101    1
   121    95    92    1
   122   110   111    2
   123   100   101    1
   124   100    93   am
   125    92    93    1
   126    92    91    1
   127   104   101    1
   128   104   106    1
   129   104   105    1
   130    93    94    2
   131   105   107    1
