@<TRIPOS>MOLECULE
tmp/6fs9A00.pdb
 162 151 0 0 0
SMALL
GASTEIGER

@<TRIPOS>ATOM
      1  N         11.7600    1.3830  -25.0550 N.3    22  THR22      -0.1203
      2  CA        12.1560    2.5030  -25.8670 C.3    22  THR22       0.1994
      3  C         13.6470    2.8480  -25.6890 C.2    22  THR22       0.2617
      4  O         14.3490    3.1320  -26.6560 O.2    22  THR22      -0.2717
      5  CB        11.3270    3.7190  -25.5130 C.3    22  THR22       0.1784
      6  OG1        9.9700    3.4080  -25.7750 O.3    22  THR22      -0.2211
      7  CG2       11.6960    4.8790  -26.3910 C.3    22  THR22       0.0376
      8  N         14.1370    2.8630  -24.4620 N.am   23  MET23      -0.1979
      9  CA        15.5520    3.2020  -24.2500 C.3    23  MET23       0.1605
     10  C         16.4530    2.1780  -24.9900 C.2    23  MET23       0.2287
     11  O         17.4600    2.5450  -25.5570 O.2    23  MET23      -0.2864
     12  CB        15.8970    3.2800  -22.7540 C.3    23  MET23       0.0413
     13  CG        15.4190    4.5360  -22.0480 C.3    23  MET23       0.0598
     14  SD        15.5510    4.4370  -20.2420 S.3    23  MET23      -0.1393
     15  CE        17.3250    4.6310  -19.9560 C.3    23  MET23       0.0692
     16  N         17.0520    2.7720  -28.6950 N.3    26  PHE26      -0.1241
     17  CA        18.1560    3.7540  -28.7850 C.3    26  PHE26       0.1605
     18  C         19.5060    3.2680  -28.1880 C.2    26  PHE26       0.2264
     19  O         20.4080    4.0620  -27.9580 O.2    26  PHE26      -0.2867
     20  CB        17.6780    5.0780  -28.1180 C.3    26  PHE26       0.0534
     21  CG        16.6420    5.8110  -28.9320 C.ar   26  PHE26      -0.0203
     22  CD1       17.0030    6.4470  -30.1100 C.ar   26  PHE26      -0.0042
     23  CD2       15.3040    5.7990  -28.5700 C.ar   26  PHE26      -0.0042
     24  CE1       16.0500    7.1060  -30.8860 C.ar   26  PHE26      -0.0003
     25  CE2       14.3350    6.4470  -29.3420 C.ar   26  PHE26      -0.0003
     26  CZ        14.7110    7.0970  -30.5090 C.ar   26  PHE26      -0.0000
     27  N         20.1400    2.7270  -25.1000 N.3    28  GLU28      -0.1245
     28  CA        20.4580    3.2890  -23.7900 C.3    28  GLU28       0.1567
     29  C         20.0380    2.2440  -22.7900 C.2    28  GLU28       0.2260
     30  O         19.0330    1.5700  -22.9650 O.2    28  GLU28      -0.2867
     31  CB        19.7740    4.6230  -23.5390 C.3    28  GLU28       0.0388
     32  CG        20.2370    5.7530  -24.4360 C.3    28  GLU28       0.1160
     33  CD        21.6560    6.2110  -24.1840 C.2    28  GLU28       0.3649
     34  OE1       22.1040    6.2540  -23.0070 O.co2  28  GLU28      -0.2457
     35  OE2       22.3110    6.5450  -25.1900 O.co2  28  GLU28      -0.2457
     36  N         17.1900    8.9600  -17.1620 N.3    36  MET36      -0.1245
     37  CA        16.4710    8.8680  -18.4130 C.3    36  MET36       0.1570
     38  C         15.2720    7.9750  -18.2330 C.2    36  MET36       0.2261
     39  O         14.1650    8.2710  -18.7430 O.2    36  MET36      -0.2867
     40  CB        17.3770    8.3300  -19.5000 C.3    36  MET36       0.0387
     41  CG        16.7670    8.3030  -20.9010 C.3    36  MET36       0.0595
     42  SD        17.9650    7.7850  -22.1340 S.3    36  MET36      -0.1393
     43  CE        18.9720    9.2770  -22.1520 C.3    36  MET36       0.0692
     44  N         12.5550   10.0010  -16.5080 N.3    39  ASN39      -0.1225
     45  CA        12.0090   11.0460  -17.3580 C.3    39  ASN39       0.1785
     46  C         11.0930   10.5010  -18.4260 C.2    39  ASN39       0.2597
     47  O         10.0620   11.1430  -18.7210 O.2    39  ASN39      -0.2718
     48  CB        13.1070   11.8400  -18.0170 C.3    39  ASN39       0.1169
     49  CG        13.8560   12.7030  -17.0380 C.2    39  ASN39       0.2627
     50  OD1       13.2860   13.2090  -16.0660 O.2    39  ASN39      -0.2716
     51  ND2       15.1290   12.8870  -17.2890 N.am   39  ASN39      -0.0877
     52  N         11.4270    9.2960  -18.9170 N.am   40  THR40      -0.1953
     53  CA        10.6700    8.6690  -19.9750 C.3    40  THR40       0.1897
     54  C          9.4310    8.0780  -19.3650 C.2    40  THR40       0.2313
     55  O          8.3820    8.0620  -19.9960 O.2    40  THR40      -0.2863
     56  CB        11.4610    7.6070  -20.7940 C.3    40  THR40       0.1794
     57  OG1       12.0650    6.6790  -19.9160 O.3    40  THR40      -0.2208
     58  CG2       12.5750    8.2420  -21.5880 C.3    40  THR40       0.0378
     59  N          7.0180   11.0670  -18.8380 N.3    43  HIS43      -0.1241
     60  CA         6.4940   11.5620  -20.1310 C.3    43  HIS43       0.1621
     61  C          5.4240   10.6230  -20.6400 C.2    43  HIS43       0.2264
     62  O          4.3230   11.0540  -20.9690 O.2    43  HIS43      -0.2867
     63  CB         7.6120   11.6460  -21.1120 C.3    43  HIS43       0.0745
     64  CG         7.2130   12.0550  -22.4870 C.ar   43  HIS43       0.0817
     65  ND1        7.0740   11.1480  -23.4970 N.ar   43  HIS43      -0.2268
     66  CD2        7.0540   13.2650  -23.0500 C.ar   43  HIS43       0.1154
     67  CE1        6.7810   11.7740  -24.6130 C.ar   43  HIS43       0.1986
     68  NE2        6.7530   13.0630  -24.3710 N.ar   43  HIS43      -0.2212
     69  N          3.2820    7.4480  -28.5300 N.3    73  GLU73      -0.1245
     70  CA         4.4360    7.2330  -27.6710 C.3    73  GLU73       0.1567
     71  C          4.3210    5.8480  -26.9930 C.2    73  GLU73       0.2260
     72  O          3.2160    5.3480  -26.7920 O.2    73  GLU73      -0.2867
     73  CB         4.5450    8.3420  -26.5970 C.3    73  GLU73       0.0388
     74  CG         5.8350    8.3060  -25.7520 C.3    73  GLU73       0.1160
     75  CD         7.1170    8.2310  -26.5960 C.2    73  GLU73       0.3649
     76  OE1        7.7460    9.3090  -26.8010 O.co2  73  GLU73      -0.2457
     77  OE2        7.4900    7.0980  -27.0690 O.co2  73  GLU73      -0.2457
     78  N          9.3010    2.2220  -32.6800 N.3    77  ARG77      -0.1245
     79  CA         9.2130    3.2340  -33.7340 C.3    77  ARG77       0.1563
     80  C          8.6490    2.7450  -35.0610 C.2    77  ARG77       0.2260
     81  O          7.9670    3.5080  -35.7460 O.2    77  ARG77      -0.2867
     82  CB        10.5500    3.9360  -33.9320 C.3    77  ARG77       0.0307
     83  CG        10.8240    4.8440  -32.7590 C.3    77  ARG77       0.0489
     84  CD        12.0370    5.6780  -33.0020 C.3    77  ARG77       0.2205
     85  NE        11.7780    6.8160  -33.8700 N.pl3  77  ARG77      -0.0865
     86  CZ        11.3660    8.0010  -33.4360 C.cat  77  ARG77       0.5346
     87  NH1       11.1110    8.2090  -32.1690 N.pl3  77  ARG77       0.1354
     88  NH2       11.2090    9.0100  -34.2700 N.pl3  77  ARG77       0.1354
     89  N          7.8730   12.0160  -35.3180 N.3    99  LEU99      -0.1245
     90  CA         6.9470   11.1160  -34.6180 C.3    99  LEU99       0.1561
     91  C          6.3330   11.8340  -33.4290 C.2    99  LEU99       0.2260
     92  O          7.0350   12.4300  -32.6560 O.2    99  LEU99      -0.2867
     93  CB         7.6950    9.8790  -34.1480 C.3    99  LEU99       0.0270
     94  CG         6.8970    8.6670  -33.6980 C.3    99  LEU99       0.0019
     95  CD1        6.2150    8.0600  -34.9060 C.3    99  LEU99       0.0001
     96  CD2        7.8080    7.6420  -33.0450 C.3    99  LEU99       0.0001
     97  N          3.5110   12.2090  -30.0560 N.3   101  ASP101     -0.1239
     98  CA         3.1870   11.5250  -28.8040 C.3   101  ASP101      0.1674
     99  C          1.7630   11.0780  -28.7970 C.2   101  ASP101      0.2266
    100  O          1.5020    9.9650  -28.3500 O.2   101  ASP101     -0.2867
    101  CB         3.4890   12.4110  -27.6060 C.3   101  ASP101      0.1410
    102  CG         5.0140   12.6410  -27.4180 C.2   101  ASP101      0.3668
    103  OD1        5.7210   11.6750  -27.7150 O.co2 101  ASP101     -0.2456
    104  OD2        5.4990   13.7380  -26.9770 O.co2 101  ASP101     -0.2456
    105  N          2.4940   16.7760  -29.6640 N.3   112  GLU112     -0.1231
    106  CA         3.7560   16.5740  -29.0080 C.3   112  GLU112      0.1699
    107  C          3.5450   17.0090  -27.5350 C.2   112  GLU112      0.2592
    108  O          3.1300   18.1300  -27.2650 O.2   112  GLU112     -0.2718
    109  CB         4.8540   17.4280  -29.6360 C.3   112  GLU112      0.0402
    110  CG         6.2000   17.4190  -28.8580 C.3   112  GLU112      0.1161
    111  CD         6.8070   16.0020  -28.7540 C.2   112  GLU112      0.3649
    112  OE1        6.6010   15.2100  -29.7030 O.co2 112  GLU112     -0.2457
    113  OE2        7.4630   15.6630  -27.7350 O.co2 112  GLU112     -0.2457
    114  N          3.8640   16.0880  -26.6200 N.am  113  VAL113     -0.1966
    115  CA         3.8890   16.3120  -25.1970 C.3   113  VAL113      0.1727
    116  C          5.3230   16.5430  -24.7560 C.2   113  VAL113      0.2617
    117  O          6.2510   15.8330  -25.1750 O.2   113  VAL113     -0.2715
    118  CB         3.3110   15.1160  -24.4450 C.3   113  VAL113      0.0290
    119  CG1        3.3430   15.3650  -22.9560 C.3   113  VAL113      0.0023
    120  CG2        1.8910   14.7810  -24.9270 C.3   113  VAL113      0.0023
    121  N          5.4900   17.5680  -23.9360 N.am  114  GLY114     -0.1940
    122  CA         6.7770   17.9560  -23.3860 C.3   114  GLY114      0.2014
    123  C          6.7170   18.1180  -21.8710 C.2   114  GLY114      0.2638
    124  O          5.7400   18.6600  -21.3210 O.2   114  GLY114     -0.2714
    125  N          7.7560   17.6500  -21.1900 N.am  115  ILE115     -0.1977
    126  CA         7.8560   17.8180  -19.7320 C.3   115  ILE115      0.1596
    127  C          9.1400   18.5420  -19.4480 C.2   115  ILE115      0.2287
    128  O         10.1520   18.1670  -19.9470 O.2   115  ILE115     -0.2864
    129  CB         7.8760   16.4880  -18.9750 C.3   115  ILE115      0.0276
    130  CG1        6.7300   15.5720  -19.3900 C.3   115  ILE115      0.0022
    131  CG2        7.7930   16.7210  -17.4670 C.3   115  ILE115      0.0022
    132  CD1        5.3630   16.0450  -19.0190 C.3   115  ILE115      0.0001
    133  N         10.4080   25.8960  -23.1910 N.3   123  TYR123     -0.1241
    134  CA        10.3810   24.5670  -23.7970 C.3   123  TYR123      0.1605
    135  C          9.3360   24.5060  -24.9570 C.2   123  TYR123      0.2264
    136  O          9.5740   23.8800  -25.9670 O.2   123  TYR123     -0.2867
    137  CB        10.1610   23.5040  -22.7080 C.3   123  TYR123      0.0534
    138  CG        10.4930   22.0730  -23.1000 C.ar  123  TYR123     -0.0201
    139  CD1       11.6790   21.7330  -23.7620 C.ar  123  TYR123     -0.0009
    140  CD2        9.6200   21.0510  -22.8060 C.ar  123  TYR123     -0.0009
    141  CE1       11.9490   20.4090  -24.1290 C.ar  123  TYR123      0.0417
    142  CE2        9.8900   19.7360  -23.1400 C.ar  123  TYR123      0.0417
    143  CZ        11.0310   19.4160  -23.8120 C.ar  123  TYR123      0.1957
    144  OH        11.2210   18.1000  -24.1320 O.3   123  TYR123     -0.2866
    145  N         10.5630   23.5130  -28.8570 N.3   127  LYS127     -0.1245
    146  CA         9.8540   22.4430  -29.5620 C.3   127  LYS127      0.1561
    147  C          9.3320   22.9480  -30.9100 C.2   127  LYS127      0.2260
    148  O          9.4150   22.2560  -31.9090 O.2   127  LYS127     -0.2867
    149  CB         8.6940   21.9290  -28.7450 C.3   127  LYS127      0.0271
    150  CG         9.0820   21.0420  -27.5840 C.3   127  LYS127      0.0035
    151  CD         9.1160   19.5700  -27.9790 C.3   127  LYS127      0.0206
    152  CE         9.4830   18.6720  -26.8020 C.3   127  LYS127      0.1093
    153  NZ         9.4780   17.2140  -27.1170 N.3   127  LYS127     -0.1314
    154  N         11.6410   23.1410  -34.0010 N.3   130  LYS130     -0.1245
    155  CA        11.6890   21.9510  -34.8520 C.3   130  LYS130      0.1561
    156  C         10.3670   21.7460  -35.5720 C.2   130  LYS130      0.2260
    157  O         10.3410   21.5420  -36.7750 O.2   130  LYS130     -0.2867
    158  CB        11.9370   20.6950  -34.0650 C.3   130  LYS130      0.0271
    159  CG        13.3200   20.5360  -33.4540 C.3   130  LYS130      0.0035
    160  CD        13.3010   19.1740  -32.7560 C.3   130  LYS130      0.0206
    161  CE        14.6090   18.7720  -32.1190 C.3   130  LYS130      0.1093
    162  NZ        14.6510   17.2660  -31.9990 N.3   130  LYS130     -0.1314
@<TRIPOS>BOND
     1   157   156    2
     2    81    80    2
     3   156   155    1
     4    89    90    1
     5    80    79    1
     6    95    94    1
     7   155   158    1
     8   155   154    1
     9    90    93    1
    10    90    91    1
    11    88    86    1
    12    93    94    1
    13   158   159    1
    14    82    79    1
    15    82    83    1
    16    85    86    2
    17    85    84    1
    18    79    78    1
    19    94    96    1
    20   159   160    1
    21    86    87    1
    22    91    92    2
    23    84    83    1
    24   160   161    1
    25   161   162    1
    26   148   147    2
    27   147   146    1
    28    24    26   ar
    29    24    22   ar
    30    26    25   ar
    31    22    21   ar
    32    97    98    1
    33   112   111   ar
    34   105   106    1
    35   109   106    1
    36   109   110    1
    37   146   145    1
    38   146   149    1
    39    25    23   ar
    40   106   107    1
    41    21    23   ar
    42    21    20    1
    43   110   111    1
    44    98    99    1
    45    98   101    1
    46    99   100    2
    47    17    16    1
    48    17    18    1
    49    17    20    1
    50   111   113   ar
    51   149   150    1
    52    69    70    1
    53    18    19    2
    54   151   150    1
    55   151   152    1
    56   103   102   ar
    57    70    71    1
    58    70    73    1
    59   101   102    1
    60   107   108    2
    61   107   114   am
    62   102   104   ar
    63   153   152    1
    64    77    75   ar
    65    71    72    2
    66    76    75   ar
    67     4     3    2
    68   114   115    1
    69    73    74    1
    70    75    74    1
    71     7     5    1
    72   136   135    2
    73     2     3    1
    74     2     5    1
    75     2     1    1
    76     6     5    1
    77     3     8   am
    78    11    10    2
    79   115   116    1
    80   115   118    1
    81    35    33   ar
    82   117   116    2
    83    27    28    1
    84    10     9    1
    85   135   134    1
    86   120   118    1
    87   116   121   am
    88    67    68   ar
    89    67    65   ar
    90     8     9    1
    91   118   119    1
    92    32    33    1
    93    32    31    1
    94    68    66   ar
    95     9    12    1
    96    33    34   ar
    97   144   143    1
    98   141   143   ar
    99   141   139   ar
   100   121   122    1
   101   143   142   ar
   102   134   133    1
   103   134   137    1
   104    28    31    1
   105    28    29    1
   106   139   138   ar
   107    65    64   ar
   108   122   123    1
   109   142   140   ar
   110   138   140   ar
   111   138   137    1
   112    66    64   ar
   113    30    29    2
   114    12    13    1
   115    64    63    1
   116    43    42    1
   117    42    41    1
   118    13    14    1
   119   123   124    2
   120   123   125   am
   121    58    56    1
   122   125   126    1
   123    63    60    1
   124    62    61    2
   125    41    40    1
   126    56    53    1
   127    56    57    1
   128    61    60    1
   129    14    15    1
   130    60    59    1
   131    55    54    2
   132    53    54    1
   133    53    52    1
   134   128   127    2
   135   126   127    1
   136   126   129    1
   137    40    37    1
   138   130   132    1
   139   130   129    1
   140   129   131    1
   141    52    46   am
   142    39    38    2
   143    47    46    2
   144    46    45    1
   145    37    38    1
   146    37    36    1
   147    48    45    1
   148    48    49    1
   149    45    44    1
   150    51    49   am
   151    49    50    2
