@<TRIPOS>MOLECULE
tmp/6fsdA01.pdb
 108 103 0 0 0
SMALL
GASTEIGER

@<TRIPOS>ATOM
      1  N         16.8190    3.4750   13.8580 N.3   321  VAL321     -0.1231
      2  CA        17.6030    4.2990   12.9340 C.3   321  VAL321      0.1692
      3  C         16.6910    5.2870   12.2320 C.2   321  VAL321      0.2593
      4  O         15.5290    4.9940   11.9450 O.2   321  VAL321     -0.2718
      5  CB        18.3480    3.4720   11.8640 C.3   321  VAL321      0.0266
      6  CG1       19.2800    2.4500   12.5080 C.3   321  VAL321      0.0020
      7  CG2       17.3610    2.8180   10.9030 C.3   321  VAL321      0.0020
      8  N         17.2270    6.4520   11.9170 N.am  322  GLY322     -0.1942
      9  CA        16.4140    7.4030   11.1840 C.3   322  GLY322      0.2014
     10  C         17.2100    8.6250   10.8010 C.2   322  GLY322      0.2638
     11  O         18.4140    8.7210   11.0640 O.2   322  GLY322     -0.2714
     12  N         16.5020    9.5710   10.1780 N.am  323  VAL323     -0.1977
     13  CA        17.1060   10.7190    9.5170 C.3   323  VAL323      0.1596
     14  C         16.1710   11.9000    9.7060 C.2   323  VAL323      0.2287
     15  O         14.9830   11.7430    9.9900 O.2   323  VAL323     -0.2864
     16  CB        17.3520   10.4750    7.9970 C.3   323  VAL323      0.0276
     17  CG1       18.2890    9.2920    7.7480 C.3   323  VAL323      0.0022
     18  CG2       16.0300   10.2600    7.2550 C.3   323  VAL323      0.0022
     19  N         21.2620    9.9290    4.3630 N.3   401  VAL401     -0.1245
     20  CA        20.0250    9.2170    3.9900 C.3   401  VAL401      0.1561
     21  C         20.3100    7.8880    3.3030 C.2   401  VAL401      0.2260
     22  O         19.5570    6.9250    3.4740 O.2   401  VAL401     -0.2867
     23  CB        19.1090   10.0780    3.0940 C.3   401  VAL401      0.0252
     24  CG1       17.8520    9.3120    2.7730 C.3   401  VAL401      0.0019
     25  CG2       18.7340   11.3730    3.7750 C.3   401  VAL401      0.0019
     26  N         22.3480    5.4080    5.7150 N.3   404  VAL404     -0.1231
     27  CA        21.4360    4.8560    6.7170 C.3   404  VAL404      0.1692
     28  C         20.4900    3.8530    6.0760 C.2   404  VAL404      0.2591
     29  O         20.2830    2.7520    6.6020 O.2   404  VAL404     -0.2718
     30  CB        20.6560    5.9690    7.4360 C.3   404  VAL404      0.0266
     31  CG1       19.5840    5.3670    8.3090 C.3   404  VAL404      0.0020
     32  CG2       21.5800    6.8160    8.2510 C.3   404  VAL404      0.0020
     33  N         19.8880    4.2240    4.9380 N.am  405  ALA405     -0.1980
     34  CA        19.0330    3.2850    4.2110 C.3   405  ALA405      0.1597
     35  C         19.7720    1.9890    3.9260 C.2   405  ALA405      0.2287
     36  O         19.2380    0.8960    4.1430 O.2   405  ALA405     -0.2864
     37  CB        18.5410    3.9160    2.9110 C.3   405  ALA405      0.0319
     38  N         12.6120    2.1800   11.8730 N.3   420  ALA420     -0.1231
     39  CA        13.1060    3.2960   11.0730 C.3   420  ALA420      0.1694
     40  C         12.1340    4.4650   11.1150 C.2   420  ALA420      0.2592
     41  O         10.9150    4.2710   11.1000 O.2   420  ALA420     -0.2718
     42  CB        13.3570    2.8780    9.6250 C.3   420  ALA420      0.0304
     43  N         12.6820    5.6830   11.1680 N.am  421  TYR421     -0.1962
     44  CA        11.8820    6.8990   11.2480 C.3   421  TYR421      0.1771
     45  C         12.4930    7.9610   10.3420 C.2   421  TYR421      0.2619
     46  O         13.6820    7.9190   10.0180 O.2   421  TYR421     -0.2715
     47  CB        11.7940    7.4520   12.6920 C.3   421  TYR421      0.0574
     48  CG        13.1070    8.0500   13.1590 C.ar  421  TYR421     -0.0198
     49  CD1       13.4020    9.3960   12.9500 C.ar  421  TYR421     -0.0009
     50  CD2       14.0700    7.2610   13.7660 C.ar  421  TYR421     -0.0009
     51  CE1       14.6220    9.9330   13.3440 C.ar  421  TYR421      0.0417
     52  CE2       15.2770    7.7930   14.1800 C.ar  421  TYR421      0.0417
     53  CZ        15.5520    9.1220   13.9580 C.ar  421  TYR421      0.1957
     54  OH        16.7610    9.6440   14.3610 O.3   421  TYR421     -0.2866
     55  N         11.6590    8.9260    9.9510 N.am  422  ILE422     -0.1977
     56  CA        12.1020   10.2160    9.4400 C.3   422  ILE422      0.1596
     57  C         11.5250   11.2910   10.3560 C.2   422  ILE422      0.2287
     58  O         10.3410   11.2390   10.7260 O.2   422  ILE422     -0.2864
     59  CB        11.6830   10.4380    7.9740 C.3   422  ILE422      0.0276
     60  CG1       12.1630   11.7960    7.4610 C.3   422  ILE422      0.0022
     61  CG2       10.1890   10.3660    7.8160 C.3   422  ILE422      0.0022
     62  CD1       12.5470   11.7680    5.9910 C.3   422  ILE422      0.0001
     63  N          8.6080    2.4310    7.4770 N.3   503  TYR503     -0.1241
     64  CA         9.1890    3.3980    8.3860 C.3   503  TYR503      0.1605
     65  C          8.0710    4.3460    8.8090 C.2   503  TYR503      0.2264
     66  O          7.0020    4.3830    8.1950 O.2   503  TYR503     -0.2867
     67  CB        10.3750    4.1290    7.7330 C.3   503  TYR503      0.0534
     68  CG         9.9900    5.1250    6.6570 C.ar  503  TYR503     -0.0201
     69  CD1        9.8700    4.7450    5.3200 C.ar  503  TYR503     -0.0009
     70  CD2        9.7520    6.4550    6.9770 C.ar  503  TYR503     -0.0009
     71  CE1        9.5160    5.6750    4.3420 C.ar  503  TYR503      0.0417
     72  CE2        9.3950    7.3800    6.0160 C.ar  503  TYR503      0.0417
     73  CZ         9.2800    6.9950    4.6990 C.ar  503  TYR503      0.1957
     74  OH         8.9230    7.9540    3.7680 O.3   503  TYR503     -0.2866
     75  N          5.0760    4.7340    6.1910 N.3   514  ARG514     -0.1245
     76  CA         5.3930    4.8690    4.7820 C.3   514  ARG514      0.1563
     77  C          6.2740    3.7100    4.3540 C.2   514  ARG514      0.2260
     78  O          6.7010    2.8890    5.1670 O.2   514  ARG514     -0.2867
     79  CB         6.0860    6.2000    4.4860 C.3   514  ARG514      0.0307
     80  CG         5.2990    7.3910    4.9430 C.3   514  ARG514      0.0489
     81  CD         5.9650    8.6820    4.5500 C.3   514  ARG514      0.2205
     82  NE         5.3970    9.7900    5.3090 N.pl3 514  ARG514     -0.0865
     83  CZ         6.0600   10.9080    5.5770 C.cat 514  ARG514      0.5346
     84  NH1        7.3050   11.0500    5.1430 N.pl3 514  ARG514      0.1354
     85  NH2        5.4920   11.8750    6.2830 N.pl3 514  ARG514      0.1354
     86  N          9.6320    2.5030    1.7080 N.3   516  GLY516     -0.1210
     87  CA        10.7760    2.8990    0.9130 C.3   516  GLY516      0.1956
     88  C         11.6390    3.9750    1.5370 C.2   516  GLY516      0.2612
     89  O         11.1780    5.1000    1.7660 O.2   516  GLY516     -0.2717
     90  N         12.9040    3.6370    1.8050 N.am  517  LEU517     -0.1965
     91  CA        13.8750    4.5810    2.3630 C.3   517  LEU517      0.1728
     92  C         14.6080    5.2340    1.2010 C.2   517  LEU517      0.2616
     93  O         15.7240    4.8550    0.8370 O.2   517  LEU517     -0.2715
     94  CB        14.8460    3.8740    3.3040 C.3   517  LEU517      0.0311
     95  CG        14.2630    2.9580    4.3860 C.3   517  LEU517      0.0022
     96  CD1       15.3660    2.3870    5.2450 C.3   517  LEU517      0.0001
     97  CD2       13.2140    3.6570    5.2470 C.3   517  LEU517      0.0001
     98  N         13.9550    6.2300    0.6090 N.am  518  ARG518     -0.1977
     99  CA        14.4540    6.8820   -0.5920 C.3   518  ARG518      0.1597
    100  C         14.9830    5.8360   -1.5760 C.2   518  ARG518      0.2287
    101  O         16.1160    5.9010   -2.0620 O.2   518  ARG518     -0.2864
    102  CB        15.5130    7.9150   -0.2270 C.3   518  ARG518      0.0334
    103  CG        15.9980    8.7670   -1.3900 C.3   518  ARG518      0.0492
    104  CD        16.3210   10.1670   -0.9530 C.3   518  ARG518      0.2205
    105  NE        15.1140   10.8680   -0.5500 N.pl3 518  ARG518     -0.0865
    106  CZ        15.1170   11.9780    0.1700 C.cat 518  ARG518      0.5346
    107  NH1       16.2610   12.5160    0.5790 N.pl3 518  ARG518      0.1354
    108  NH2       13.9700   12.5410    0.4860 N.pl3 518  ARG518      0.1354
@<TRIPOS>BOND
     1   101   100    2
     2   100    99    1
     3   103   104    1
     4   103   102    1
     5   104   105    1
     6    99   102    1
     7    99    98    1
     8   105   106    2
     9   106   108    1
    10   106   107    1
    11    98    92   am
    12    93    92    2
    13    87    88    1
    14    87    86    1
    15    92    91    1
    16    88    89    2
    17    88    90   am
    18    90    91    1
    19    91    94    1
    20    24    23    1
    21    37    34    1
    22    23    25    1
    23    23    20    1
    24    21    22    2
    25    21    20    1
    26    94    95    1
    27    74    73    1
    28    35    36    2
    29    35    34    1
    30    20    19    1
    31    34    33    1
    32    71    73   ar
    33    71    69   ar
    34    77    76    1
    35    77    78    2
    36    95    96    1
    37    95    97    1
    38    79    76    1
    39    79    80    1
    40    81    80    1
    41    81    82    1
    42    73    72   ar
    43    76    75    1
    44    33    28   am
    45    84    83    1
    46    82    83    2
    47    69    68   ar
    48    83    85    1
    49    26    27    1
    50    62    60    1
    51    72    70   ar
    52    28    29    2
    53    28    27    1
    54    68    70   ar
    55    68    67    1
    56    27    30    1
    57    18    16    1
    58    30    32    1
    59    30    31    1
    60    60    59    1
    61    63    64    1
    62    67    64    1
    63    17    16    1
    64    61    59    1
    65    59    56    1
    66    16    13    1
    67    66    65    2
    68    64    65    1
    69    56    55    1
    70    56    57    1
    71    13    14    1
    72    13    12    1
    73    42    39    1
    74    14    15    2
    75    55    45   am
    76    46    45    2
    77    12    10   am
    78    45    44    1
    79    57    58    2
    80    10    11    2
    81    10     9    1
    82     7     5    1
    83    39    40    1
    84    39    38    1
    85    41    40    2
    86    40    43   am
    87    43    44    1
    88     9     8    1
    89    44    47    1
    90     5     6    1
    91     5     2    1
    92     8     3   am
    93     4     3    2
    94     3     2    1
    95    47    48    1
    96     2     1    1
    97    49    48   ar
    98    49    51   ar
    99    48    50   ar
   100    51    53   ar
   101    50    52   ar
   102    53    52   ar
   103    53    54    1
