@<TRIPOS>MOLECULE
tmp/6fsdB00.pdb
 199 201 0 0 0
SMALL
GASTEIGER

@<TRIPOS>ATOM
      1  N         11.1750   -9.5830  -46.7610 N.3    69  TYR69      -0.1241
      2  CA        10.9440  -10.6290  -45.7820 C.3    69  TYR69       0.1605
      3  C          9.4850  -10.6440  -45.3290 C.2    69  TYR69       0.2264
      4  O          8.8550   -9.5950  -45.1600 O.2    69  TYR69      -0.2867
      5  CB        11.8940  -10.4090  -44.6040 C.3    69  TYR69       0.0534
      6  CG        11.6710  -11.3310  -43.4360 C.ar   69  TYR69      -0.0201
      7  CD1       10.8670  -10.9520  -42.3620 C.ar   69  TYR69      -0.0009
      8  CD2       12.2580  -12.5800  -43.3940 C.ar   69  TYR69      -0.0009
      9  CE1       10.6580  -11.7980  -41.2770 C.ar   69  TYR69       0.0417
     10  CE2       12.0480  -13.4330  -42.3130 C.ar   69  TYR69       0.0417
     11  CZ        11.2530  -13.0370  -41.2500 C.ar   69  TYR69       0.1957
     12  OH        11.0550  -13.8960  -40.1830 O.3    69  TYR69      -0.2866
     13  N          6.8130  -12.1790  -42.4280 N.3    71  ASP71      -0.1239
     14  CA         6.8990  -12.5990  -41.0410 C.3    71  ASP71       0.1674
     15  C          6.1930  -13.9310  -40.8280 C.2    71  ASP71       0.2266
     16  O          5.0790  -14.1420  -41.3100 O.2    71  ASP71      -0.2867
     17  CB         6.2780  -11.5440  -40.1320 C.3    71  ASP71       0.1410
     18  CG         6.5030  -11.8440  -38.6760 C.2    71  ASP71       0.3668
     19  OD1        5.5900  -12.4100  -38.0210 O.co2  71  ASP71      -0.2456
     20  OD2        7.6180  -11.5350  -38.2050 O.co2  71  ASP71      -0.2456
     21  N          0.3620   -6.5160  -41.3660 N.3    83  TRP83      -0.1241
     22  CA         1.5320   -5.8390  -41.8940 C.3    83  TRP83       0.1605
     23  C          2.2400   -6.6390  -42.9810 C.2    83  TRP83       0.2264
     24  O          3.1470   -6.1110  -43.6130 O.2    83  TRP83      -0.2867
     25  CB         2.5170   -5.5260  -40.7550 C.3    83  TRP83       0.0550
     26  CG         1.8560   -4.9550  -39.5310 C.ar   83  TRP83       0.0003
     27  CD1        1.5790   -5.6120  -38.3660 C.ar   83  TRP83       0.0946
     28  CD2        1.3880   -3.6120  -39.3500 C.ar   83  TRP83       0.0152
     29  NE1        0.9710   -4.7700  -37.4810 N.ar   83  TRP83      -0.2442
     30  CE2        0.8370   -3.5350  -38.0560 C.ar   83  TRP83       0.0810
     31  CE3        1.3760   -2.4690  -40.1580 C.ar   83  TRP83       0.0012
     32  CZ2        0.2830   -2.3610  -37.5480 C.ar   83  TRP83       0.0191
     33  CZ3        0.8230   -1.3060  -39.6490 C.ar   83  TRP83       0.0001
     34  CH2        0.2840   -1.2610  -38.3570 C.ar   83  TRP83       0.0015
     35  N          6.1240    2.3700  -42.7150 N.3   117  GLY117     -0.1210
     36  CA         7.1640    1.7970  -41.8920 C.3   117  GLY117      0.1956
     37  C          7.3480    0.3180  -42.1700 C.2   117  GLY117      0.2612
     38  O          6.8330   -0.2340  -43.1460 O.2   117  GLY117     -0.2717
     39  N          8.1010   -0.3310  -41.2850 N.am  118  GLY118     -0.1942
     40  CA         8.4660   -1.7190  -41.4850 C.3   118  GLY118      0.2014
     41  C          9.9540   -1.9560  -41.3220 C.2   118  GLY118      0.2639
     42  O         10.5120   -2.8620  -41.9510 O.2   118  GLY118     -0.2714
     43  N         10.6080   -1.1370  -40.4960 N.am  119  GLY119     -0.1954
     44  CA        12.0110   -1.3410  -40.1810 C.3   119  GLY119      0.1869
     45  C         12.9570   -1.2730  -41.3570 C.2   119  GLY119      0.2309
     46  O         14.0490   -1.8430  -41.2990 O.2   119  GLY119     -0.2863
     47  N         12.8290   -2.9480  -43.8420 N.3   121  TYR121     -0.1227
     48  CA        12.9790   -4.2880  -44.4050 C.3   121  TYR121      0.1736
     49  C         11.6630   -4.8450  -44.9320 C.2   121  TYR121      0.2596
     50  O         11.6170   -6.0140  -45.3440 O.2   121  TYR121     -0.2718
     51  CB        13.5740   -5.2610  -43.3700 C.3   121  TYR121      0.0548
     52  CG        12.6290   -5.6380  -42.2530 C.ar  121  TYR121     -0.0200
     53  CD1       11.7310   -6.6780  -42.3970 C.ar  121  TYR121     -0.0009
     54  CD2       12.6550   -4.9650  -41.0420 C.ar  121  TYR121     -0.0009
     55  CE1       10.8640   -7.0190  -41.3900 C.ar  121  TYR121      0.0417
     56  CE2       11.7890   -5.3020  -40.0130 C.ar  121  TYR121      0.0417
     57  CZ        10.8980   -6.3300  -40.1910 C.ar  121  TYR121      0.1957
     58  OH        10.0380   -6.6610  -39.1750 O.3   121  TYR121     -0.2866
     59  N         10.6010   -4.0490  -44.9360 N.am  122  SER122     -0.1952
     60  CA         9.2590   -4.5560  -45.1750 C.3   122  SER122      0.1924
     61  C          8.3250   -3.3650  -45.2780 C.2   122  SER122      0.2314
     62  O          8.7320   -2.2170  -45.0890 O.2   122  SER122     -0.2863
     63  CB         8.8060   -5.5000  -44.0590 C.3   122  SER122      0.2116
     64  OG         8.6620   -4.7980  -42.8270 O.3   122  SER122     -0.2180
     65  N          5.4840    6.5680  -40.3770 N.3   199  GLU199     -0.1231
     66  CA         5.5520    5.9640  -39.0590 C.3   199  GLU199      0.1699
     67  C          6.6400    4.8920  -38.9970 C.2   199  GLU199      0.2592
     68  O          6.8980    4.1820  -39.9660 O.2   199  GLU199     -0.2718
     69  CB         4.1880    5.4000  -38.6830 C.3   199  GLU199      0.0402
     70  CG         4.1130    4.8650  -37.2790 C.3   199  GLU199      0.1161
     71  CD         4.2940    3.3830  -37.2790 C.2   199  GLU199      0.3649
     72  OE1        3.8560    2.7690  -38.2490 O.co2 199  GLU199     -0.2457
     73  OE2        4.8730    2.8180  -36.3390 O.co2 199  GLU199     -0.2457
     74  N          7.2940    4.7980  -37.8390 N.am  200  SER200     -0.1952
     75  CA         8.4170    3.8820  -37.5990 C.3   200  SER200      0.1924
     76  C          9.5310    4.1890  -38.5930 C.2   200  SER200      0.2314
     77  O         10.0210    5.3330  -38.6100 O.2   200  SER200     -0.2863
     78  CB         7.9130    2.4460  -37.6160 C.3   200  SER200      0.2116
     79  OG         8.9220    1.5980  -37.0850 O.3   200  SER200     -0.2180
     80  N         18.7220  -11.4650  -42.1160 N.3   276  TRP276     -0.1227
     81  CA        18.8660  -11.3170  -40.6760 C.3   276  TRP276      0.1737
     82  C         20.1660  -11.8970  -40.1380 C.2   276  TRP276      0.2595
     83  O         20.4860  -11.6640  -38.9690 O.2   276  TRP276     -0.2718
     84  CB        17.6720  -11.9630  -39.9580 C.3   276  TRP276      0.0564
     85  CG        16.3550  -11.2850  -40.2870 C.ar  276  TRP276      0.0003
     86  CD1       15.4960  -11.6080  -41.3010 C.ar  276  TRP276      0.0946
     87  CD2       15.7660  -10.1560  -39.6110 C.ar  276  TRP276      0.0152
     88  NE1       14.4090  -10.7620  -41.2890 N.ar  276  TRP276     -0.2442
     89  CE2       14.5550   -9.8590  -40.2690 C.ar  276  TRP276      0.0810
     90  CE3       16.1450   -9.3720  -38.5120 C.ar  276  TRP276      0.0012
     91  CZ2       13.7190   -8.8170  -39.8610 C.ar  276  TRP276      0.0191
     92  CZ3       15.3100   -8.3350  -38.1110 C.ar  276  TRP276      0.0001
     93  CH2       14.1120   -8.0730  -38.7800 C.ar  276  TRP276      0.0015
     94  N         20.9350  -12.6220  -40.9400 N.am  277  HIS277     -0.1975
     95  CA        22.1370  -13.2440  -40.4030 C.3   277  HIS277      0.1656
     96  C         23.3200  -12.2990  -40.3140 C.2   277  HIS277      0.2291
     97  O         24.3680  -12.7130  -39.8190 O.2   277  HIS277     -0.2864
     98  CB        22.5510  -14.4500  -41.2390 C.3   277  HIS277      0.0771
     99  CG        21.5190  -15.5230  -41.2990 C.ar  277  HIS277      0.0820
    100  ND1       21.5090  -16.4870  -42.2860 N.ar  277  HIS277     -0.2267
    101  CD2       20.4590  -15.7840  -40.5000 C.ar  277  HIS277      0.1154
    102  CE1       20.4840  -17.2970  -42.0910 C.ar  277  HIS277      0.1986
    103  NE2       19.8300  -16.8920  -41.0140 N.ar  277  HIS277     -0.2212
    104  N         19.8780   -9.1730  -31.1890 N.3   283  SER283     -0.1202
    105  CA        19.2550   -7.9060  -30.8750 C.3   283  SER283      0.2020
    106  C         17.7540   -7.9740  -31.1030 C.2   283  SER283      0.2619
    107  O         17.2000   -8.9850  -31.5320 O.2   283  SER283     -0.2717
    108  CB        19.9030   -6.7770  -31.6800 C.3   283  SER283      0.2103
    109  OG        20.3420   -7.2240  -32.9440 O.3   283  SER283     -0.2182
    110  N         17.1060   -6.8740  -30.7570 N.am  284  ILE284     -0.1965
    111  CA        15.6900   -6.6390  -30.9680 C.3   284  ILE284      0.1727
    112  C         15.5960   -5.1700  -31.3590 C.2   284  ILE284      0.2616
    113  O         16.4030   -4.3530  -30.9110 O.2   284  ILE284     -0.2715
    114  CB        14.8630   -6.9900  -29.7000 C.3   284  ILE284      0.0290
    115  CG1       13.3810   -6.8660  -29.9690 C.3   284  ILE284      0.0022
    116  CG2       15.2320   -6.1480  -28.4860 C.3   284  ILE284      0.0023
    117  CD1       12.8670   -8.1340  -30.4530 C.3   284  ILE284      0.0001
    118  N         14.6620   -4.8410  -32.2540 N.am  285  PHE285     -0.1960
    119  CA        14.5810   -3.4820  -32.8010 C.3   285  PHE285      0.1771
    120  C         15.9130   -3.0880  -33.4400 C.2   285  PHE285      0.2619
    121  O         16.4120   -1.9750  -33.2560 O.2   285  PHE285     -0.2715
    122  CB        14.1650   -2.4740  -31.7220 C.3   285  PHE285      0.0574
    123  CG        13.2770   -1.3470  -32.2100 C.ar  285  PHE285     -0.0200
    124  CD1       12.1850   -0.9310  -31.4440 C.ar  285  PHE285     -0.0042
    125  CD2       13.5390   -0.6800  -33.4090 C.ar  285  PHE285     -0.0042
    126  CE1       11.3650    0.1180  -31.8760 C.ar  285  PHE285     -0.0003
    127  CE2       12.7230    0.3600  -33.8450 C.ar  285  PHE285     -0.0003
    128  CZ        11.6330    0.7610  -33.0880 C.ar  285  PHE285     -0.0000
    129  N         16.5170   -4.0310  -34.1610 N.am  286  ARG286     -0.1963
    130  CA        17.6510   -3.7600  -35.0290 C.3   286  ARG286      0.1729
    131  C         17.3970   -4.3980  -36.3900 C.2   286  ARG286      0.2616
    132  O         16.7550   -5.4470  -36.4880 O.2   286  ARG286     -0.2715
    133  CB        18.9610   -4.2860  -34.4560 C.3   286  ARG286      0.0348
    134  CG        19.4340   -3.5650  -33.2230 C.3   286  ARG286      0.0492
    135  CD        19.8230   -2.1300  -33.4860 C.3   286  ARG286      0.2205
    136  NE        20.3470   -1.5190  -32.2680 N.pl3 286  ARG286     -0.0865
    137  CZ        19.5890   -1.0550  -31.2760 C.cat 286  ARG286      0.5346
    138  NH1       18.2680   -1.1130  -31.3600 N.pl3 286  ARG286      0.1354
    139  NH2       20.1460   -0.5240  -30.1980 N.pl3 286  ARG286      0.1354
    140  N         17.9030   -3.7630  -37.4450 N.am  287  PHE287     -0.1974
    141  CA        17.5840   -4.1790  -38.8020 C.3   287  PHE287      0.1639
    142  C         18.8270   -4.0900  -39.6760 C.2   287  PHE287      0.2290
    143  O         19.5710   -3.1060  -39.6300 O.2   287  PHE287     -0.2864
    144  CB        16.4440   -3.3280  -39.3830 C.3   287  PHE287      0.0560
    145  CG        15.2960   -3.1080  -38.4170 C.ar  287  PHE287     -0.0200
    146  CD1       14.5050   -4.1720  -37.9990 C.ar  287  PHE287     -0.0042
    147  CD2       15.0150   -1.8410  -37.9250 C.ar  287  PHE287     -0.0042
    148  CE1       13.4530   -3.9800  -37.1050 C.ar  287  PHE287     -0.0003
    149  CE2       13.9680   -1.6470  -37.0310 C.ar  287  PHE287     -0.0003
    150  CZ        13.1870   -2.7220  -36.6230 C.ar  287  PHE287     -0.0000
    151  N          5.3640   -4.4720  -28.4920 N.3   327  TYR327     -0.1227
    152  CA         5.3200   -5.2580  -29.7280 C.3   327  TYR327      0.1736
    153  C          6.5850   -6.0800  -29.9120 C.2   327  TYR327      0.2595
    154  O          6.5270   -7.2700  -30.2160 O.2   327  TYR327     -0.2718
    155  CB         5.1270   -4.3340  -30.9430 C.3   327  TYR327      0.0548
    156  CG         4.7200   -5.0150  -32.2410 C.ar  327  TYR327     -0.0200
    157  CD1        3.5050   -4.7190  -32.8470 C.ar  327  TYR327     -0.0009
    158  CD2        5.5590   -5.9350  -32.8750 C.ar  327  TYR327     -0.0009
    159  CE1        3.1190   -5.3380  -34.0510 C.ar  327  TYR327      0.0417
    160  CE2        5.1870   -6.5670  -34.0710 C.ar  327  TYR327      0.0417
    161  CZ         3.9650   -6.2650  -34.6580 C.ar  327  TYR327      0.1957
    162  OH         3.5990   -6.8790  -35.8510 O.3   327  TYR327     -0.2866
    163  N          7.7350   -5.4620  -29.7000 N.am  328  PHE328     -0.1976
    164  CA         8.9820   -6.0810  -30.1040 C.3   328  PHE328      0.1639
    165  C          9.4040   -7.2370  -29.2200 C.2   328  PHE328      0.2290
    166  O         10.1160   -8.1090  -29.7060 O.2   328  PHE328     -0.2864
    167  CB        10.0810   -5.0290  -30.1490 C.3   328  PHE328      0.0560
    168  CG         9.8530   -4.0070  -31.2080 C.ar  328  PHE328     -0.0200
    169  CD1        9.1280   -2.8540  -30.9280 C.ar  328  PHE328     -0.0042
    170  CD2       10.3080   -4.2220  -32.5060 C.ar  328  PHE328     -0.0042
    171  CE1        8.8830   -1.9190  -31.9130 C.ar  328  PHE328     -0.0003
    172  CE2       10.0820   -3.2850  -33.4890 C.ar  328  PHE328     -0.0003
    173  CZ         9.3640   -2.1320  -33.1990 C.ar  328  PHE328     -0.0000
    174  N          9.5250  -10.9010  -30.2220 N.3   331  TYR331     -0.1241
    175  CA        10.4070  -11.1870  -31.3550 C.3   331  TYR331      0.1605
    176  C         11.8420  -11.4370  -30.9130 C.2   331  TYR331      0.2264
    177  O         12.7840  -11.0550  -31.6080 O.2   331  TYR331     -0.2867
    178  CB        10.3590  -10.0450  -32.3740 C.3   331  TYR331      0.0534
    179  CG         9.1240  -10.0590  -33.2450 C.ar  331  TYR331     -0.0201
    180  CD1        7.8910   -9.6760  -32.7380 C.ar  331  TYR331     -0.0009
    181  CD2        9.1920  -10.4580  -34.5740 C.ar  331  TYR331     -0.0009
    182  CE1        6.7580   -9.7020  -33.5260 C.ar  331  TYR331      0.0417
    183  CE2        8.0680  -10.4780  -35.3680 C.ar  331  TYR331      0.0417
    184  CZ         6.8550  -10.1060  -34.8410 C.ar  331  TYR331      0.1957
    185  OH         5.7310  -10.1290  -35.6280 O.3   331  TYR331     -0.2866
    186  N          3.3920   -0.3380  -30.8250 N.3   437  HIS437     -0.1226
    187  CA         3.9910    0.3060  -31.9840 C.3   437  HIS437      0.1752
    188  C          3.1930    0.0370  -33.2490 C.2   437  HIS437      0.2596
    189  O          3.1240   -1.1020  -33.7240 O.2   437  HIS437     -0.2718
    190  CB         5.4280   -0.2040  -32.1230 C.3   437  HIS437      0.0759
    191  CG         6.2190    0.4290  -33.2220 C.ar  437  HIS437      0.0818
    192  ND1        6.5750    1.7600  -33.2180 N.ar  437  HIS437     -0.2268
    193  CD2        6.7810   -0.1080  -34.3300 C.ar  437  HIS437      0.1154
    194  CE1        7.3090    2.0200  -34.2840 C.ar  437  HIS437      0.1986
    195  NE2        7.4480    0.9030  -34.9760 N.ar  437  HIS437     -0.2212
    196  N          2.5710    1.0780  -33.7870 N.am  438  GLY438     -0.1957
    197  CA         1.8770    1.0130  -35.0490 C.3   438  GLY438      0.1869
    198  C          0.3810    1.1880  -34.9510 C.2   438  GLY438      0.2309
    199  O         -0.2620    1.4620  -35.9800 O.2   438  GLY438     -0.2863
@<TRIPOS>BOND
     1     1     2    1
     2     2     3    1
     3     2     5    1
     4    50    49    2
     5     3     4    2
     6    61    60    1
     7    61    62    2
     8    60    59    1
     9    60    63    1
    10    59    49   am
    11    49    48    1
    12     5     6    1
    13    48    47    1
    14    48    51    1
    15    63    64    1
    16    24    23    2
    17     6     8   ar
    18     6     7   ar
    19     8    10   ar
    20    51    52    1
    21    38    37    2
    22    23    22    1
    23    35    36    1
    24    13    14    1
    25    53    52   ar
    26    53    55   ar
    27     7     9   ar
    28    10    11   ar
    29   100   102   ar
    30   100    99   ar
    31    52    54   ar
    32    37    36    1
    33    37    39   am
    34    80    81    1
    35   102   103   ar
    36    42    41    2
    37    22    21    1
    38    22    25    1
    39    40    41    1
    40    40    39    1
    41    55    57   ar
    42    45    46    2
    43    45    44    1
    44    41    43   am
    45    16    15    2
    46    86    88   ar
    47    86    85   ar
    48    99    98    1
    49    99   101   ar
    50    88    89   ar
    51     9    11   ar
    52    11    12    1
    53    98    95    1
    54    54    56   ar
    55    14    15    1
    56    14    17    1
    57   103   101   ar
    58    94    95    1
    59    94    82   am
    60    25    26    1
    61    81    82    1
    62    81    84    1
    63    43    44    1
    64    95    96    1
    65    65    66    1
    66    96    97    2
    67    85    84    1
    68    85    87   ar
    69    89    91   ar
    70    89    87   ar
    71    57    56   ar
    72    57    58    1
    73    31    33   ar
    74    31    28   ar
    75    82    83    2
    76    17    18    1
    77    68    67    2
    78    91    93   ar
    79   142   143    2
    80   142   141    1
    81    33    34   ar
    82    87    90   ar
    83    26    28   ar
    84    26    27   ar
    85   144   141    1
    86   144   145    1
    87    28    30   ar
    88    66    67    1
    89    66    69    1
    90    67    74   am
    91   141   140    1
    92    93    92   ar
    93    69    70    1
    94    18    20   ar
    95    18    19   ar
    96    77    76    2
    97    76    75    1
    98    90    92   ar
    99   145   146   ar
   100   145   147   ar
   101    27    29   ar
   102    34    32   ar
   103    72    71   ar
   104    30    32   ar
   105    30    29   ar
   106   146   148   ar
   107   147   149   ar
   108    74    75    1
   109    78    75    1
   110    78    79    1
   111   140   131   am
   112    70    71    1
   113    71    73   ar
   114   148   150   ar
   115   149   150   ar
   116   132   131    2
   117   131   130    1
   118   199   198    2
   119   162   161    1
   120   185   184    1
   121   183   184   ar
   122   183   181   ar
   123   197   198    1
   124   197   196    1
   125   130   133    1
   126   130   129    1
   127   195   193   ar
   128   195   194   ar
   129   184   182   ar
   130   161   160   ar
   131   161   159   ar
   132   181   179   ar
   133   133   134    1
   134   193   191   ar
   135   194   192   ar
   136   129   120   am
   137   160   158   ar
   138   159   157   ar
   139   127   125   ar
   140   127   128   ar
   141   196   188   am
   142   189   188    2
   143   182   180   ar
   144   172   173   ar
   145   172   170   ar
   146   135   134    1
   147   135   136    1
   148   120   121    2
   149   120   119    1
   150   125   123   ar
   151   188   187    1
   152   179   180   ar
   153   179   178    1
   154   191   192   ar
   155   191   190    1
   156   173   171   ar
   157   128   126   ar
   158   109   108    1
   159   158   156   ar
   160   157   156   ar
   161   119   118    1
   162   119   122    1
   163   170   168   ar
   164   178   175    1
   165   136   137    2
   166   118   112   am
   167   156   155    1
   168   123   122    1
   169   123   124   ar
   170   190   187    1
   171   187   186    1
   172   171   169   ar
   173   126   124   ar
   174   108   105    1
   175   177   176    2
   176   107   106    2
   177   138   137    1
   178   112   111    1
   179   112   113    2
   180   175   176    1
   181   175   174    1
   182   137   139    1
   183   168   169   ar
   184   168   167    1
   185   104   105    1
   186   106   105    1
   187   106   110   am
   188   111   110    1
   189   111   114    1
   190   155   152    1
   191   117   115    1
   192   154   153    2
   193   167   164    1
   194   164   163    1
   195   164   165    1
   196   115   114    1
   197   153   152    1
   198   153   163   am
   199   152   151    1
   200   166   165    2
   201   114   116    1
