@<TRIPOS>MOLECULE
tmp/6fseA00.pdb
 190 191 0 0 0
SMALL
GASTEIGER

@<TRIPOS>ATOM
      1  N         38.7790   23.0740   17.5700 N.3    72  TYR72      -0.1241
      2  CA        38.5500   24.2830   16.7940 C.3    72  TYR72       0.1605
      3  C         37.2530   24.9510   17.2330 C.2    72  TYR72       0.2264
      4  O         36.2480   24.2830   17.4910 O.2    72  TYR72      -0.2867
      5  CB        38.5030   23.9380   15.3020 C.3    72  TYR72       0.0534
      6  CG        37.9840   25.0370   14.3990 C.ar   72  TYR72      -0.0201
      7  CD1       36.6340   25.1170   14.0730 C.ar   72  TYR72      -0.0009
      8  CD2       38.8450   25.9820   13.8550 C.ar   72  TYR72      -0.0009
      9  CE1       36.1550   26.1150   13.2440 C.ar   72  TYR72       0.0417
     10  CE2       38.3750   26.9840   13.0220 C.ar   72  TYR72       0.0417
     11  CZ        37.0290   27.0460   12.7200 C.ar   72  TYR72       0.1957
     12  OH        36.5540   28.0400   11.8940 O.3    72  TYR72      -0.2866
     13  N         34.2590   27.6130   16.2370 N.3    74  ASP74      -0.1239
     14  CA        33.6270   28.1680   15.0480 C.3    74  ASP74       0.1674
     15  C         33.4090   29.6660   15.2120 C.2    74  ASP74       0.2266
     16  O         32.8370   30.1160   16.2100 O.2    74  ASP74      -0.2867
     17  CB        32.2970   27.4690   14.7760 C.3    74  ASP74       0.1410
     18  CG        31.6710   27.9020   13.4650 C.2    74  ASP74       0.3668
     19  OD1       30.9090   28.8940   13.4630 O.co2  74  ASP74      -0.2456
     20  OD2       31.9470   27.2510   12.4360 O.co2  74  ASP74      -0.2456
     21  N         26.7070   25.2990   19.7980 N.3    86  TRP86      -0.1241
     22  CA        27.5720   24.1410   19.6270 C.3    86  TRP86       0.1605
     23  C         29.0180   24.4130   20.0120 C.2    86  TRP86       0.2264
     24  O         29.8250   23.4780   20.0160 O.2    86  TRP86      -0.2867
     25  CB        27.5190   23.6480   18.1710 C.3    86  TRP86       0.0550
     26  CG        26.1260   23.5470   17.6350 C.ar   86  TRP86       0.0003
     27  CD1       25.4930   24.4460   16.8290 C.ar   86  TRP86       0.0946
     28  CD2       25.1850   22.4950   17.8810 C.ar   86  TRP86       0.0152
     29  NE1       24.2180   24.0160   16.5510 N.ar   86  TRP86      -0.2442
     30  CE2       24.0040   22.8220   17.1860 C.ar   86  TRP86       0.0810
     31  CE3       25.2270   21.3080   18.6170 C.ar   86  TRP86       0.0012
     32  CZ2       22.8760   22.0030   17.2060 C.ar   86  TRP86       0.0191
     33  CZ3       24.1060   20.4970   18.6340 C.ar   86  TRP86       0.0001
     34  CH2       22.9470   20.8480   17.9350 C.ar   86  TRP86       0.0015
     35  N         28.2420   14.5700   18.8250 N.3   120  GLY120     -0.1210
     36  CA        28.8260   14.6990   17.5140 C.3   120  GLY120      0.1956
     37  C         29.6350   15.9740   17.3650 C.2   120  GLY120      0.2612
     38  O         29.8910   16.7060   18.3230 O.2   120  GLY120     -0.2717
     39  N         30.0310   16.2370   16.1260 N.am  121  GLY121     -0.1956
     40  CA        30.8390   17.4010   15.8270 C.3   121  GLY121      0.1869
     41  C         31.9700   17.0870   14.8730 C.2   121  GLY121      0.2309
     42  O         33.0600   17.6560   14.9870 O.2   121  GLY121     -0.2863
     43  N         35.9590   16.6070   15.2970 N.3   124  TYR124     -0.1227
     44  CA        36.8690   17.7120   15.5530 C.3   124  TYR124      0.1736
     45  C         36.3630   18.6660   16.6240 C.2   124  TYR124      0.2596
     46  O         37.1160   19.5540   17.0390 O.2   124  TYR124     -0.2718
     47  CB        37.1400   18.5060   14.2600 C.3   124  TYR124      0.0548
     48  CG        35.9780   19.3640   13.7960 C.ar  124  TYR124     -0.0200
     49  CD1       35.8590   20.6890   14.2040 C.ar  124  TYR124     -0.0009
     50  CD2       35.0060   18.8520   12.9460 C.ar  124  TYR124     -0.0009
     51  CE1       34.8010   21.4730   13.7890 C.ar  124  TYR124      0.0417
     52  CE2       33.9430   19.6320   12.5250 C.ar  124  TYR124      0.0417
     53  CZ        33.8470   20.9410   12.9500 C.ar  124  TYR124      0.1957
     54  OH        32.7930   21.7220   12.5360 O.3   124  TYR124     -0.2866
     55  N         35.1200   18.5150   17.0760 N.am  125  SER125     -0.1952
     56  CA        34.5260   19.4270   18.0420 C.3   125  SER125      0.1924
     57  C         33.4760   18.6700   18.8450 C.2   125  SER125      0.2314
     58  O         33.1890   17.4980   18.5850 O.2   125  SER125     -0.2863
     59  CB        33.9130   20.6440   17.3430 C.3   125  SER125      0.2116
     60  OG        32.9220   20.2410   16.4120 O.3   125  SER125     -0.2180
     61  N         22.4700   18.9820   25.5420 N.3   133  TYR133     -0.1241
     62  CA        22.7140   17.6280   26.0300 C.3   133  TYR133      0.1605
     63  C         22.3760   17.4800   27.5100 C.2   133  TYR133      0.2264
     64  O         22.7960   16.5020   28.1390 O.2   133  TYR133     -0.2867
     65  CB        24.1720   17.2230   25.7840 C.3   133  TYR133      0.0534
     66  CG        24.6350   17.3690   24.3480 C.ar  133  TYR133     -0.0201
     67  CD1       23.7530   17.2040   23.2880 C.ar  133  TYR133     -0.0009
     68  CD2       25.9570   17.6770   24.0530 C.ar  133  TYR133     -0.0009
     69  CE1       24.1760   17.3420   21.9770 C.ar  133  TYR133      0.0417
     70  CE2       26.3890   17.8160   22.7460 C.ar  133  TYR133      0.0417
     71  CZ        25.4950   17.6470   21.7120 C.ar  133  TYR133      0.1957
     72  OH        25.9240   17.7840   20.4110 O.3   133  TYR133     -0.2866
     73  N         24.6430   11.4430   17.8820 N.3   202  GLU202     -0.1231
     74  CA        24.2270   12.1660   16.6900 C.3   202  GLU202      0.1699
     75  C         25.4530   12.5910   15.8960 C.2   202  GLU202      0.2592
     76  O         26.4900   12.9250   16.4760 O.2   202  GLU202     -0.2718
     77  CB        23.3690   13.3850   17.0620 C.3   202  GLU202      0.0402
     78  CG        22.6930   14.0710   15.8850 C.3   202  GLU202      0.1161
     79  CD        23.5380   15.1780   15.2920 C.2   202  GLU202      0.3649
     80  OE1       24.5370   15.5680   15.9320 O.co2 202  GLU202     -0.2457
     81  OE2       23.2050   15.6600   14.1910 O.co2 202  GLU202     -0.2457
     82  N         25.3260   12.5670   14.5660 N.am  203  SER203     -0.1952
     83  CA        26.3910   12.9580   13.6330 C.3   203  SER203      0.1924
     84  C         27.6010   12.0690   13.8940 C.2   203  SER203      0.2314
     85  O         27.4730   10.8370   13.7820 O.2   203  SER203     -0.2863
     86  CB        26.6360   14.4630   13.7510 C.3   203  SER203      0.2116
     87  OG        27.7040   14.8740   12.9140 O.3   203  SER203     -0.2180
     88  N         42.9440   21.9410    9.6230 N.3   279  TRP279     -0.1227
     89  CA        42.1290   21.9380    8.4140 C.3   279  TRP279      0.1737
     90  C         42.9410   22.0320    7.1280 C.2   279  TRP279      0.2595
     91  O         42.3590   21.9620    6.0420 O.2   279  TRP279     -0.2718
     92  CB        41.1190   23.0880    8.4610 C.3   279  TRP279      0.0564
     93  CG        40.0360   22.8750    9.4670 C.ar  279  TRP279      0.0003
     94  CD1       40.0010   23.3420   10.7490 C.ar  279  TRP279      0.0946
     95  CD2       38.8300   22.1260    9.2800 C.ar  279  TRP279      0.0152
     96  NE1       38.8450   22.9350   11.3700 N.ar  279  TRP279     -0.2442
     97  CE2       38.1090   22.1860   10.4890 C.ar  279  TRP279      0.0810
     98  CE3       38.2890   21.4110    8.2070 C.ar  279  TRP279      0.0012
     99  CZ2       36.8750   21.5600   10.6540 C.ar  279  TRP279      0.0191
    100  CZ3       37.0640   20.7910    8.3720 C.ar  279  TRP279      0.0001
    101  CH2       36.3710   20.8700    9.5860 C.ar  279  TRP279      0.0015
    102  N         44.2600   22.1780    7.2170 N.am  280  HIS280     -0.1975
    103  CA        45.0840   22.3520    6.0290 C.3   280  HIS280      0.1656
    104  C         45.4830   21.0370    5.3710 C.2   280  HIS280      0.2291
    105  O         46.2060   21.0630    4.3700 O.2   280  HIS280     -0.2864
    106  CB        46.3460   23.1450    6.3800 C.3   280  HIS280      0.0771
    107  CG        46.0720   24.5050    6.9410 C.ar  280  HIS280      0.0820
    108  ND1       44.8710   25.1570    6.7630 N.ar  280  HIS280     -0.2267
    109  CD2       46.8440   25.3360    7.6810 C.ar  280  HIS280      0.1154
    110  CE1       44.9150   26.3310    7.3670 C.ar  280  HIS280      0.1986
    111  NE2       46.1020   26.4640    7.9310 N.ar  280  HIS280     -0.2212
    112  N         33.2020   20.0430    1.7280 N.3   287  ILE287     -0.1231
    113  CA        32.3430   20.2120    2.8890 C.3   287  ILE287      0.1692
    114  C         31.9410   18.8230    3.3660 C.2   287  ILE287      0.2592
    115  O         31.9600   17.8510    2.6040 O.2   287  ILE287     -0.2718
    116  CB        31.0980   21.0690    2.5870 C.3   287  ILE287      0.0266
    117  CG1       30.3170   20.4720    1.4140 C.3   287  ILE287      0.0019
    118  CG2       31.4950   22.5110    2.3030 C.3   287  ILE287      0.0020
    119  CD1       28.9940   21.1500    1.1610 C.3   287  ILE287      0.0001
    120  N         31.5800   18.7370    4.6480 N.am  288  PHE288     -0.1976
    121  CA        31.2440   17.4660    5.2970 C.3   288  PHE288      0.1639
    122  C         32.4110   16.4810    5.2350 C.2   288  PHE288      0.2290
    123  O         32.2150   15.2640    5.2000 O.2   288  PHE288     -0.2864
    124  CB        29.9770   16.8470    4.6920 C.3   288  PHE288      0.0560
    125  CG        29.0610   16.2120    5.7050 C.ar  288  PHE288     -0.0200
    126  CD1       27.6880   16.3880    5.6190 C.ar  288  PHE288     -0.0042
    127  CD2       29.5660   15.4330    6.7340 C.ar  288  PHE288     -0.0042
    128  CE1       26.8380   15.8060    6.5430 C.ar  288  PHE288     -0.0003
    129  CE2       28.7210   14.8490    7.6610 C.ar  288  PHE288     -0.0003
    130  CZ        27.3550   15.0360    7.5660 C.ar  288  PHE288     -0.0000
    131  N         36.3020   15.8330    7.1990 N.3   290  PHE290     -0.1241
    132  CA        37.0140   16.1970    8.4140 C.3   290  PHE290      0.1605
    133  C         38.3850   15.5390    8.4140 C.2   290  PHE290      0.2264
    134  O         38.5290   14.3790    8.0170 O.2   290  PHE290     -0.2867
    135  CB        36.1980   15.8000    9.6450 C.3   290  PHE290      0.0534
    136  CG        34.7270   16.0750    9.4940 C.ar  290  PHE290     -0.0203
    137  CD1       34.2450   17.3750    9.5180 C.ar  290  PHE290     -0.0042
    138  CD2       33.8290   15.0380    9.2950 C.ar  290  PHE290     -0.0042
    139  CE1       32.8940   17.6350    9.3640 C.ar  290  PHE290     -0.0003
    140  CE2       32.4750   15.2920    9.1410 C.ar  290  PHE290     -0.0003
    141  CZ        32.0080   16.5910    9.1770 C.ar  290  PHE290     -0.0000
    142  N         22.8180   22.7540    6.3400 N.3   330  TYR330     -0.1227
    143  CA        23.7460   23.3940    7.2690 C.3   330  TYR330      0.1736
    144  C         25.1180   23.5900    6.6310 C.2   330  TYR330      0.2595
    145  O         25.7180   24.6670    6.7330 O.2   330  TYR330     -0.2718
    146  CB        23.8470   22.5420    8.5380 C.3   330  TYR330      0.0548
    147  CG        24.3870   23.2280    9.7760 C.ar  330  TYR330     -0.0200
    148  CD1       23.8250   22.9780   11.0210 C.ar  330  TYR330     -0.0009
    149  CD2       25.4680   24.0960    9.7110 C.ar  330  TYR330     -0.0009
    150  CE1       24.3100   23.5910   12.1620 C.ar  330  TYR330      0.0417
    151  CE2       25.9590   24.7130   10.8420 C.ar  330  TYR330      0.0417
    152  CZ        25.3820   24.4530   12.0670 C.ar  330  TYR330      0.1957
    153  OH        25.8760   25.0630   13.1970 O.3   330  TYR330     -0.2866
    154  N         25.6230   22.5620    5.9520 N.am  331  PHE331     -0.1976
    155  CA        27.0050   22.5410    5.4920 C.3   331  PHE331      0.1639
    156  C         27.2490   23.3960    4.2550 C.2   331  PHE331      0.2290
    157  O         28.4110   23.6170    3.8980 O.2   331  PHE331     -0.2864
    158  CB        27.4310   21.0950    5.2150 C.3   331  PHE331      0.0560
    159  CG        27.2970   20.1880    6.4070 C.ar  331  PHE331     -0.0200
    160  CD1       28.3900   19.9160    7.2130 C.ar  331  PHE331     -0.0042
    161  CD2       26.0760   19.6140    6.7280 C.ar  331  PHE331     -0.0042
    162  CE1       28.2710   19.0870    8.3140 C.ar  331  PHE331     -0.0003
    163  CE2       25.9490   18.7870    7.8280 C.ar  331  PHE331     -0.0003
    164  CZ        27.0490   18.5220    8.6210 C.ar  331  PHE331     -0.0000
    165  N         29.2410   26.7520    4.4890 N.3   334  TYR334     -0.1241
    166  CA        30.5860   26.5560    5.0150 C.3   334  TYR334      0.1605
    167  C         31.5760   26.1550    3.9260 C.2   334  TYR334      0.2264
    168  O         32.5360   25.4300    4.1930 O.2   334  TYR334     -0.2867
    169  CB        30.5800   25.5180    6.1370 C.3   334  TYR334      0.0534
    170  CG        30.1970   26.0810    7.4850 C.ar  334  TYR334     -0.0201
    171  CD1       28.8740   26.0890    7.9070 C.ar  334  TYR334     -0.0009
    172  CD2       31.1590   26.6110    8.3340 C.ar  334  TYR334     -0.0009
    173  CE1       28.5210   26.6080    9.1370 C.ar  334  TYR334      0.0417
    174  CE2       30.8160   27.1310    9.5650 C.ar  334  TYR334      0.0417
    175  CZ        29.4960   27.1270    9.9630 C.ar  334  TYR334      0.1957
    176  OH        29.1520   27.6450   11.1910 O.3   334  TYR334     -0.2866
    177  N         20.8450   19.9120   10.2120 N.3   440  HIS440     -0.1226
    178  CA        21.5570   18.8170   10.8580 C.3   440  HIS440      0.1752
    179  C         21.6750   19.0590   12.3590 C.2   440  HIS440      0.2596
    180  O         22.2500   20.0620   12.7940 O.2   440  HIS440     -0.2718
    181  CB        22.9420   18.6860   10.2240 C.3   440  HIS440      0.0759
    182  CG        23.6800   17.4410   10.6050 C.ar  440  HIS440      0.0818
    183  ND1       23.1890   16.1770   10.3560 N.ar  440  HIS440     -0.2268
    184  CD2       24.8890   17.2680   11.1900 C.ar  440  HIS440      0.1154
    185  CE1       24.0580   15.2790   10.7840 C.ar  440  HIS440      0.1986
    186  NE2       25.0980   15.9140   11.2930 N.ar  440  HIS440     -0.2212
    187  N         21.1200   18.1430   13.1480 N.am  441  GLY441     -0.1957
    188  CA        21.2930   18.1690   14.5840 C.3   441  GLY441      0.1869
    189  C         20.2520   18.9320   15.3680 C.2   441  GLY441      0.2309
    190  O         20.4380   19.1290   16.5750 O.2   441  GLY441     -0.2863
@<TRIPOS>BOND
     1   119   117    1
     2   117   116    1
     3   112   113    1
     4   118   116    1
     5   116   113    1
     6   115   114    2
     7   113   114    1
     8   114   120   am
     9   157   156    2
    10   167   168    2
    11   167   166    1
    12   156   155    1
    13   105   104    2
    14   165   166    1
    15   120   121    1
    16   124   121    1
    17   124   125    1
    18   166   169    1
    19   123   122    2
    20   158   155    1
    21   158   159    1
    22   122   121    1
    23   104   103    1
    24   155   154    1
    25   126   125   ar
    26   126   128   ar
    27   125   127   ar
    28   154   144   am
    29   103   106    1
    30   103   102    1
    31    91    90    2
    32   169   170    1
    33   142   143    1
    34   106   107    1
    35   159   161   ar
    36   159   160   ar
    37   128   130   ar
    38   144   145    2
    39   144   143    1
    40   161   163   ar
    41   127   129   ar
    42   108   107   ar
    43   108   110   ar
    44   107   109   ar
    45    90   102   am
    46    90    89    1
    47   131   132    1
    48   160   162   ar
    49   143   146    1
    50   110   111   ar
    51   170   171   ar
    52   170   172   ar
    53   130   129   ar
    54   109   111   ar
    55   163   164   ar
    56   171   173   ar
    57   134   133    2
    58    98   100   ar
    59    98    95   ar
    60   162   164   ar
    61   172   174   ar
    62   100   101   ar
    63   132   133    1
    64   132   135    1
    65    89    92    1
    66    89    88    1
    67    92    93    1
    68   146   147    1
    69   173   175   ar
    70   140   141   ar
    71   140   138   ar
    72   141   139   ar
    73    95    93   ar
    74    95    97   ar
    75   138   136   ar
    76   139   137   ar
    77    93    94   ar
    78   136   137   ar
    79   136   135    1
    80   174   175   ar
    81   101    99   ar
    82   149   147   ar
    83   149   151   ar
    84   147   148   ar
    85   175   176    1
    86   177   178    1
    87   181   182    1
    88   181   178    1
    89   183   182   ar
    90   183   185   ar
    91    97    99   ar
    92    97    96   ar
    93   182   184   ar
    94    94    96   ar
    95   185   186   ar
    96   151   152   ar
    97   178   179    1
    98   148   150   ar
    99   184   186   ar
   100    12    11    1
   101   152   150   ar
   102   152   153    1
   103   179   180    2
   104   179   187   am
   105    20    18   ar
   106    52    50   ar
   107    52    53   ar
   108    54    53    1
   109    11    10   ar
   110    11     9   ar
   111    87    86    1
   112    50    48   ar
   113    53    51   ar
   114    10     8   ar
   115   187   188    1
   116     9     7   ar
   117    19    18   ar
   118    18    17    1
   119    83    86    1
   120    83    84    1
   121    83    82    1
   122    85    84    2
   123    51    49   ar
   124    48    49   ar
   125    48    47    1
   126     8     6   ar
   127     7     6   ar
   128    81    79   ar
   129    47    44    1
   130     6     5    1
   131    82    75   am
   132   188   189    1
   133    17    14    1
   134    41    42    2
   135    41    40    1
   136    14    15    1
   137    14    13    1
   138    15    16    2
   139    79    78    1
   140    79    80   ar
   141    43    44    1
   142     5     2    1
   143   189   190    2
   144    44    45    1
   145    40    39    1
   146    78    77    1
   147    75    76    2
   148    75    74    1
   149    39    37   am
   150    60    59    1
   151    29    27   ar
   152    29    30   ar
   153    45    46    2
   154    45    55   am
   155    74    77    1
   156    74    73    1
   157     2     3    1
   158     2     1    1
   159    27    26   ar
   160    55    56    1
   161    30    32   ar
   162    30    28   ar
   163    32    34   ar
   164     3     4    2
   165    59    56    1
   166    37    36    1
   167    37    38    2
   168    36    35    1
   169    26    28   ar
   170    26    25    1
   171    28    31   ar
   172    34    33   ar
   173    56    57    1
   174    25    22    1
   175    58    57    2
   176    31    33   ar
   177    22    21    1
   178    22    23    1
   179    23    24    2
   180    72    71    1
   181    71    69   ar
   182    71    70   ar
   183    69    67   ar
   184    70    68   ar
   185    67    66   ar
   186    68    66   ar
   187    66    65    1
   188    61    62    1
   189    65    62    1
   190    62    63    1
   191    63    64    2
