@<TRIPOS>MOLECULE
tmp/6fslA00.pdb
 262 250 0 0 0
SMALL
GASTEIGER

@<TRIPOS>ATOM
      1  N          0.9610   16.9060   -9.9580 N.3   185  GLU185     -0.1245
      2  CA         1.1830   18.0500   -9.0690 C.3   185  GLU185      0.1567
      3  C          1.1030   19.3820   -9.8570 C.2   185  GLU185      0.2260
      4  O          1.0150   19.3750  -11.0950 O.2   185  GLU185     -0.2867
      5  CB         2.4510   17.8430   -8.2400 C.3   185  GLU185      0.0388
      6  CG         3.7620   17.7260   -8.9880 C.3   185  GLU185      0.1160
      7  CD         4.1560   18.9950   -9.6390 C.2   185  GLU185      0.3649
      8  OE1        3.8920   20.0600   -9.0680 O.co2 185  GLU185     -0.2457
      9  OE2        4.7230   18.9390  -10.7250 O.co2 185  GLU185     -0.2457
     10  N          3.0180   21.9980  -10.6700 N.3   187  PHE187     -0.1241
     11  CA         3.9950   22.3420  -11.7160 C.3   187  PHE187      0.1605
     12  C          3.7020   21.6250  -13.0070 C.2   187  PHE187      0.2264
     13  O          4.1240   22.1060  -14.0630 O.2   187  PHE187     -0.2867
     14  CB         5.4490   22.0330  -11.3440 C.3   187  PHE187      0.0534
     15  CG         5.9680   22.8050  -10.1780 C.ar  187  PHE187     -0.0203
     16  CD1        5.7730   24.1780  -10.0830 C.ar  187  PHE187     -0.0042
     17  CD2        6.7170   22.1550   -9.1730 C.ar  187  PHE187     -0.0042
     18  CE1        6.2830   24.8930   -9.0100 C.ar  187  PHE187     -0.0003
     19  CE2        7.2320   22.8740   -8.1010 C.ar  187  PHE187     -0.0003
     20  CZ         7.0070   24.2480   -8.0260 C.ar  187  PHE187     -0.0000
     21  N          3.6910   17.8270  -13.3400 N.3   189  TRP189     -0.1227
     22  CA         4.2700   16.4840  -13.4250 C.3   189  TRP189      0.1737
     23  C          3.3660   15.4450  -12.7680 C.2   189  TRP189      0.2595
     24  O          2.8540   15.6820  -11.6730 O.2   189  TRP189     -0.2718
     25  CB         5.6520   16.4460  -12.7380 C.3   189  TRP189      0.0564
     26  CG         6.7430   16.8430  -13.6380 C.ar  189  TRP189      0.0003
     27  CD1        7.6510   16.0090  -14.2650 C.ar  189  TRP189      0.0946
     28  CD2        7.0420   18.1610  -14.0700 C.ar  189  TRP189      0.0152
     29  NE1        8.5020   16.7510  -15.0390 N.ar  189  TRP189     -0.2442
     30  CE2        8.1510   18.0710  -14.9490 C.ar  189  TRP189      0.0810
     31  CE3        6.4760   19.4100  -13.8140 C.ar  189  TRP189      0.0012
     32  CZ2        8.6980   19.1780  -15.5820 C.ar  189  TRP189      0.0191
     33  CZ3        7.0280   20.5350  -14.4340 C.ar  189  TRP189      0.0001
     34  CH2        8.1340   20.4120  -15.3100 C.ar  189  TRP189      0.0015
     35  N          3.2170   14.2940  -13.4310 N.am  190  LEU190     -0.1966
     36  CA         2.5670   13.1070  -12.8550 C.3   190  LEU190      0.1728
     37  C          3.2770   12.6820  -11.6030 C.2   190  LEU190      0.2616
     38  O          4.4680   12.3990  -11.6430 O.2   190  LEU190     -0.2715
     39  CB         2.6090   11.9330  -13.8480 C.3   190  LEU190      0.0311
     40  CG         1.8990   10.6290  -13.4560 C.3   190  LEU190      0.0022
     41  CD1        0.4450   10.8700  -13.0920 C.3   190  LEU190      0.0001
     42  CD2        1.9880    9.6360  -14.6180 C.3   190  LEU190      0.0001
     43  N          2.5580   12.6340  -10.4970 N.am  191  ASP191     -0.1957
     44  CA         3.1540   12.3380   -9.2060 C.3   191  ASP191      0.1840
     45  C          2.5730   11.0690   -8.7080 C.2   191  ASP191      0.2623
     46  O          1.4660   10.7140   -9.0850 O.2   191  ASP191     -0.2715
     47  CB         2.8520   13.4520   -8.1920 C.3   191  ASP191      0.1450
     48  CG         3.8450   13.4810   -7.0330 C.2   191  ASP191      0.3671
     49  OD1        4.9010   12.8000   -7.1230 O.co2 191  ASP191     -0.2456
     50  OD2        3.5890   14.2000   -6.0450 O.co2 191  ASP191     -0.2456
     51  N          3.3020   10.4010   -7.8230 N.am  192  GLY192     -0.1940
     52  CA         2.8500    9.1460   -7.2200 C.3   192  GLY192      0.2014
     53  C          3.2960    7.8780   -7.9300 C.2   192  GLY192      0.2639
     54  O          2.7430    6.8030   -7.6760 O.2   192  GLY192     -0.2714
     55  N          4.2950    8.0010   -8.8010 N.am  193  ILE193     -0.1963
     56  CA         4.7760    6.8840   -9.6020 C.3   193  ILE193      0.1727
     57  C          5.6850    5.9100   -8.8280 C.2   193  ILE193      0.2616
     58  O          5.4430    4.7200   -8.8170 O.2   193  ILE193     -0.2715
     59  CB         5.4830    7.3840  -10.8560 C.3   193  ILE193      0.0290
     60  CG1        4.4880    8.1950  -11.7000 C.3   193  ILE193      0.0022
     61  CG2        6.0050    6.2070  -11.6780 C.3   193  ILE193      0.0023
     62  CD1        5.1290    8.9310  -12.8580 C.3   193  ILE193      0.0001
     63  N          6.7180    6.4090   -8.1710 N.am  194  SER194     -0.1950
     64  CA         7.7020    5.5310   -7.5650 C.3   194  SER194      0.1924
     65  C          7.5450    5.4800   -6.0450 C.2   194  SER194      0.2314
     66  O          7.8290    6.4350   -5.3560 O.2   194  SER194     -0.2863
     67  CB         9.1020    5.9890   -7.9700 C.3   194  SER194      0.2116
     68  OG        10.0850    5.0190   -7.6500 O.3   194  SER194     -0.2180
     69  N          4.4980   18.0800    5.5840 N.3   243  ARG243     -0.1245
     70  CA         5.0990   19.3330    5.0870 C.3   243  ARG243      0.1563
     71  C          4.0930   20.1260    4.2740 C.2   243  ARG243      0.2260
     72  O          3.6260   19.6140    3.2670 O.2   243  ARG243     -0.2867
     73  CB         6.3300   19.0500    4.1980 C.3   243  ARG243      0.0307
     74  CG         7.5420   18.4850    4.9180 C.3   243  ARG243      0.0489
     75  CD         8.2730   19.4820    5.7870 C.3   243  ARG243      0.2205
     76  NE         9.2890   20.2380    5.0620 N.pl3 243  ARG243     -0.0865
     77  CZ         9.8570   21.3760    5.4810 C.cat 243  ARG243      0.5346
     78  NH1        9.5400   21.9370    6.6450 N.pl3 243  ARG243      0.1354
     79  NH2       10.7550   21.9810    4.7110 N.pl3 243  ARG243      0.1354
     80  N          3.6670   22.5010    1.7320 N.3   245  LEU245     -0.1245
     81  CA         4.5800   23.0480    0.7240 C.3   245  LEU245      0.1561
     82  C          3.8190   23.8230   -0.3280 C.2   245  LEU245      0.2260
     83  O          3.0790   23.2500   -1.1140 O.2   245  LEU245     -0.2867
     84  CB         5.3910   21.9190    0.0670 C.3   245  LEU245      0.0270
     85  CG         6.2160   21.0250    0.9930 C.3   245  LEU245      0.0019
     86  CD1        6.9270   19.9330    0.2030 C.3   245  LEU245      0.0001
     87  CD2        7.2120   21.8450    1.7900 C.3   245  LEU245      0.0001
     88  N          3.6130   26.0000   -3.7430 N.3   247  GLN247     -0.1245
     89  CA         4.3020   25.9910   -5.0160 C.3   247  GLN247      0.1566
     90  C          4.0830   27.3020   -5.7390 C.2   247  GLN247      0.2260
     91  O          2.9750   27.8200   -5.7510 O.2   247  GLN247     -0.2867
     92  CB         3.8100   24.8290   -5.8680 C.3   247  GLN247      0.0367
     93  CG         4.2230   23.4990   -5.2780 C.3   247  GLN247      0.0905
     94  CD         3.8030   22.2940   -6.0920 C.2   247  GLN247      0.2608
     95  OE1        4.3010   22.0770   -7.1780 O.2   247  GLN247     -0.2717
     96  NE2        2.9310   21.4860   -5.5450 N.am  247  GLN247     -0.0878
     97  N         13.5860   17.5140  -12.9900 N.3   280  VAL280     -0.1245
     98  CA        12.7450   16.5640  -12.2430 C.3   280  VAL280      0.1561
     99  C         13.2910   15.1180  -12.3720 C.2   280  VAL280      0.2260
    100  O         13.2720   14.3760  -11.4010 O.2   280  VAL280     -0.2867
    101  CB        11.2650   16.6800  -12.6900 C.3   280  VAL280      0.0252
    102  CG1       10.3920   15.6550  -11.9740 C.3   280  VAL280      0.0019
    103  CG2       10.7420   18.0760  -12.4120 C.3   280  VAL280      0.0019
    104  N         11.9290   13.2640  -14.9630 N.3   282  ARG282     -0.1245
    105  CA        10.8340   12.7170  -15.7630 C.3   282  ARG282      0.1563
    106  C         10.2020   13.8030  -16.5870 C.2   282  ARG282      0.2260
    107  O         10.2150   14.9630  -16.1730 O.2   282  ARG282     -0.2867
    108  CB         9.7280   12.1630  -14.8800 C.3   282  ARG282      0.0307
    109  CG        10.0440   10.8730  -14.1780 C.3   282  ARG282      0.0489
    110  CD         8.8690   10.4660  -13.3010 C.3   282  ARG282      0.2205
    111  NE         9.2690    9.3540  -12.4460 N.pl3 282  ARG282     -0.0865
    112  CZ         9.2700    8.0740  -12.7980 C.cat 282  ARG282      0.5346
    113  NH1        8.8700    7.6910  -13.9890 N.pl3 282  ARG282      0.1354
    114  NH2        9.6540    7.1510  -11.9220 N.pl3 282  ARG282      0.1354
    115  N         15.6000   15.8430   -9.4320 N.3   329  HIS329     -0.1226
    116  CA        14.8550   15.6460   -8.1790 C.3   329  HIS329      0.1752
    117  C         14.8000   14.1870   -7.7560 C.2   329  HIS329      0.2595
    118  O         15.2160   13.8340   -6.6440 O.2   329  HIS329     -0.2718
    119  CB        13.4330   16.2330   -8.3040 C.3   329  HIS329      0.0759
    120  CG        12.5510   15.9570   -7.1210 C.ar  329  HIS329      0.0818
    121  ND1       12.8930   16.3110   -5.8350 N.ar  329  HIS329     -0.2268
    122  CD2       11.3340   15.3770   -7.0320 C.ar  329  HIS329      0.1154
    123  CE1       11.9220   15.9740   -5.0090 C.ar  329  HIS329      0.1986
    124  NE2       10.9630   15.4110   -5.7140 N.ar  329  HIS329     -0.2212
    125  N         14.3170   13.3320   -8.6600 N.am  330  ILE330     -0.1980
    126  CA        14.1160   11.9110   -8.3220 C.3   330  ILE330      0.1595
    127  C         15.4470   11.1800   -7.9860 C.2   330  ILE330      0.2287
    128  O         15.4620   10.1800   -7.2540 O.2   330  ILE330     -0.2864
    129  CB        13.2980   11.1290   -9.3840 C.3   330  ILE330      0.0276
    130  CG1       14.0630   10.9050  -10.6960 C.3   330  ILE330      0.0022
    131  CG2       11.9560   11.7820   -9.6520 C.3   330  ILE330      0.0022
    132  CD1       13.4860    9.7760  -11.5360 C.3   330  ILE330      0.0001
    133  N         16.5540   12.2590   -4.3970 N.3   333  THR333     -0.1203
    134  CA        15.7570   11.6350   -3.3310 C.3   333  THR333      0.1994
    135  C         15.7380   10.1090   -3.3230 C.2   333  THR333      0.2617
    136  O         15.4410    9.5480   -2.3150 O.2   333  THR333     -0.2717
    137  CB        14.3190   12.1190   -3.4230 C.3   333  THR333      0.1784
    138  OG1       13.7930   11.7600   -4.7130 O.3   333  THR333     -0.2211
    139  CG2       14.2680   13.6280   -3.2410 C.3   333  THR333      0.0376
    140  N         15.9880    9.4500   -4.4520 N.am  334  TYR334     -0.1975
    141  CA        16.2760    8.0040   -4.4980 C.3   334  TYR334      0.1639
    142  C         17.3920    7.7600   -5.5240 C.2   334  TYR334      0.2290
    143  O         17.1440    7.6950   -6.7570 O.2   334  TYR334     -0.2864
    144  CB        15.0250    7.1750   -4.8030 C.3   334  TYR334      0.0560
    145  CG        15.2150    5.6770   -4.9190 C.ar  334  TYR334     -0.0198
    146  CD1       16.0880    4.9800   -4.0920 C.ar  334  TYR334     -0.0009
    147  CD2       14.4520    4.9370   -5.8380 C.ar  334  TYR334     -0.0009
    148  CE1       16.2450    3.6050   -4.2020 C.ar  334  TYR334      0.0417
    149  CE2       14.5710    3.5600   -5.9480 C.ar  334  TYR334      0.0417
    150  CZ        15.4740    2.8910   -5.1310 C.ar  334  TYR334      0.1957
    151  OH        15.6030    1.5220   -5.2560 O.3   334  TYR334     -0.2866
    152  N         19.1620    5.2260   -6.3350 N.3   336  ARG336     -0.1245
    153  CA        19.2410    3.9850   -7.0680 C.3   336  ARG336      0.1563
    154  C         20.7270    3.5350   -7.1710 C.2   336  ARG336      0.2260
    155  O         21.4200    3.5070   -6.1490 O.2   336  ARG336     -0.2867
    156  CB        18.4890    4.1160   -8.4120 C.3   336  ARG336      0.0307
    157  CG        17.0370    4.5480   -8.2360 C.3   336  ARG336      0.0489
    158  CD        16.2580    4.4610   -9.5340 C.3   336  ARG336      0.2205
    159  NE        14.9510    5.1350   -9.4540 N.pl3 336  ARG336     -0.0865
    160  CZ        13.7830    4.6790   -9.9540 C.cat 336  ARG336      0.5346
    161  NH1       13.7120    3.5170  -10.5980 N.pl3 336  ARG336      0.1354
    162  NH2       12.6430    5.3840   -9.7980 N.pl3 336  ARG336      0.1354
    163  N         14.4660    5.0330    2.1840 N.3   352  ARG352     -0.1231
    164  CA        13.2420    4.9960    1.3980 C.3   352  ARG352      0.1694
    165  C         12.0800    5.5570    2.1800 C.2   352  ARG352      0.2591
    166  O         12.0770    5.4980    3.3900 O.2   352  ARG352     -0.2718
    167  CB        12.9280    3.5700    0.9360 C.3   352  ARG352      0.0321
    168  CG        14.0710    2.8840    0.2010 C.3   352  ARG352      0.0489
    169  CD        14.5510    3.6510   -1.0090 C.3   352  ARG352      0.2205
    170  NE        13.4760    3.9880   -1.9290 N.pl3 352  ARG352     -0.0865
    171  CZ        12.8820    3.1280   -2.7620 C.cat 352  ARG352      0.5346
    172  NH1       13.2390    1.8160   -2.8030 N.pl3 352  ARG352      0.1354
    173  NH2       11.9330    3.5890   -3.5780 N.pl3 352  ARG352      0.1354
    174  N         11.1270    6.1610    1.4540 N.am  353  ILE353     -0.1980
    175  CA         9.8900    6.6830    2.0470 C.3   353  ILE353      0.1595
    176  C          8.6940    6.3630    1.1650 C.2   353  ILE353      0.2287
    177  O          8.8210    6.2890   -0.0680 O.2   353  ILE353     -0.2864
    178  CB         9.9610    8.1930    2.3070 C.3   353  ILE353      0.0276
    179  CG1       10.4990    8.9410    1.0960 C.3   353  ILE353      0.0022
    180  CG2       10.8650    8.4910    3.4990 C.3   353  ILE353      0.0022
    181  CD1       10.2520   10.4470    1.1760 C.3   353  ILE353      0.0001
    182  N          5.2540    7.9090   -0.0240 N.3   355  ARG355     -0.1245
    183  CA         4.6110    9.2080   -0.1520 C.3   355  ARG355      0.1563
    184  C          3.1200    9.0470   -0.3620 C.2   355  ARG355      0.2260
    185  O          2.6710    8.1710   -1.0920 O.2   355  ARG355     -0.2867
    186  CB         5.2160    9.9810   -1.2990 C.3   355  ARG355      0.0307
    187  CG         6.6830   10.2660   -1.0540 C.3   355  ARG355      0.0489
    188  CD         7.3080   10.9500   -2.2470 C.3   355  ARG355      0.2205
    189  NE         7.3670   10.0290   -3.3820 N.pl3 355  ARG355     -0.0865
    190  CZ         6.8840   10.2360   -4.6040 C.cat 355  ARG355      0.5346
    191  NH1        6.3130   11.3720   -4.9590 N.pl3 355  ARG355      0.1354
    192  NH2        7.0210    9.2760   -5.5060 N.pl3 355  ARG355      0.1354
    193  N          1.3640   21.4380   -2.4690 N.3   380  LEU380     -0.1245
    194  CA         1.3260   20.0340   -2.1560 C.3   380  LEU380      0.1561
    195  C          1.3120   19.8910   -0.6640 C.2   380  LEU380      0.2260
    196  O          2.1940   20.4430    0.0100 O.2   380  LEU380     -0.2867
    197  CB         2.5470   19.3390   -2.7310 C.3   380  LEU380      0.0270
    198  CG         2.6300   17.8080   -2.5880 C.3   380  LEU380      0.0019
    199  CD1        1.6690   17.1330   -3.5660 C.3   380  LEU380      0.0001
    200  CD2        4.0660   17.3340   -2.8240 C.3   380  LEU380      0.0001
    201  N          2.4430   17.4940    1.5080 N.3   382  PHE382     -0.1241
    202  CA         3.4030   16.3880    1.4650 C.3   382  PHE382      0.1605
    203  C          3.3290   15.5750    2.7300 C.2   382  PHE382      0.2264
    204  O          3.4400   16.1200    3.8180 O.2   382  PHE382     -0.2867
    205  CB         4.8040   16.9200    1.2760 C.3   382  PHE382      0.0534
    206  CG         5.8580   15.8680    1.2940 C.ar  382  PHE382     -0.0203
    207  CD1        6.3610   15.4060    2.4780 C.ar  382  PHE382     -0.0042
    208  CD2        6.3950   15.3980    0.1100 C.ar  382  PHE382     -0.0042
    209  CE1        7.3390   14.4570    2.5010 C.ar  382  PHE382     -0.0003
    210  CE2        7.3930   14.4240    0.1180 C.ar  382  PHE382     -0.0003
    211  CZ         7.8640   13.9520    1.3260 C.ar  382  PHE382     -0.0000
    212  N         13.2210   11.0550    5.6470 N.3   393  PHE393     -0.1241
    213  CA        12.9240   12.4040    5.2090 C.3   393  PHE393      0.1605
    214  C         14.0040   13.4370    5.5800 C.2   393  PHE393      0.2264
    215  O         14.4510   14.1670    4.7170 O.2   393  PHE393     -0.2867
    216  CB        11.5830   12.8730    5.7840 C.3   393  PHE393      0.0534
    217  CG        11.3580   14.3310    5.6290 C.ar  393  PHE393     -0.0203
    218  CD1       10.9170   14.8430    4.4160 C.ar  393  PHE393     -0.0042
    219  CD2       11.6340   15.2070    6.6650 C.ar  393  PHE393     -0.0042
    220  CE1       10.7130   16.2000    4.2500 C.ar  393  PHE393     -0.0003
    221  CE2       11.4410   16.5610    6.5070 C.ar  393  PHE393     -0.0003
    222  CZ        10.9820   17.0590    5.2960 C.ar  393  PHE393     -0.0000
    223  N         17.2870   12.8140    3.6350 N.3   396  ILE396     -0.1231
    224  CA        17.0540   13.0980    2.2200 C.3   396  ILE396      0.1692
    225  C         17.0960   14.5960    1.9950 C.2   396  ILE396      0.2591
    226  O         17.7550   15.0700    1.0780 O.2   396  ILE396     -0.2718
    227  CB        15.6840   12.5830    1.7180 C.3   396  ILE396      0.0266
    228  CG1       15.5930   11.0460    1.8090 C.3   396  ILE396      0.0019
    229  CG2       15.4740   12.9940    0.2550 C.3   396  ILE396      0.0020
    230  CD1       14.1920   10.4790    1.5970 C.3   396  ILE396      0.0001
    231  N         16.3930   15.3330    2.8350 N.am  397  GLN397     -0.1979
    232  CA        16.3640   16.7920    2.7220 C.3   397  GLN397      0.1601
    233  C         17.7680   17.4350    2.9790 C.2   397  GLN397      0.2287
    234  O         18.2050   18.2830    2.2080 O.2   397  GLN397     -0.2864
    235  CB        15.2430   17.3930    3.6260 C.3   397  GLN397      0.0394
    236  CG        14.9940   18.8880    3.4870 C.3   397  GLN397      0.0908
    237  CD        14.3340   19.2920    2.1740 C.2   397  GLN397      0.2608
    238  OE1       13.2200   18.8980    1.8810 O.2   397  GLN397     -0.2717
    239  NE2       15.0130   20.1310    1.3980 N.am  397  GLN397     -0.0878
    240  N         13.8890   21.5920   -7.0380 N.3   430  ILE430     -0.1231
    241  CA        12.4900   21.5350   -6.6570 C.3   430  ILE430      0.1692
    242  C         12.3580   21.8000   -5.1670 C.2   430  ILE430      0.2591
    243  O         11.7030   22.7600   -4.7850 O.2   430  ILE430     -0.2718
    244  CB        11.8700   20.1780   -7.0950 C.3   430  ILE430      0.0266
    245  CG1       11.9090   20.0490   -8.6210 C.3   430  ILE430      0.0019
    246  CG2       10.4190   20.0160   -6.6450 C.3   430  ILE430      0.0020
    247  CD1       11.1990   21.1390   -9.3930 C.3   430  ILE430      0.0001
    248  N         13.0360   20.9910   -4.3520 N.am  431  ILE431     -0.1980
    249  CA        12.9670   21.0500   -2.8920 C.3   431  ILE431      0.1595
    250  C         14.2370   21.4780   -2.1240 C.2   431  ILE431      0.2287
    251  O         14.1970   21.6350   -0.8750 O.2   431  ILE431     -0.2864
    252  CB        12.6090   19.6690   -2.3190 C.3   431  ILE431      0.0276
    253  CG1       13.6240   18.5860   -2.7400 C.3   431  ILE431      0.0022
    254  CG2       11.2350   19.2810   -2.7530 C.3   431  ILE431      0.0022
    255  CD1       13.6520   17.4240   -1.7940 C.3   431  ILE431      0.0001
    256  N          9.3630   26.2450   -4.3730 N.3   462  VAL462     -0.1245
    257  CA         8.6350   25.5790   -3.2860 C.3   462  VAL462      0.1561
    258  C          8.9820   26.2480   -1.9570 C.2   462  VAL462      0.2260
    259  O         10.1430   26.4530   -1.6540 O.2   462  VAL462     -0.2867
    260  CB         9.0020   24.0870   -3.2210 C.3   462  VAL462      0.0252
    261  CG1        8.3390   23.3890   -2.0140 C.3   462  VAL462      0.0019
    262  CG2        8.6370   23.4270   -4.5450 C.3   462  VAL462      0.0019
@<TRIPOS>BOND
     1   106   107    2
     2   106   105    1
     3   105   104    1
     4   105   108    1
     5    32    34   ar
     6    32    30   ar
     7    34    33   ar
     8    29    30   ar
     9    29    27   ar
    10    30    28   ar
    11   108   109    1
    12    42    40    1
    13    33    31   ar
    14    27    26   ar
    15   109   110    1
    16    28    31   ar
    17    28    26   ar
    18    13    12    2
    19   113   112    1
    20    39    40    1
    21    39    36    1
    22    26    25    1
    23    40    41    1
    24    35    36    1
    25    35    23   am
    26    22    21    1
    27    22    23    1
    28    22    25    1
    29   110   111    1
    30    12    11    1
    31    97    98    1
    32    62    60    1
    33    36    37    1
    34   112   111    2
    35   112   114    1
    36    23    24    2
    37   101   103    1
    38   101    98    1
    39   101   102    1
    40    99    98    1
    41    99   100    2
    42    11    14    1
    43    11    10    1
    44    60    59    1
    45    61    59    1
    46    38    37    2
    47    37    43   am
    48   132   130    1
    49    14    15    1
    50     4     3    2
    51    59    56    1
    52     9     7   ar
    53   130   129    1
    54   161   160    1
    55    43    44    1
    56    15    16   ar
    57    15    17   ar
    58    16    18   ar
    59     1     2    1
    60   160   162    1
    61   160   159    2
    62     3     2    1
    63   131   129    1
    64     7     8   ar
    65     7     6    1
    66    56    57    1
    67    56    55    1
    68   158   159    1
    69   158   157    1
    70   115   116    1
    71   247   245    1
    72   129   126    1
    73    44    45    1
    74    44    47    1
    75    17    19   ar
    76    46    45    2
    77     2     5    1
    78    18    20   ar
    79     6     5    1
    80    57    58    2
    81    57    63   am
    82    55    53   am
    83    45    51   am
    84   125   126    1
    85   125   117   am
    86   245   244    1
    87   156   157    1
    88   156   153    1
    89   126   127    1
    90   119   116    1
    91   119   120    1
    92    47    48    1
    93   116   117    1
    94    63    64    1
    95    19    20   ar
    96   127   128    2
    97    67    68    1
    98    67    64    1
    99    53    54    2
   100    53    52    1
   101    51    52    1
   102   117   118    2
   103    64    65    1
   104    95    94    2
   105   154   153    1
   106   154   155    2
   107    49    48   ar
   108   120   122   ar
   109   120   121   ar
   110   244   241    1
   111   244   246    1
   112   153   152    1
   113   240   241    1
   114    48    50   ar
   115   122   124   ar
   116   143   142    2
   117   241   242    1
   118    94    96   am
   119    94    93    1
   120    65    66    2
   121   149   147   ar
   122   149   150   ar
   123    92    93    1
   124    92    89    1
   125   147   145   ar
   126   121   123   ar
   127    91    90    2
   128    90    89    1
   129   124   123   ar
   130   142   141    1
   131   192   190    1
   132   151   150    1
   133   242   243    2
   134   242   248   am
   135   150   148   ar
   136    89    88    1
   137   191   190    1
   138   145   144    1
   139   145   146   ar
   140   144   141    1
   141   138   137    1
   142   190   189    2
   143   262   260    1
   144   141   140    1
   145   140   135   am
   146   133   134    1
   147   256   257    1
   148   248   249    1
   149   148   146   ar
   150   173   171    1
   151   199   198    1
   152   137   134    1
   153   137   139    1
   154   189   188    1
   155   134   135    1
   156   135   136    2
   157   257   260    1
   158   257   258    1
   159   260   261    1
   160   249   252    1
   161   249   250    1
   162   200   198    1
   163   172   171    1
   164   171   170    2
   165   254   252    1
   166   253   252    1
   167   253   255    1
   168   197   198    1
   169   197   194    1
   170   193   194    1
   171   188   187    1
   172   194   195    1
   173   250   251    2
   174   258   259    2
   175   170   169    1
   176   186   187    1
   177   186   183    1
   178    83    82    2
   179   185   184    2
   180   169   168    1
   181   195   196    2
   182   184   183    1
   183    82    81    1
   184   183   182    1
   185   177   176    2
   186    84    81    1
   187    84    85    1
   188   208   210   ar
   189   208   206   ar
   190   210   211   ar
   191   168   167    1
   192    86    85    1
   193   229   227    1
   194    81    80    1
   195   167   164    1
   196    85    87    1
   197   226   225    2
   198   179   181    1
   199   179   178    1
   200   176   175    1
   201   205   206    1
   202   205   202    1
   203   206   207   ar
   204   211   209   ar
   205   239   237   am
   206   164   165    1
   207   164   163    1
   208   174   175    1
   209   174   165   am
   210   202   201    1
   211   202   203    1
   212   230   228    1
   213   227   228    1
   214   227   224    1
   215   238   237    2
   216   225   224    1
   217   225   231   am
   218   175   178    1
   219   237   236    1
   220   165   166    2
   221   234   233    2
   222   224   223    1
   223   178   180    1
   224   207   209   ar
   225   232   231    1
   226   232   233    1
   227   232   235    1
   228   203   204    2
   229    72    71    2
   230   236   235    1
   231    73    74    1
   232    73    70    1
   233   220   218   ar
   234   220   222   ar
   235    71    70    1
   236   218   217   ar
   237    79    77    1
   238   215   214    2
   239    74    75    1
   240    76    77    2
   241    76    75    1
   242    70    69    1
   243   213   214    1
   244   213   212    1
   245   213   216    1
   246   222   221   ar
   247    77    78    1
   248   217   216    1
   249   217   219   ar
   250   221   219   ar
