@<TRIPOS>MOLECULE
tmp/6ft1A00.pdb
 160 161 0 0 0
SMALL
GASTEIGER

@<TRIPOS>ATOM
      1  N         -8.6330   -3.9950   17.4590 N.3     9  SER9       -0.1202
      2  CA        -7.4720   -3.9860   16.5790 C.3     9  SER9        0.2020
      3  C         -6.5500   -2.8340   16.9920 C.2     9  SER9        0.2619
      4  O         -6.9960   -1.6800   17.1180 O.2     9  SER9       -0.2717
      5  CB        -7.8620   -3.8290   15.1020 C.3     9  SER9        0.2103
      6  OG        -6.7720   -4.0360   14.2150 O.3     9  SER9       -0.2182
      7  N         -5.3190   -3.1700   17.2530 N.am   10  MET10      -0.1965
      8  CA        -4.3120   -2.1570   17.5880 C.3    10  MET10       0.1736
      9  C         -3.4890   -1.7660   16.3700 C.2    10  MET10       0.2617
     10  O         -3.3790   -0.5680   16.1030 O.2    10  MET10      -0.2715
     11  CB        -3.3870   -2.5920   18.7340 C.3    10  MET10       0.0427
     12  CG        -2.3710   -1.5250   19.2120 C.3    10  MET10       0.0599
     13  SD        -1.3050   -2.2730   20.4620 S.3    10  MET10      -0.1393
     14  CE        -2.3600   -2.4350   21.9010 C.3    10  MET10       0.0692
     15  N         -3.0180   -2.7220   15.5690 N.am   11  SER11      -0.1936
     16  CA        -2.1910   -2.4300   14.3960 C.3    11  SER11       0.2055
     17  C         -2.9130   -2.5990   13.0700 C.2    11  SER11       0.2644
     18  O         -2.2530   -2.6120   12.0270 O.2    11  SER11      -0.2714
     19  CB        -0.9170   -3.2760   14.4010 C.3    11  SER11       0.2130
     20  OG        -1.0910   -4.5600   13.8190 O.3    11  SER11      -0.2179
     21  N         -4.2330   -2.7590   13.1070 N.am   12  GLY12      -0.1939
     22  CA        -5.0480   -2.7670   11.9300 C.3    12  GLY12       0.2014
     23  C         -5.3940   -4.1330   11.3280 C.2    12  GLY12       0.2639
     24  O         -6.2500   -4.1620   10.4060 O.2    12  GLY12      -0.2714
     25  N         -4.7140   -5.2340   11.7210 N.am   13  ASN13      -0.1958
     26  CA        -4.9200   -6.4970   11.0070 C.3    13  ASN13       0.1819
     27  C         -6.3140   -7.0740   11.2850 C.2    13  ASN13       0.2621
     28  O         -7.0440   -7.4800   10.3630 O.2    13  ASN13      -0.2715
     29  CB        -3.8470   -7.4560   11.5220 C.3    13  ASN13       0.1195
     30  CG        -2.4170   -7.0490   11.1180 C.2    13  ASN13       0.2630
     31  OD1       -2.2410   -6.4680   10.0370 O.2    13  ASN13      -0.2716
     32  ND2       -1.3690   -7.3360   11.9810 N.am   13  ASN13      -0.0877
     33  N         -6.7060   -7.1000   12.5690 N.am   14  THR14      -0.1951
     34  CA        -8.0370   -7.5880   12.8740 C.3    14  THR14       0.1897
     35  C         -9.0820   -6.6380   12.3130 C.2    14  THR14       0.2313
     36  O        -10.1320   -7.0750   11.9020 O.2    14  THR14      -0.2863
     37  CB        -8.2110   -7.7660   14.3840 C.3    14  THR14       0.1794
     38  OG1       -7.1520   -8.6030   14.8810 O.3    14  THR14      -0.2208
     39  CG2       -9.5910   -8.4240   14.7600 C.3    14  THR14       0.0378
     40  N         -7.4700   -9.5690   18.3620 N.3    57  TYR57      -0.1227
     41  CA        -6.0790  -10.0540   18.4230 C.3    57  TYR57       0.1736
     42  C         -5.7680  -10.6550   19.8000 C.2    57  TYR57       0.2596
     43  O         -6.5570  -10.4900   20.7350 O.2    57  TYR57      -0.2718
     44  CB        -5.0710   -8.9030   18.1510 C.3    57  TYR57       0.0548
     45  CG        -5.1750   -7.7060   19.0840 C.ar   57  TYR57      -0.0200
     46  CD1       -6.0560   -6.6490   18.7820 C.ar   57  TYR57      -0.0009
     47  CD2       -4.3910   -7.6280   20.2790 C.ar   57  TYR57      -0.0009
     48  CE1       -6.2100   -5.5980   19.6530 C.ar   57  TYR57       0.0417
     49  CE2       -4.4760   -6.5140   21.0760 C.ar   57  TYR57       0.0417
     50  CZ        -5.3820   -5.5440   20.7610 C.ar   57  TYR57       0.1957
     51  OH        -5.5220   -4.4260   21.6040 O.3    57  TYR57      -0.2866
     52  N         -4.6460  -11.3430   19.9260 N.am   58  THR58      -0.1939
     53  CA        -4.2410  -11.8950   21.2230 C.3    58  THR58       0.2028
     54  C         -3.1070  -11.0280   21.7470 C.2    58  THR58       0.2642
     55  O         -2.2360  -10.5760   20.9900 O.2    58  THR58      -0.2714
     56  CB        -3.7500  -13.3600   21.0200 C.3    58  THR58       0.1808
     57  OG1       -4.8540  -14.0920   20.4820 O.3    58  THR58      -0.2208
     58  CG2       -3.4120  -14.0450   22.3670 C.3    58  THR58       0.0379
     59  N         -3.1360  -10.7970   23.0450 N.am   59  TRP59      -0.1959
     60  CA        -2.1190   -9.9880   23.6670 C.3    59  TRP59       0.1771
     61  C         -1.3600  -10.8210   24.6790 C.2    59  TRP59       0.2620
     62  O         -1.4290  -12.0650   24.6500 O.2    59  TRP59      -0.2715
     63  CB        -2.8330   -8.8190   24.3220 C.3    59  TRP59       0.0590
     64  CG        -1.9590   -7.6820   24.7360 C.ar   59  TRP59       0.0006
     65  CD1       -1.7290   -7.2480   26.0110 C.ar   59  TRP59       0.0946
     66  CD2       -1.2680   -6.8030   23.8630 C.ar   59  TRP59       0.0152
     67  NE1       -0.8730   -6.1630   25.9740 N.ar   59  TRP59      -0.2442
     68  CE2       -0.5960   -5.8670   24.6650 C.ar   59  TRP59       0.0810
     69  CE3       -1.1070   -6.7490   22.4740 C.ar   59  TRP59       0.0012
     70  CZ2        0.2070   -4.8680   24.1230 C.ar   59  TRP59       0.0191
     71  CZ3       -0.3420   -5.7340   21.9280 C.ar   59  TRP59       0.0001
     72  CH2        0.3200   -4.8180   22.7550 C.ar   59  TRP59       0.0015
     73  N         -0.6700  -10.1340   25.5840 N.am   60  GLY60      -0.1940
     74  CA         0.3890  -10.7120   26.3860 C.3    60  GLY60       0.2014
     75  C          0.0240  -11.9710   27.1170 C.2    60  GLY60       0.2639
     76  O         -0.9800  -11.9980   27.8280 O.2    60  GLY60      -0.2714
     77  N          0.8710  -13.0110   26.9790 N.am   61  ASP61      -0.1957
     78  CA         0.6890  -14.3030   27.6350 C.3    61  ASP61       0.1840
     79  C         -0.6370  -14.9740   27.2750 C.2    61  ASP61       0.2622
     80  O         -1.2970  -15.5940   28.1200 O.2    61  ASP61      -0.2715
     81  CB         0.8940  -14.2220   29.1450 C.3    61  ASP61       0.1450
     82  CG         1.4610  -15.5140   29.7090 C.2    61  ASP61       0.3671
     83  OD1        2.0790  -16.2890   28.9210 O.co2  61  ASP61      -0.2456
     84  OD2        1.2770  -15.7540   30.9210 O.co2  61  ASP61      -0.2456
     85  N         -1.0290  -14.8650   26.0070 N.am   62  GLY62      -0.1954
     86  CA        -2.2640  -15.4830   25.5430 C.3    62  GLY62       0.1869
     87  C         -3.4920  -14.8610   26.1840 C.2    62  GLY62       0.2309
     88  O         -4.3570  -15.5830   26.7040 O.2    62  GLY62      -0.2863
     89  N         -6.6530  -11.7120   14.1730 N.3    90  SER90      -0.1202
     90  CA        -5.2730  -11.8320   13.7300 C.3    90  SER90       0.2020
     91  C         -4.3930  -12.2780   14.9030 C.2    90  SER90       0.2619
     92  O         -4.6800  -12.0320   16.0810 O.2    90  SER90      -0.2717
     93  CB        -4.7770  -10.4660   13.1950 C.3    90  SER90       0.2103
     94  OG        -3.4600  -10.5980   12.7040 O.3    90  SER90      -0.2182
     95  N         -3.2740  -12.9120   14.5850 N.am   91  CYS91      -0.1955
     96  CA        -2.4120  -13.4140   15.6550 C.3    91  CYS91       0.1843
     97  C         -1.0410  -13.7290   15.0790 C.2    91  CYS91       0.2625
     98  O         -0.7880  -13.5190   13.8940 O.2    91  CYS91      -0.2714
     99  CB        -3.0440  -14.6110   16.3640 C.3    91  CYS91       0.0997
    100  SG        -3.8120  -15.7470   15.2510 S.3    91  CYS91      -0.0797
    101  N         -0.1430  -14.2370   15.9250 N.am   92  ASP92      -0.1971
    102  CA         1.2760  -14.2680   15.5520 C.3    92  ASP92       0.1709
    103  C          1.9510  -15.5260   16.0690 C.2    92  ASP92       0.2293
    104  O          2.0060  -15.7440   17.2910 O.2    92  ASP92      -0.2864
    105  CB         1.9520  -13.0060   16.1060 C.3    92  ASP92       0.1436
    106  CG         3.3870  -12.8390   15.7180 C.2    92  ASP92       0.3671
    107  OD1        4.0080  -13.7320   15.1240 O.co2  92  ASP92      -0.2456
    108  OD2        3.8640  -11.6940   16.0350 O.co2  92  ASP92      -0.2456
    109  N          4.4870  -16.4170   19.0450 N.3    95  TYR95      -0.1228
    110  CA         3.9600  -16.5990   20.3840 C.3    95  TYR95       0.1721
    111  C          3.4410  -18.0160   20.5170 C.2    95  TYR95       0.2437
    112  O          2.8390  -18.5460   19.5790 O.2    95  TYR95      -0.2733
    113  CB         2.8070  -15.6360   20.6630 C.3    95  TYR95       0.0547
    114  CG         3.3350  -14.2140   20.7490 C.ar   95  TYR95      -0.0200
    115  CD1        3.4750  -13.4400   19.5820 C.ar   95  TYR95      -0.0009
    116  CD2        3.7410  -13.6770   21.9570 C.ar   95  TYR95      -0.0009
    117  CE1        4.0020  -12.1380   19.6510 C.ar   95  TYR95       0.0417
    118  CE2        4.2390  -12.3620   22.0260 C.ar   95  TYR95       0.0417
    119  CZ         4.3670  -11.6360   20.8810 C.ar   95  TYR95       0.1957
    120  OH         4.8420  -10.3570   21.0030 O.3    95  TYR95      -0.2866
    121  N          3.6900  -18.6720   21.6370 N.am   96  PRO96      -0.2718
    122  CA         3.1680  -20.0470   21.7360 C.3    96  PRO96       0.1535
    123  C          1.6530  -20.1150   21.8100 C.2    96  PRO96       0.2598
    124  O          1.0740  -21.0280   21.2190 O.2    96  PRO96      -0.2715
    125  CB         3.8510  -20.5820   23.0000 C.3    96  PRO96       0.0310
    126  CG         4.2470  -19.3740   23.7770 C.3    96  PRO96       0.0237
    127  CD         4.6080  -18.3460   22.7350 C.3    96  PRO96       0.0939
    128  N          1.0120  -19.1950   22.5240 N.am   97  LYS97      -0.1964
    129  CA        -0.4360  -19.1860   22.7540 C.3    97  LYS97       0.1728
    130  C         -1.1290  -18.4680   21.5940 C.2    97  LYS97       0.2616
    131  O         -1.6550  -17.3470   21.7090 O.2    97  LYS97      -0.2715
    132  CB        -0.7620  -18.6420   24.1400 C.3    97  LYS97       0.0311
    133  CG         0.0260  -19.3150   25.3000 C.3    97  LYS97       0.0038
    134  CD        -0.2870  -18.7020   26.6360 C.3    97  LYS97       0.0206
    135  CE         0.5060  -19.3810   27.7410 C.3    97  LYS97       0.1093
    136  NZ         0.2910  -18.7330   29.0410 N.3    97  LYS97      -0.1314
    137  N         -1.1280  -19.1650   20.4720 N.am   98  TYR98      -0.1960
    138  CA        -1.4020  -18.5340   19.1730 C.3    98  TYR98       0.1771
    139  C         -2.8900  -18.3120   19.0150 C.2    98  TYR98       0.2620
    140  O         -3.6930  -19.2510   18.9930 O.2    98  TYR98      -0.2715
    141  CB        -0.8980  -19.4250   18.0400 C.3    98  TYR98       0.0574
    142  CG        -1.2510  -19.0040   16.6460 C.ar   98  TYR98      -0.0198
    143  CD1       -0.5030  -18.0040   15.9960 C.ar   98  TYR98      -0.0009
    144  CD2       -2.3290  -19.5620   15.9870 C.ar   98  TYR98      -0.0009
    145  CE1       -0.7490  -17.6810   14.7010 C.ar   98  TYR98       0.0417
    146  CE2       -2.6160  -19.2210   14.6570 C.ar   98  TYR98       0.0417
    147  CZ        -1.8360  -18.2550   14.0430 C.ar   98  TYR98       0.1957
    148  OH        -2.0560  -17.8760   12.7020 O.3    98  TYR98      -0.2866
    149  N         -3.2790  -17.0610   18.8440 N.am   99  GLY99      -0.1954
    150  CA        -4.6640  -16.7210   18.6070 C.3    99  GLY99       0.1869
    151  C         -5.6240  -17.1210   19.6970 C.2    99  GLY99       0.2309
    152  O         -6.8250  -17.2040   19.4460 O.2    99  GLY99      -0.2863
    153  N         -0.9300  -12.3560   11.3330 N.3   125  LEU125     -0.1245
    154  CA        -0.5230  -10.9510   11.1070 C.3   125  LEU125      0.1561
    155  C         -1.3980  -10.3140   10.0210 C.2   125  LEU125      0.2260
    156  O         -2.6150  -10.3470   10.1540 O.2   125  LEU125     -0.2867
    157  CB         0.9650  -10.8340   10.8800 C.3   125  LEU125      0.0270
    158  CG         1.9370  -11.2800   12.0290 C.3   125  LEU125      0.0019
    159  CD1        3.4480  -11.2220   11.6220 C.3   125  LEU125      0.0001
    160  CD2        1.6210  -10.3140   13.2460 C.3   125  LEU125      0.0001
@<TRIPOS>BOND
     1   155   156    2
     2   155   154    1
     3    31    30    2
     4    28    27    2
     5    24    23    2
     6   157   154    1
     7   157   158    1
     8    26    27    1
     9    26    29    1
    10    26    25    1
    11   154   153    1
    12    30    29    1
    13    30    32   am
    14    27    33   am
    15    23    25   am
    16    23    22    1
    17   159   158    1
    18    36    35    2
    19    22    21    1
    20    18    17    2
    21   158   160    1
    22    35    34    1
    23    33    34    1
    24   148   147    1
    25    94    93    1
    26    34    37    1
    27    17    21   am
    28    17    16    1
    29    93    90    1
    30    90    89    1
    31    90    91    1
    32    20    19    1
    33    98    97    2
    34   147   146   ar
    35   147   145   ar
    36     6     5    1
    37    37    39    1
    38    37    38    1
    39    16    19    1
    40    16    15    1
    41    95    91   am
    42    95    96    1
    43   146   144   ar
    44   145   143   ar
    45    91    92    2
    46    97    96    1
    47    97   101   am
    48     5     2    1
    49   107   106   ar
    50   100    99    1
    51   102   101    1
    52   102   103    1
    53   102   105    1
    54    15     9   am
    55    96    99    1
    56   106   108   ar
    57   106   105    1
    58   144   142   ar
    59   143   142   ar
    60   103   104    2
    61    10     9    2
    62     9     8    1
    63     2     3    1
    64     2     1    1
    65   142   141    1
    66     3     4    2
    67     3     7   am
    68     7     8    1
    69     8    11    1
    70   141   138    1
    71    44    41    1
    72    44    45    1
    73    40    41    1
    74    41    42    1
    75   150   149    1
    76   150   151    1
    77    11    12    1
    78    46    45   ar
    79    46    48   ar
    80   149   139   am
    81   140   139    2
    82   139   138    1
    83   109   110    1
    84    45    47   ar
    85   138   137    1
    86    12    13    1
    87   152   151    2
    88   112   111    2
    89   115   117   ar
    90   115   114   ar
    91   117   119   ar
    92    48    50   ar
    93    42    52   am
    94    42    43    2
    95    52    53    1
    96    47    49   ar
    97   110   111    1
    98   110   113    1
    99    13    14    1
   100   137   130   am
   101    57    56    1
   102   111   121   am
   103   113   114    1
   104   114   116   ar
   105    50    49   ar
   106    50    51    1
   107   119   120    1
   108   119   118   ar
   109    55    54    2
   110    56    53    1
   111    56    58    1
   112   124   123    2
   113    53    54    1
   114   130   131    2
   115   130   129    1
   116   121   122    1
   117   121   127    1
   118   122   123    1
   119   122   125    1
   120    54    59   am
   121   123   128   am
   122    71    69   ar
   123    71    72   ar
   124   116   118   ar
   125    69    66   ar
   126   128   129    1
   127   127   126    1
   128   129   132    1
   129    72    70   ar
   130   125   126    1
   131    59    60    1
   132    60    63    1
   133    60    61    1
   134    66    68   ar
   135    66    64   ar
   136    70    68   ar
   137   132   133    1
   138    63    64    1
   139    62    61    2
   140    68    67   ar
   141    61    73   am
   142    64    65   ar
   143   133   134    1
   144    86    85    1
   145    86    87    1
   146    73    74    1
   147    67    65   ar
   148    85    79   am
   149    87    88    2
   150    74    75    1
   151   134   135    1
   152    77    75   am
   153    77    78    1
   154    75    76    2
   155    79    78    1
   156    79    80    2
   157    78    81    1
   158   135   136    1
   159    83    82   ar
   160    81    82    1
   161    82    84   ar
