@<TRIPOS>MOLECULE
tmp/6ft2A00.pdb
 139 131 0 0 0
SMALL
GASTEIGER

@<TRIPOS>ATOM
      1  N         13.5430    3.3680   -7.7860 N.3    10  ASP10      -0.1239
      2  CA        14.1700    2.1080   -7.4240 C.3    10  ASP10       0.1674
      3  C         15.0050    1.6870   -8.6470 C.2    10  ASP10       0.2266
      4  O         14.4560    1.3960   -9.7220 O.2    10  ASP10      -0.2867
      5  CB        13.0960    1.0610   -7.0910 C.3    10  ASP10       0.1410
      6  CG        13.5590   -0.3720   -7.1190 C.2    10  ASP10       0.3668
      7  OD1       14.7540   -0.6080   -6.8940 O.co2  10  ASP10      -0.2456
      8  OD2       12.6990   -1.2550   -7.1600 O.co2  10  ASP10      -0.2456
      9  N         16.5310   -0.9160   -9.7600 N.3    12  THR12      -0.1203
     10  CA        16.7060   -2.3320  -10.0810 C.3    12  THR12       0.1994
     11  C         15.6540   -2.7800  -11.0580 C.2    12  THR12       0.2617
     12  O         15.1840   -3.9110  -10.9970 O.2    12  THR12      -0.2717
     13  CB        16.6970   -3.2170   -8.7960 C.3    12  THR12       0.1784
     14  OG1       15.4410   -3.0590   -8.1290 O.3    12  THR12      -0.2211
     15  CG2       17.8140   -2.8700   -7.8250 C.3    12  THR12       0.0376
     16  N         15.3100   -1.9120  -12.0150 N.am   13  TYR13      -0.1975
     17  CA        14.2520   -2.2420  -12.9710 C.3    13  TYR13       0.1639
     18  C         14.6260   -1.7340  -14.3550 C.2    13  TYR13       0.2290
     19  O         13.9500   -0.8820  -14.9600 O.2    13  TYR13      -0.2864
     20  CB        12.9130   -1.5990  -12.4830 C.3    13  TYR13       0.0560
     21  CG        11.6770   -2.4480  -12.5920 C.ar   13  TYR13      -0.0198
     22  CD1       11.5490   -3.6020  -11.8490 C.ar   13  TYR13      -0.0009
     23  CD2       10.5980   -2.0420  -13.3710 C.ar   13  TYR13      -0.0009
     24  CE1       10.3730   -4.3530  -11.8670 C.ar   13  TYR13       0.0417
     25  CE2        9.4090   -2.7790  -13.3980 C.ar   13  TYR13       0.0417
     26  CZ         9.3080   -3.9340  -12.6380 C.ar   13  TYR13       0.1957
     27  OH         8.1450   -4.6510  -12.5870 O.3    13  TYR13      -0.2866
     28  N         14.0870    0.7570  -17.3360 N.3    16  PHE16      -0.1227
     29  CA        13.4820    1.9800  -16.8560 C.3    16  PHE16       0.1736
     30  C         14.3580    2.7400  -15.8630 C.2    16  PHE16       0.2596
     31  O         14.5360    3.9480  -15.9910 O.2    16  PHE16      -0.2718
     32  CB        12.0930    1.6510  -16.2650 C.3    16  PHE16       0.0547
     33  CG        11.2030    1.0830  -17.3380 C.ar   16  PHE16      -0.0202
     34  CD1       10.7000    1.8940  -18.3350 C.ar   16  PHE16      -0.0042
     35  CD2       10.8630   -0.2690  -17.3410 C.ar   16  PHE16      -0.0042
     36  CE1        9.8340    1.3720  -19.3090 C.ar   16  PHE16      -0.0003
     37  CE2       10.0450   -0.7960  -18.3510 C.ar   16  PHE16      -0.0003
     38  CZ         9.5440    0.0390  -19.3160 C.ar   16  PHE16      -0.0000
     39  N         14.9100    2.0130  -14.8980 N.am   17  SER17      -0.1952
     40  CA        15.7330    2.6280  -13.8720 C.3    17  SER17       0.1924
     41  C         16.7230    1.5980  -13.3750 C.2    17  SER17       0.2314
     42  O         16.3450    0.5520  -12.8380 O.2    17  SER17      -0.2863
     43  CB        14.8540    3.1120  -12.7240 C.3    17  SER17       0.2116
     44  OG        15.6240    3.7910  -11.7410 O.3    17  SER17      -0.2180
     45  N         13.0770    5.9150  -17.4420 N.3    29  ASP29      -0.1239
     46  CA        12.4850    6.7800  -16.4140 C.3    29  ASP29       0.1674
     47  C         13.3930    7.9720  -16.1180 C.2    29  ASP29       0.2266
     48  O         12.9530    9.0730  -15.8430 O.2    29  ASP29      -0.2867
     49  CB        12.2820    5.9930  -15.1200 C.3    29  ASP29       0.1410
     50  CG        11.0010    5.2230  -15.0280 C.2    29  ASP29       0.3668
     51  OD1       10.1490    5.3890  -15.9180 O.co2  29  ASP29      -0.2456
     52  OD2       10.8570    4.4430  -14.0610 O.co2  29  ASP29      -0.2456
     53  N         11.7220   -0.0480   -3.7760 N.3    51  PHE51      -0.1241
     54  CA        10.4390    0.3280   -4.3460 C.3    51  PHE51       0.1605
     55  C          9.3540    0.5290   -3.2780 C.2    51  PHE51       0.2264
     56  O          8.5620    1.4790   -3.3390 O.2    51  PHE51      -0.2867
     57  CB        10.0330   -0.7120   -5.3820 C.3    51  PHE51       0.0534
     58  CG         8.7830   -0.3020   -6.1150 C.ar   51  PHE51      -0.0203
     59  CD1        8.8340    0.6590   -7.1150 C.ar   51  PHE51      -0.0042
     60  CD2        7.5550   -0.8870   -5.8110 C.ar   51  PHE51      -0.0042
     61  CE1        7.6810    1.0700   -7.7740 C.ar   51  PHE51      -0.0003
     62  CE2        6.4060   -0.5100   -6.5110 C.ar   51  PHE51      -0.0003
     63  CZ         6.4800    0.4880   -7.4720 C.ar   51  PHE51      -0.0000
     64  N          9.3950    5.7230  -11.2400 N.3    68  SER68      -0.1202
     65  CA         9.9250    4.3750  -10.9710 C.3    68  SER68       0.2020
     66  C          8.9460    3.3340  -11.4890 C.2    68  SER68       0.2619
     67  O          8.5860    2.4090  -10.7490 O.2    68  SER68      -0.2717
     68  CB        10.0660    4.2270   -9.4500 C.3    68  SER68       0.2103
     69  OG        10.9930    3.2200   -9.0710 O.3    68  SER68      -0.2182
     70  N          8.4900    3.4990  -12.7330 N.am   69  SER69      -0.1937
     71  CA         7.4690    2.6400  -13.3300 C.3    69  SER69       0.2055
     72  C          6.2730    2.4740  -12.4290 C.2    69  SER69       0.2643
     73  O          5.7640    1.3440  -12.2600 O.2    69  SER69      -0.2714
     74  CB         8.0130    1.2570  -13.6940 C.3    69  SER69       0.2130
     75  OG         9.1140    1.3000  -14.5940 O.3    69  SER69      -0.2179
     76  N          5.8350    3.6080  -11.8150 N.am   70  LEU70      -0.1963
     77  CA         4.7760    3.5140  -10.8200 C.3    70  LEU70       0.1728
     78  C          3.4190    3.4710  -11.4430 C.2    70  LEU70       0.2616
     79  O          2.9510    4.4530  -11.9790 O.2    70  LEU70      -0.2715
     80  CB         4.9130    4.6980   -9.8670 C.3    70  LEU70       0.0311
     81  CG         4.0260    4.6480   -8.6260 C.3    70  LEU70       0.0022
     82  CD1        4.5020    3.5830   -7.6570 C.3    70  LEU70       0.0001
     83  CD2        4.0510    5.9980   -7.9010 C.3    70  LEU70       0.0001
     84  N          2.8010    2.2840  -11.4140 N.am   71  SER71      -0.1950
     85  CA         1.4870    2.1130  -12.0350 C.3    71  SER71       0.1924
     86  C          0.4140    2.9660  -11.3620 C.2    71  SER71       0.2314
     87  O          0.3560    3.0910  -10.1230 O.2    71  SER71      -0.2863
     88  CB         1.0800    0.6420  -12.0000 C.3    71  SER71       0.2116
     89  OG         1.9310   -0.1570  -12.8130 O.3    71  SER71      -0.2180
     90  N         -3.7020    3.3750   -5.2580 N.3    76  ARG76      -0.1245
     91  CA        -2.7230    4.4400   -5.0640 C.3    76  ARG76       0.1563
     92  C         -3.3100    5.8270   -5.2450 C.2    76  ARG76       0.2260
     93  O         -2.8670    6.7370   -4.5180 O.2    76  ARG76      -0.2867
     94  CB        -1.5120    4.2290   -5.9720 C.3    76  ARG76       0.0307
     95  CG        -0.6760    3.0430   -5.5470 C.3    76  ARG76       0.0489
     96  CD         0.3050    2.7540   -6.6450 C.3    76  ARG76       0.2205
     97  NE         1.1310    1.6070   -6.2790 N.pl3  76  ARG76      -0.0865
     98  CZ         1.8460    0.9100   -7.1520 C.cat  76  ARG76       0.5346
     99  NH1        1.8430    1.2440   -8.4290 N.pl3  76  ARG76       0.1354
    100  NH2        2.6080   -0.0940   -6.7410 N.pl3  76  ARG76       0.1354
    101  N          2.1980   -0.3630  -18.8130 N.3    89  ALA89      -0.1245
    102  CA         2.8360   -1.4370  -18.0560 C.3    89  ALA89       0.1562
    103  C          1.8450   -2.5310  -17.7890 C.2    89  ALA89       0.2260
    104  O          0.7520   -2.2470  -17.2830 O.2    89  ALA89      -0.2867
    105  CB         3.4280   -0.9410  -16.7390 C.3    89  ALA89       0.0290
    106  N          7.9540   -8.3710   -6.4250 N.3   116  LEU116     -0.1245
    107  CA         8.6070   -7.2430   -5.7730 C.3   116  LEU116      0.1561
    108  C          7.7670   -6.6810   -4.6280 C.2   116  LEU116      0.2260
    109  O          6.5960   -6.4140   -4.8420 O.2   116  LEU116     -0.2867
    110  CB         8.8940   -6.1910   -6.8790 C.3   116  LEU116      0.0270
    111  CG         9.3560   -4.8390   -6.3690 C.3   116  LEU116      0.0019
    112  CD1       10.7510   -4.9470   -5.7300 C.3   116  LEU116      0.0001
    113  CD2        9.4220   -3.8830   -7.5440 C.3   116  LEU116      0.0001
    114  N          4.7600   -3.8860   -4.9800 N.3   119  SER119     -0.1202
    115  CA         4.3050   -3.8220   -6.3630 C.3   119  SER119      0.2020
    116  C          2.8930   -4.2840   -6.6050 C.2   119  SER119      0.2619
    117  O          2.3120   -4.9870   -5.7670 O.2   119  SER119     -0.2717
    118  CB         5.2530   -4.6290   -7.2490 C.3   119  SER119      0.2103
    119  OG         5.0930   -6.0310   -7.0070 O.3   119  SER119     -0.2182
    120  N          2.3560   -3.9030   -7.7660 N.am  120  THR120     -0.1938
    121  CA         1.0550   -4.4300   -8.1840 C.3   120  THR120      0.2028
    122  C          1.1510   -5.9750   -8.3560 C.2   120  THR120      0.2642
    123  O          0.1820   -6.6690   -8.0400 O.2   120  THR120     -0.2714
    124  CB         0.6740   -3.8000   -9.5010 C.3   120  THR120      0.1808
    125  OG1        1.7330   -4.0250  -10.4060 O.3   120  THR120     -0.2208
    126  CG2        0.4270   -2.3010   -9.3600 C.3   120  THR120      0.0379
    127  N          2.3040   -6.4870   -8.7750 N.am  121  ALA121     -0.1977
    128  CA         2.4780   -7.9500   -8.9130 C.3   121  ALA121      0.1597
    129  C          2.3030   -8.6400   -7.5580 C.2   121  ALA121      0.2287
    130  O          1.6770   -9.7130   -7.4550 O.2   121  ALA121     -0.2864
    131  CB         3.8660   -8.2730   -9.4580 C.3   121  ALA121      0.0319
    132  N          6.7020   -6.4080  -14.3920 N.3   160  ASP160     -0.1239
    133  CA         6.2890   -5.7660  -15.6140 C.3   160  ASP160      0.1674
    134  C          6.9160   -6.4520  -16.8210 C.2   160  ASP160      0.2266
    135  O          8.0970   -6.7840  -16.8210 O.2   160  ASP160     -0.2867
    136  CB         6.5900   -4.2540  -15.5670 C.3   160  ASP160      0.1410
    137  CG         5.7370   -3.4390  -14.6180 C.2   160  ASP160      0.3668
    138  OD1        4.7930   -4.0160  -14.0050 O.co2 160  ASP160     -0.2456
    139  OD2        6.0590   -2.2680  -14.4020 O.co2 160  ASP160     -0.2456
@<TRIPOS>BOND
     1    38    36   ar
     2    38    37   ar
     3    36    34   ar
     4   101   102    1
     5    37    35   ar
     6    34    33   ar
     7   102   103    1
     8   102   105    1
     9   103   104    2
    10    45    46    1
    11    35    33   ar
    12    33    32    1
    13    28    29    1
    14    29    32    1
    15    29    30    1
    16   135   134    2
    17   134   133    1
    18    46    47    1
    19    46    49    1
    20    47    48    2
    21    31    30    2
    22    51    50   ar
    23    30    39   am
    24   133   136    1
    25   133   132    1
    26   136   137    1
    27    49    50    1
    28    50    52   ar
    29    19    18    2
    30    39    40    1
    31   137   139   ar
    32   137   138   ar
    33    75    74    1
    34    18    17    1
    35    40    41    1
    36    40    43    1
    37    74    71    1
    38    25    23   ar
    39    25    26   ar
    40    41    42    2
    41    23    21   ar
    42    71    70    1
    43    71    72    1
    44    17    20    1
    45    17    16    1
    46    89    88    1
    47    70    66   am
    48    43    44    1
    49    26    27    1
    50    26    24   ar
    51    21    20    1
    52    21    22   ar
    53    72    73    2
    54    72    76   am
    55    85    88    1
    56    85    84    1
    57    85    86    1
    58    16    11   am
    59    79    78    2
    60    24    22   ar
    61    76    77    1
    62    66    65    1
    63    66    67    2
    64    78    84   am
    65    78    77    1
    66    86    87    2
    67    64    65    1
    68    11    12    2
    69    11    10    1
    70    65    68    1
    71    77    80    1
    72   125   124    1
    73    10     9    1
    74    10    13    1
    75    80    81    1
    76     4     3    2
    77   124   126    1
    78   124   121    1
    79   131   128    1
    80    68    69    1
    81   128   127    1
    82   128   129    1
    83    13    14    1
    84    13    15    1
    85   127   122   am
    86     3     2    1
    87    81    83    1
    88    81    82    1
    89    99    98    1
    90   122   121    1
    91   122   123    2
    92   121   120    1
    93     1     2    1
    94    61    63   ar
    95    61    59   ar
    96   120   116   am
    97   129   130    2
    98   113   111    1
    99    63    62   ar
   100     2     5    1
   101   118   119    1
   102   118   115    1
   103     8     6   ar
   104    98   100    1
   105    98    97    2
   106     6     5    1
   107     6     7   ar
   108    59    58   ar
   109   110   111    1
   110   110   107    1
   111    96    97    1
   112    96    95    1
   113   116   115    1
   114   116   117    2
   115    62    60   ar
   116   106   107    1
   117   111   112    1
   118   115   114    1
   119    58    60   ar
   120    58    57    1
   121    94    95    1
   122    94    91    1
   123   107   108    1
   124    57    54    1
   125    90    91    1
   126    92    91    1
   127    92    93    2
   128   109   108    2
   129    54    53    1
   130    54    55    1
   131    56    55    2
