@<TRIPOS>MOLECULE
tmp/6ft3A00.pdb
 141 139 0 0 0
SMALL
GASTEIGER

@<TRIPOS>ATOM
      1  N         22.7720   21.9090    1.1680 N.3    40  TRP40      -0.1228
      2  CA        22.6090   20.5360    1.7120 C.3    40  TRP40       0.1722
      3  C         23.8710   19.7290    1.9630 C.2    40  TRP40       0.2437
      4  O         23.9580   19.0460    2.9710 O.2    40  TRP40      -0.2733
      5  CB        21.5260   19.7430    0.9140 C.3    40  TRP40       0.0563
      6  CG        21.8250   19.5400   -0.5330 C.ar   40  TRP40       0.0003
      7  CD1       21.5300   20.3980   -1.5820 C.ar   40  TRP40       0.0946
      8  CD2       22.5200   18.4430   -1.1050 C.ar   40  TRP40       0.0152
      9  NE1       22.0230   19.8770   -2.7600 N.ar   40  TRP40      -0.2442
     10  CE2       22.6380   18.6930   -2.4950 C.ar   40  TRP40       0.0810
     11  CE3       23.1140   17.2730   -0.5710 C.ar   40  TRP40       0.0012
     12  CZ2       23.3010   17.7970   -3.3740 C.ar   40  TRP40       0.0191
     13  CZ3       23.7750   16.4130   -1.4480 C.ar   40  TRP40       0.0001
     14  CH2       23.8590   16.6830   -2.8070 C.ar   40  TRP40       0.0015
     15  N         24.8880   19.7780    1.0780 N.am   41  PRO41      -0.2718
     16  CA        26.0790   18.9490    1.3620 C.3    41  PRO41       0.1535
     17  C         26.8370   19.4180    2.6060 C.2    41  PRO41       0.2598
     18  O         27.6610   18.6320    3.1380 O.2    41  PRO41      -0.2715
     19  CB        26.9460   19.1590    0.1370 C.3    41  PRO41       0.0310
     20  CG        25.9970   19.5980   -0.9470 C.3    41  PRO41       0.0237
     21  CD        25.0070   20.4690   -0.2310 C.3    41  PRO41       0.0939
     22  N         26.6140   20.6740    3.0210 N.am   42  PHE42      -0.1974
     23  CA        27.3160   21.3140    4.0990 C.3    42  PHE42       0.1639
     24  C         26.5290   21.3720    5.3980 C.2    42  PHE42       0.2290
     25  O         27.0300   21.8880    6.4070 O.2    42  PHE42      -0.2864
     26  CB        27.7130   22.7390    3.6560 C.3    42  PHE42       0.0560
     27  CG        28.5250   22.7640    2.3950 C.ar   42  PHE42      -0.0200
     28  CD1       29.9030   22.5430    2.4600 C.ar   42  PHE42      -0.0042
     29  CD2       27.9460   23.0310    1.1880 C.ar   42  PHE42      -0.0042
     30  CE1       30.6640   22.5240    1.3030 C.ar   42  PHE42      -0.0003
     31  CE2       28.7310   23.0290    0.0320 C.ar   42  PHE42      -0.0003
     32  CZ        30.0480   22.7760    0.0930 C.ar   42  PHE42      -0.0000
     33  N         25.7930   18.9620    7.4850 N.3    44  GLN44      -0.1231
     34  CA        26.1840   17.9080    8.4440 C.3    44  GLN44       0.1683
     35  C         27.6130   17.5290    8.1280 C.2    44  GLN44       0.2434
     36  O         28.0850   17.7710    7.0140 O.2    44  GLN44      -0.2733
     37  CB        25.2410   16.6970    8.3550 C.3    44  GLN44       0.0380
     38  CG        25.2310   16.0250    6.9900 C.3    44  GLN44       0.0905
     39  CD        24.4340   16.8310    5.9670 C.2    44  GLN44       0.2608
     40  OE1       23.2720   17.2330    6.2230 O.2    44  GLN44      -0.2717
     41  NE2       25.0440   17.0520    4.7730 N.am   44  GLN44      -0.0878
     42  N         28.3160   16.8580    9.0490 N.am   45  PRO45      -0.2718
     43  CA        29.6460   16.3490    8.7420 C.3    45  PRO45       0.1535
     44  C         29.6870   15.4750    7.5020 C.2    45  PRO45       0.2598
     45  O         28.7480   14.7320    7.2290 O.2    45  PRO45      -0.2715
     46  CB        30.0080   15.5350    9.9950 C.3    45  PRO45       0.0310
     47  CG        29.2890   16.2390   11.1150 C.3    45  PRO45       0.0237
     48  CD        27.9720   16.6040   10.4630 C.3    45  PRO45       0.0939
     49  N         30.7760   15.5450    6.7570 N.am   46  VAL46      -0.1964
     50  CA        30.9790   14.6120    5.6240 C.3    46  VAL46       0.1727
     51  C         30.9320   13.1810    6.0900 C.2    46  VAL46       0.2616
     52  O         31.7180   12.7730    6.9700 O.2    46  VAL46      -0.2715
     53  CB        32.3250   14.9070    4.9180 C.3    46  VAL46       0.0290
     54  CG1       32.6580   13.8180    3.8720 C.3    46  VAL46       0.0023
     55  CG2       32.2460   16.2930    4.2370 C.3    46  VAL46       0.0023
     56  N         30.0180   12.4190    5.5150 N.am   47  ASP47      -0.1971
     57  CA        29.8790   10.9780    5.8180 C.3    47  ASP47       0.1709
     58  C         30.6810   10.1980    4.7900 C.2    47  ASP47       0.2293
     59  O         30.1890    9.9820    3.6570 O.2    47  ASP47      -0.2864
     60  CB        28.4100   10.5690    5.8150 C.3    47  ASP47       0.1436
     61  CG        28.1850    9.1310    6.2200 C.2    47  ASP47       0.3671
     62  OD1       29.1360    8.3330    6.1280 O.co2  47  ASP47      -0.2456
     63  OD2       27.0280    8.8060    6.5810 O.co2  47  ASP47      -0.2456
     64  N         29.2420    8.3030    1.3580 N.3    51  LEU51      -0.1245
     65  CA        29.7210    8.9040    0.0990 C.3    51  LEU51       0.1561
     66  C         30.8750    8.1530   -0.5670 C.2    51  LEU51       0.2260
     67  O         31.3030    8.5320   -1.6170 O.2    51  LEU51      -0.2867
     68  CB        30.1090   10.3530    0.3780 C.3    51  LEU51       0.0270
     69  CG        28.9610   11.2890    0.7790 C.3    51  LEU51       0.0019
     70  CD1       29.4840   12.6010    1.3330 C.3    51  LEU51       0.0001
     71  CD2       28.0390   11.5590   -0.4010 C.3    51  LEU51       0.0001
     72  N         34.1150    7.8290    0.2790 N.3    53  LEU53      -0.1245
     73  CA        35.2730    8.7330    0.2180 C.3    53  LEU53       0.1561
     74  C         36.2790    8.2410    1.2660 C.2    53  LEU53       0.2260
     75  O         36.5410    8.9180    2.2590 O.2    53  LEU53      -0.2867
     76  CB        34.8970   10.1830    0.4800 C.3    53  LEU53       0.0270
     77  CG        33.8090   10.7900   -0.3850 C.3    53  LEU53       0.0019
     78  CD1       33.4210   12.1730    0.1490 C.3    53  LEU53       0.0001
     79  CD2       34.2000   10.8140   -1.8530 C.3    53  LEU53       0.0001
     80  N         38.9170   10.6630    2.6360 N.3    56  TYR56      -0.1241
     81  CA        38.5460   12.0320    3.0160 C.3    56  TYR56       0.1605
     82  C         39.2410   12.4770    4.3190 C.2    56  TYR56       0.2264
     83  O         39.8440   13.5680    4.4010 O.2    56  TYR56      -0.2867
     84  CB        37.0150   12.1940    3.1520 C.3    56  TYR56       0.0534
     85  CG        36.6250   13.6340    3.4340 C.ar   56  TYR56      -0.0201
     86  CD1       36.5110   14.5490    2.3800 C.ar   56  TYR56      -0.0009
     87  CD2       36.4550   14.0940    4.7500 C.ar   56  TYR56      -0.0009
     88  CE1       36.2030   15.8810    2.6370 C.ar   56  TYR56       0.0417
     89  CE2       36.1540   15.4210    5.0140 C.ar   56  TYR56       0.0417
     90  CZ        35.9920   16.3030    3.9610 C.ar   56  TYR56       0.1957
     91  OH        35.7790   17.6380    4.2360 O.3    56  TYR56      -0.2866
     92  N         36.8200   21.9330    1.5390 N.3    95  CYS95      -0.1235
     93  CA        36.1930   21.5750    0.2860 C.3    95  CYS95       0.1677
     94  C         37.1300   21.8050   -0.9040 C.2    95  CYS95       0.2270
     95  O         37.2740   20.9320   -1.7930 O.2    95  CYS95      -0.2867
     96  CB        34.9120   22.3650    0.1290 C.3    95  CYS95       0.0956
     97  SG        33.9140   21.9600   -1.3030 S.3    95  CYS95      -0.0801
     98  N         40.1440   19.1320   -0.7690 N.3    98  TYR98      -0.1227
     99  CA        39.8390   17.7610   -1.1080 C.3    98  TYR98       0.1736
    100  C         39.4480   17.5810   -2.5780 C.2    98  TYR98       0.2595
    101  O         39.8220   16.5840   -3.1850 O.2    98  TYR98      -0.2718
    102  CB        38.7420   17.2210   -0.1850 C.3    98  TYR98       0.0548
    103  CG        38.4260   15.7770   -0.4790 C.ar   98  TYR98      -0.0200
    104  CD1       39.3140   14.7670   -0.0660 C.ar   98  TYR98      -0.0009
    105  CD2       37.3170   15.4030   -1.1960 C.ar   98  TYR98      -0.0009
    106  CE1       39.0850   13.4310   -0.3940 C.ar   98  TYR98       0.0417
    107  CE2       37.0840   14.0640   -1.5760 C.ar   98  TYR98       0.0417
    108  CZ        37.9420   13.0890   -1.1350 C.ar   98  TYR98       0.1957
    109  OH        37.7170   11.7920   -1.4650 O.3    98  TYR98      -0.2866
    110  N         38.6560   18.5110   -3.1040 N.am   99  ASN99      -0.1974
    111  CA        38.0550   18.3520   -4.4490 C.3    99  ASN99       0.1688
    112  C         38.8740   18.9930   -5.5440 C.2    99  ASN99       0.2292
    113  O         39.9000   19.5600   -5.2700 O.2    99  ASN99      -0.2864
    114  CB        36.6110   18.8520   -4.3870 C.3    99  ASN99       0.1181
    115  CG        35.7960   18.0870   -3.3750 C.2    99  ASN99       0.2629
    116  OD1       35.3790   16.9600   -3.6740 O.2    99  ASN99      -0.2716
    117  ND2       35.5930   18.6310   -2.1600 N.am   99  ASN99      -0.0877
    118  N         31.2540   19.9250   -8.9840 N.3   104  ASP104     -0.1225
    119  CA        29.9790   20.4840   -8.5270 C.3   104  ASP104      0.1805
    120  C         30.0900   20.9920   -7.1030 C.2   104  ASP104      0.2597
    121  O         29.5760   22.0940   -6.8020 O.2   104  ASP104     -0.2718
    122  CB        28.8020   19.4690   -8.5990 C.3   104  ASP104      0.1424
    123  CG        28.2240   19.3250  -10.0120 C.2   104  ASP104      0.3668
    124  OD1       28.4100   20.2640  -10.8540 O.co2 104  ASP104     -0.2456
    125  OD2       27.5760   18.2770  -10.2470 O.co2 104  ASP104     -0.2456
    126  N         30.7140   20.2370   -6.2100 N.am  105  ILE105     -0.1980
    127  CA        30.7590   20.6490   -4.8140 C.3   105  ILE105      0.1595
    128  C         31.5610   21.9300   -4.6310 C.2   105  ILE105      0.2287
    129  O         31.2470   22.7240   -3.7530 O.2   105  ILE105     -0.2864
    130  CB        31.2820   19.5150   -3.9090 C.3   105  ILE105      0.0276
    131  CG1       31.0550   19.8040   -2.4230 C.3   105  ILE105      0.0022
    132  CG2       32.7550   19.2250   -4.1450 C.3   105  ILE105      0.0022
    133  CD1       29.6030   19.8070   -1.9940 C.3   105  ILE105      0.0001
    134  N         29.3700   24.8110   -5.5750 N.3   108  MET108     -0.1245
    135  CA        28.4240   25.0200   -4.4740 C.3   108  MET108      0.1570
    136  C         29.0860   25.8010   -3.3430 C.2   108  MET108      0.2261
    137  O         28.5550   26.8070   -2.8630 O.2   108  MET108     -0.2867
    138  CB        27.8890   23.6680   -3.9990 C.3   108  MET108      0.0387
    139  CG        27.0450   22.9720   -5.0420 C.3   108  MET108      0.0595
    140  SD        26.6520   21.2430   -4.7160 S.3   108  MET108     -0.1393
    141  CE        25.4190   21.6890   -3.7480 C.3   108  MET108      0.0692
@<TRIPOS>BOND
     1   124   123   ar
     2   125   123   ar
     3   123   122    1
     4   118   119    1
     5   122   119    1
     6   119   120    1
     7   120   121    2
     8   120   126   am
     9   126   127    1
    10   134   135    1
    11   112   113    2
    12   112   111    1
    13   139   140    1
    14   139   138    1
    15   127   128    1
    16   127   130    1
    17   140   141    1
    18   128   129    2
    19   135   138    1
    20   135   136    1
    21   111   114    1
    22   111   110    1
    23   114   115    1
    24   132   130    1
    25   130   131    1
    26   116   115    2
    27   115   117   am
    28    12    14   ar
    29    12    10   ar
    30   136   137    2
    31   101   100    2
    32   110   100   am
    33    14    13   ar
    34     9    10   ar
    35     9     7   ar
    36   100    99    1
    37    10     8   ar
    38   131   133    1
    39    79    77    1
    40    95    94    2
    41    67    66    2
    42     7     6   ar
    43   107   105   ar
    44   107   108   ar
    45   109   108    1
    46    13    11   ar
    47    97    96    1
    48   105   103   ar
    49   108   106   ar
    50    99    98    1
    51    99   102    1
    52     8    11   ar
    53     8     6   ar
    54    20    21    1
    55    20    19    1
    56    94    93    1
    57    66    65    1
    58     6     5    1
    59   103   102    1
    60   103   104   ar
    61    71    69    1
    62   106   104   ar
    63    77    78    1
    64    77    76    1
    65    21    15    1
    66    31    32   ar
    67    31    29   ar
    68    32    30   ar
    69    65    68    1
    70    65    64    1
    71    96    93    1
    72    19    16    1
    73    73    72    1
    74    73    76    1
    75    73    74    1
    76    93    92    1
    77    68    69    1
    78    69    70    1
    79     5     2    1
    80    15    16    1
    81    15     3   am
    82     1     2    1
    83    29    27   ar
    84    74    75    2
    85    30    28   ar
    86    16    17    1
    87     2     3    1
    88     3     4    2
    89    86    88   ar
    90    86    85   ar
    91    27    28   ar
    92    27    26    1
    93    17    22   am
    94    17    18    2
    95    80    81    1
    96    88    90   ar
    97    81    84    1
    98    81    82    1
    99    22    23    1
   100    84    85    1
   101    85    87   ar
   102    26    23    1
   103    59    58    2
   104    54    53    1
   105    90    91    1
   106    90    89   ar
   107    23    24    1
   108    55    53    1
   109    82    83    2
   110    87    89   ar
   111    41    39   am
   112    58    57    1
   113    53    50    1
   114    24    25    2
   115    56    57    1
   116    56    51   am
   117    50    51    1
   118    50    49    1
   119    60    57    1
   120    60    61    1
   121    39    40    2
   122    39    38    1
   123    51    52    2
   124    62    61   ar
   125    61    63   ar
   126    49    44   am
   127    38    37    1
   128    36    35    2
   129    45    44    2
   130    33    34    1
   131    44    43    1
   132    35    34    1
   133    35    42   am
   134    37    34    1
   135    43    42    1
   136    43    46    1
   137    42    48    1
   138    46    47    1
   139    48    47    1
