@<TRIPOS>MOLECULE
tmp/6ft4A00.pdb
 133 131 0 0 0
SMALL
GASTEIGER

@<TRIPOS>ATOM
      1  N         29.2700   21.5120   12.4610 N.3    40  TRP40      -0.1228
      2  CA        30.5930   21.3230   13.0060 C.3    40  TRP40       0.1722
      3  C         31.4750   22.5820   13.0710 C.2    40  TRP40       0.2437
      4  O         32.1670   22.7390   14.0550 O.2    40  TRP40      -0.2733
      5  CB        31.3160   20.1300   12.3160 C.3    40  TRP40       0.0563
      6  CG        31.6710   20.3210   10.9100 C.ar   40  TRP40       0.0003
      7  CD1       30.9420   19.9190    9.8050 C.ar   40  TRP40       0.0946
      8  CD2       32.8640   20.9290   10.3970 C.ar   40  TRP40       0.0152
      9  NE1       31.5880   20.3190    8.6640 N.ar   40  TRP40      -0.2442
     10  CE2       32.7750   20.9030    8.9920 C.ar   40  TRP40       0.0810
     11  CE3       33.9950   21.4770   10.9940 C.ar   40  TRP40       0.0012
     12  CZ2       33.7640   21.4370    8.1830 C.ar   40  TRP40       0.0191
     13  CZ3       34.9750   21.9870   10.2070 C.ar   40  TRP40       0.0001
     14  CH2       34.8690   21.9420    8.7950 C.ar   40  TRP40       0.0015
     15  N         31.4560   23.5080   12.0720 N.am   41  PRO41      -0.2718
     16  CA        32.3290   24.7210   12.2290 C.3    41  PRO41       0.1535
     17  C         31.9140   25.6360   13.3850 C.2    41  PRO41       0.2598
     18  O         32.7270   26.4530   13.8190 O.2    41  PRO41      -0.2715
     19  CB        32.1070   25.4740   10.9250 C.3    41  PRO41       0.0310
     20  CG        31.6630   24.3630    9.9280 C.3    41  PRO41       0.0237
     21  CD        30.8020   23.5030   10.7650 C.3    41  PRO41       0.0939
     22  N         30.6680   25.4500   13.8230 N.am   42  PHE42      -0.1974
     23  CA        30.0640   26.2250   14.8730 C.3    42  PHE42       0.1639
     24  C         30.0520   25.5550   16.2450 C.2    42  PHE42       0.2290
     25  O         29.5460   26.1420   17.1890 O.2    42  PHE42      -0.2864
     26  CB        28.6430   26.6170   14.4640 C.3    42  PHE42       0.0560
     27  CG        28.5440   27.2810   13.1430 C.ar   42  PHE42      -0.0200
     28  CD1       28.6350   28.6670   13.0660 C.ar   42  PHE42      -0.0042
     29  CD2       28.3520   26.5680   11.9730 C.ar   42  PHE42      -0.0042
     30  CE1       28.6250   29.3050   11.8490 C.ar   42  PHE42      -0.0003
     31  CE2       28.3140   27.2190   10.7600 C.ar   42  PHE42      -0.0003
     32  CZ        28.4490   28.5800   10.6940 C.ar   42  PHE42      -0.0000
     33  N         32.5310   24.8700   18.2770 N.3    44  GLN44      -0.1231
     34  CA        33.5700   25.3260   19.1740 C.3    44  GLN44       0.1683
     35  C         34.0430   26.6960   18.7360 C.2    44  GLN44       0.2434
     36  O         33.7820   27.0980   17.5880 O.2    44  GLN44      -0.2733
     37  CB        34.7680   24.3320   19.1870 C.3    44  GLN44       0.0380
     38  CG        35.4440   24.1390   17.8320 C.3    44  GLN44       0.0905
     39  CD        34.5800   23.3530   16.8360 C.2    44  GLN44       0.2608
     40  OE1       34.1170   22.2330   17.1730 O.2    44  GLN44      -0.2717
     41  NE2       34.3120   23.9300   15.6560 N.am   44  GLN44      -0.0878
     42  N         34.7190   27.4150   19.6390 N.am   45  PRO45      -0.2718
     43  CA        35.2310   28.7270   19.2460 C.3    45  PRO45       0.1535
     44  C         36.0830   28.6930   17.9890 C.2    45  PRO45       0.2598
     45  O         36.8000   27.7080   17.7440 O.2    45  PRO45      -0.2715
     46  CB        36.0610   29.1220   20.4680 C.3    45  PRO45       0.0310
     47  CG        35.3900   28.4340   21.6310 C.3    45  PRO45       0.0237
     48  CD        34.9110   27.1180   21.0740 C.3    45  PRO45       0.0939
     49  N         36.0190   29.7190   17.1650 N.am   46  VAL46      -0.1978
     50  CA        36.8900   29.8240   16.0070 C.3    46  VAL46       0.1596
     51  C         38.3430   29.8370   16.4860 C.2    46  VAL46       0.2287
     52  O         38.7450   30.7070   17.2890 O.2    46  VAL46      -0.2864
     53  CB        36.5610   31.1120   15.2430 C.3    46  VAL46       0.0276
     54  CG1       37.5940   31.4760   14.1970 C.3    46  VAL46       0.0022
     55  CG2       35.1450   31.0580   14.6330 C.3    46  VAL46       0.0022
     56  N         43.1880   27.9880   11.9390 N.3    51  LEU51      -0.1245
     57  CA        42.5540   28.3820   10.6710 C.3    51  LEU51       0.1561
     58  C         43.3250   29.4480    9.8770 C.2    51  LEU51       0.2260
     59  O         42.9070   29.7950    8.8030 O.2    51  LEU51      -0.2867
     60  CB        41.1030   28.8390   10.8980 C.3    51  LEU51       0.0270
     61  CG        40.1370   27.7380   11.3610 C.3    51  LEU51       0.0019
     62  CD1       38.8140   28.3280   11.8750 C.3    51  LEU51       0.0001
     63  CD2       39.8150   26.7820   10.2190 C.3    51  LEU51       0.0001
     64  N         43.7110   32.8580   10.3270 N.3    53  LEU53      -0.1245
     65  CA        42.8200   33.9840   10.1650 C.3    53  LEU53       0.1561
     66  C         43.3300   35.0370   11.1310 C.2    53  LEU53       0.2260
     67  O         42.6970   35.3350   12.1360 O.2    53  LEU53      -0.2867
     68  CB        41.3620   33.6070   10.5050 C.3    53  LEU53       0.0270
     69  CG        40.8110   32.4960    9.6190 C.3    53  LEU53       0.0019
     70  CD1       39.4320   32.0910   10.1230 C.3    53  LEU53       0.0001
     71  CD2       40.8070   32.9230    8.1570 C.3    53  LEU53       0.0001
     72  N         40.8830   37.6450   12.4540 N.3    56  TYR56      -0.1241
     73  CA        39.5500   37.2700   12.9810 C.3    56  TYR56       0.1605
     74  C         39.1710   38.0080   14.2390 C.2    56  TYR56       0.2264
     75  O         38.0790   38.6430   14.3070 O.2    56  TYR56      -0.2867
     76  CB        39.3890   35.7550   13.1910 C.3    56  TYR56       0.0534
     77  CG        37.9850   35.4310   13.5670 C.ar   56  TYR56      -0.0201
     78  CD1       37.0030   35.2640   12.5680 C.ar   56  TYR56      -0.0009
     79  CD2       37.6150   35.2530   14.8940 C.ar   56  TYR56      -0.0009
     80  CE1       35.6950   34.9830   12.8640 C.ar   56  TYR56       0.0417
     81  CE2       36.3050   35.0140   15.2090 C.ar   56  TYR56       0.0417
     82  CZ        35.3270   34.8570   14.2290 C.ar   56  TYR56       0.1957
     83  OH        34.0250   34.5990   14.5760 O.3    56  TYR56      -0.2866
     84  N         29.5290   35.5390   11.9300 N.3    95  CYS95      -0.1235
     85  CA        29.8250   34.7740   10.6930 C.3    95  CYS95       0.1677
     86  C         29.5070   35.6600    9.4540 C.2    95  CYS95       0.2270
     87  O         30.3210   35.7310    8.5540 O.2    95  CYS95      -0.2867
     88  CB        29.0100   33.5050   10.6810 C.3    95  CYS95       0.0956
     89  SG        29.3770   32.4110    9.3120 S.3    95  CYS95      -0.0801
     90  N         32.1950   38.6490    9.2520 N.3    98  TYR98      -0.1227
     91  CA        33.5470   38.3000    8.9300 C.3    98  TYR98       0.1736
     92  C         33.7170   37.7700    7.5050 C.2    98  TYR98       0.2595
     93  O         34.7580   38.0500    6.8730 O.2    98  TYR98      -0.2718
     94  CB        34.1300   37.3040    9.9460 C.3    98  TYR98       0.0548
     95  CG        35.5390   36.9580    9.6530 C.ar   98  TYR98      -0.0200
     96  CD1       36.5430   37.8600    9.9610 C.ar   98  TYR98      -0.0009
     97  CD2       35.8990   35.8090    8.9520 C.ar   98  TYR98      -0.0009
     98  CE1       37.8580   37.6140    9.6300 C.ar   98  TYR98       0.0417
     99  CE2       37.2150   35.5400    8.6470 C.ar   98  TYR98       0.0417
    100  CZ        38.1990   36.4590    8.9570 C.ar   98  TYR98       0.1957
    101  OH        39.5200   36.1880    8.6070 O.3    98  TYR98      -0.2866
    102  N         32.7380   36.9950    7.0440 N.am   99  ASN99      -0.1974
    103  CA        32.8300   36.2470    5.7720 C.3    99  ASN99       0.1688
    104  C         32.0980   37.0100    4.6630 C.2    99  ASN99       0.2292
    105  O         31.4220   37.9710    4.9260 O.2    99  ASN99      -0.2864
    106  CB        32.3040   34.8300    5.9950 C.3    99  ASN99       0.1181
    107  CG        33.1160   34.0790    7.0290 C.2    99  ASN99       0.2629
    108  OD1       34.2560   33.6570    6.7960 O.2    99  ASN99      -0.2716
    109  ND2       32.5290   33.8930    8.2100 N.am   99  ASN99      -0.0877
    110  N         30.5890   29.3950    1.4770 N.3   104  ASP104     -0.1225
    111  CA        29.9750   28.2050    1.9980 C.3   104  ASP104      0.1805
    112  C         29.6790   28.3530    3.4980 C.2   104  ASP104      0.2597
    113  O         28.6220   27.9170    3.9420 O.2   104  ASP104     -0.2718
    114  CB        30.8350   26.9870    1.7300 C.3   104  ASP104      0.1424
    115  CG        30.7500   26.5070    0.2670 C.2   104  ASP104      0.3668
    116  OD1       29.7800   26.8610   -0.4340 O.co2 104  ASP104     -0.2456
    117  OD2       31.6370   25.7490   -0.1240 O.co2 104  ASP104     -0.2456
    118  N         30.6180   28.9060    4.2530 N.am  105  ILE105     -0.1980
    119  CA        30.3480   29.0610    5.7020 C.3   105  ILE105      0.1595
    120  C         29.1230   29.9200    5.9890 C.2   105  ILE105      0.2287
    121  O         28.3870   29.6490    6.9330 O.2   105  ILE105     -0.2864
    122  CB        31.6020   29.5830    6.4540 C.3   105  ILE105      0.0276
    123  CG1       31.4360   29.4440    7.9860 C.3   105  ILE105      0.0022
    124  CG2       31.9730   31.0190    6.1050 C.3   105  ILE105      0.0022
    125  CD1       31.4170   28.0160    8.4840 C.3   105  ILE105      0.0001
    126  N         26.0220   27.8550    5.2070 N.3   108  MET108     -0.1245
    127  CA        25.8550   26.9730    6.3370 C.3   108  MET108      0.1570
    128  C         25.2060   27.6840    7.5220 C.2   108  MET108      0.2261
    129  O         24.2490   27.1600    8.0760 O.2   108  MET108     -0.2867
    130  CB        27.2030   26.3820    6.7340 C.3   108  MET108      0.0387
    131  CG        27.7450   25.4520    5.6600 C.3   108  MET108      0.0595
    132  SD        29.4570   25.0030    5.9590 S.3   108  MET108     -0.1393
    133  CE        29.2340   23.7440    7.1820 C.3   108  MET108      0.0692
@<TRIPOS>BOND
     1   116   115   ar
     2   117   115   ar
     3   115   114    1
     4   110   111    1
     5   114   111    1
     6   111   112    1
     7   112   113    2
     8   112   118   am
     9   118   119    1
    10   104   105    2
    11   104   103    1
    12   126   127    1
    13   131   132    1
    14   131   130    1
    15   119   120    1
    16   119   122    1
    17   103   106    1
    18   103   102    1
    19   132   133    1
    20   120   121    2
    21   106   107    1
    22   124   122    1
    23   127   130    1
    24   127   128    1
    25   122   123    1
    26   108   107    2
    27    93    92    2
    28   107   109   am
    29   102    92   am
    30    92    91    1
    31   128   129    2
    32   123   125    1
    33    71    69    1
    34    12    14   ar
    35    12    10   ar
    36    87    86    2
    37   101   100    1
    38    99    97   ar
    39    99   100   ar
    40     9    10   ar
    41     9     7   ar
    42    14    13   ar
    43    59    58    2
    44    91    90    1
    45    91    94    1
    46    97    95   ar
    47   100    98   ar
    48    10     8   ar
    49    89    88    1
    50    86    85    1
    51    69    70    1
    52    69    68    1
    53    98    96   ar
    54    95    94    1
    55    95    96   ar
    56     7     6   ar
    57    58    57    1
    58    20    21    1
    59    20    19    1
    60    65    64    1
    61    65    68    1
    62    65    66    1
    63    13    11   ar
    64    63    61    1
    65     8     6   ar
    66     8    11   ar
    67    57    60    1
    68    57    56    1
    69    88    85    1
    70    85    84    1
    71    32    31   ar
    72    32    30   ar
    73    31    29   ar
    74    21    15    1
    75    60    61    1
    76     6     5    1
    77    19    16    1
    78    66    67    2
    79    61    62    1
    80    30    28   ar
    81    29    27   ar
    82    15    16    1
    83    15     3   am
    84    16    17    1
    85     5     2    1
    86    72    73    1
    87     1     2    1
    88    78    80   ar
    89    78    77   ar
    90    80    82   ar
    91    73    76    1
    92    73    74    1
    93     2     3    1
    94    28    27   ar
    95     3     4    2
    96    27    26    1
    97    76    77    1
    98    17    18    2
    99    17    22   am
   100    77    79   ar
   101    22    23    1
   102    54    53    1
   103    82    83    1
   104    82    81   ar
   105    74    75    2
   106    26    23    1
   107    55    53    1
   108    23    24    1
   109    79    81   ar
   110    53    50    1
   111    41    39   am
   112    50    51    1
   113    50    49    1
   114    24    25    2
   115    51    52    2
   116    39    40    2
   117    39    38    1
   118    49    44   am
   119    36    35    2
   120    45    44    2
   121    38    37    1
   122    44    43    1
   123    33    34    1
   124    35    34    1
   125    35    42   am
   126    34    37    1
   127    43    42    1
   128    43    46    1
   129    42    48    1
   130    46    47    1
   131    48    47    1
