@<TRIPOS>MOLECULE
tmp/6ft7A00.pdb
 142 133 0 0 0
SMALL
GASTEIGER

@<TRIPOS>ATOM
      1  N         68.6160   69.3550   55.6900 N.3    34  LEU34      -0.1231
      2  CA        68.3470   67.9160   55.7600 C.3    34  LEU34       0.1693
      3  C         68.1230   67.2450   54.4110 C.2    34  LEU34       0.2593
      4  O         67.9970   66.0390   54.3370 O.2    34  LEU34      -0.2718
      5  CB        67.1370   67.6500   56.6170 C.3    34  LEU34       0.0284
      6  CG        67.3190   67.9200   58.1020 C.3    34  LEU34       0.0019
      7  CD1       65.9150   67.9100   58.7090 C.3    34  LEU34       0.0001
      8  CD2       68.2720   66.8620   58.7180 C.3    34  LEU34       0.0001
      9  N         68.0710   68.0020   53.3330 N.am   35  GLY35      -0.1942
     10  CA        67.8740   67.3660   52.0320 C.3    35  GLY35       0.2014
     11  C         66.9990   68.1730   51.1110 C.2    35  GLY35       0.2639
     12  O         66.3780   69.1430   51.5350 O.2    35  GLY35      -0.2714
     13  N         66.9930   67.7560   49.8490 N.am   36  GLU36      -0.1963
     14  CA        66.3050   68.4410   48.7670 C.3    36  GLU36       0.1733
     15  C         65.6230   67.4400   47.9010 C.2    36  GLU36       0.2616
     16  O         66.0520   66.2930   47.8310 O.2    36  GLU36      -0.2715
     17  CB        67.2990   69.1500   47.8720 C.3    36  GLU36       0.0429
     18  CG        68.2140   70.1200   48.5910 C.3    36  GLU36       0.1163
     19  CD        68.6250   71.3100   47.7330 C.2    36  GLU36       0.3649
     20  OE1       68.0180   71.5430   46.6600 O.co2  36  GLU36      -0.2457
     21  OE2       69.5590   72.0220   48.1530 O.co2  36  GLU36      -0.2457
     22  N         64.5990   67.9010   47.1920 N.am   37  GLY37      -0.1955
     23  CA        63.8620   67.0700   46.2600 C.3    37  GLY37       0.1869
     24  C         63.2730   67.9110   45.1410 C.2    37  GLY37       0.2309
     25  O         63.5350   69.1180   45.0390 O.2    37  GLY37      -0.2863
     26  N         60.1450   68.6910   45.0230 N.3    39  PHE39      -0.1241
     27  CA        59.1340   69.5620   45.6830 C.3    39  PHE39       0.1605
     28  C         59.7080   70.8210   46.3010 C.2    39  PHE39       0.2264
     29  O         58.9780   71.7780   46.5330 O.2    39  PHE39      -0.2867
     30  CB        58.4200   68.8110   46.8340 C.3    39  PHE39       0.0534
     31  CG        59.3700   68.3400   47.9440 C.ar   39  PHE39      -0.0203
     32  CD1       59.7230   69.1760   49.0060 C.ar   39  PHE39      -0.0042
     33  CD2       59.9260   67.0740   47.9000 C.ar   39  PHE39      -0.0042
     34  CE1       60.5820   68.7580   50.0030 C.ar   39  PHE39      -0.0003
     35  CE2       60.8170   66.6520   48.8800 C.ar   39  PHE39      -0.0003
     36  CZ        61.1420   67.5000   49.9400 C.ar   39  PHE39      -0.0000
     37  N         64.0570   70.2360   52.7640 N.3    42  VAL42      -0.1245
     38  CA        63.7780   70.0830   54.1760 C.3    42  VAL42       0.1561
     39  C         64.9360   70.5750   55.0060 C.2    42  VAL42       0.2260
     40  O         66.0870   70.1660   54.7730 O.2    42  VAL42      -0.2867
     41  CB        63.4980   68.6110   54.5310 C.3    42  VAL42       0.0252
     42  CG1       63.0120   68.5270   55.9630 C.3    42  VAL42       0.0019
     43  CG2       62.4880   67.9890   53.5510 C.3    42  VAL42       0.0019
     44  N         61.9890   69.1370   61.8060 N.3    56  ALA56      -0.1245
     45  CA        62.2280   69.0930   60.3810 C.3    56  ALA56       0.1562
     46  C         61.1590   69.9530   59.7290 C.2    56  ALA56       0.2260
     47  O         59.9420   69.7410   59.9680 O.2    56  ALA56      -0.2867
     48  CB        62.1950   67.6540   59.8930 C.3    56  ALA56       0.0290
     49  N         59.6570   71.0980   56.1730 N.3    58  LYS58      -0.1245
     50  CA        59.5840   70.8660   54.7470 C.3    58  LYS58       0.1561
     51  C         59.0820   72.1480   54.0720 C.2    58  LYS58       0.2260
     52  O         58.0400   72.6480   54.4360 O.2    58  LYS58      -0.2867
     53  CB        58.6440   69.6960   54.4780 C.3    58  LYS58       0.0271
     54  CG        58.5620   69.2030   53.0400 C.3    58  LYS58       0.0035
     55  CD        57.6730   67.9730   53.0070 C.3    58  LYS58       0.0206
     56  CE        57.2850   67.5830   51.5980 C.3    58  LYS58       0.1093
     57  NZ        56.5740   66.2590   51.5930 N.3    58  LYS58      -0.1314
     58  N         54.1840   59.9320   60.1890 N.3    92  VAL92      -0.1245
     59  CA        54.7560   61.2030   60.6200 C.3    92  VAL92       0.1561
     60  C         53.6220   62.1240   61.0600 C.2    92  VAL92       0.2260
     61  O         52.5740   62.1980   60.4020 O.2    92  VAL92      -0.2867
     62  CB        55.5970   61.8990   59.5150 C.3    92  VAL92       0.0252
     63  CG1       56.9270   61.1770   59.3340 C.3    92  VAL92       0.0019
     64  CG2       54.8190   62.0320   58.2220 C.3    92  VAL92       0.0019
     65  N         57.4650   68.9860   61.2760 N.3   108  PHE108     -0.1227
     66  CA        57.3810   67.6230   61.8350 C.3   108  PHE108      0.1736
     67  C         58.4140   67.4320   62.9590 C.2   108  PHE108      0.2595
     68  O         59.4450   68.1320   62.9630 O.2   108  PHE108     -0.2718
     69  CB        57.7880   66.5880   60.7820 C.3   108  PHE108      0.0547
     70  CG        56.8920   66.5380   59.5890 C.ar  108  PHE108     -0.0202
     71  CD1       55.6850   65.8410   59.6550 C.ar  108  PHE108     -0.0042
     72  CD2       57.2060   67.2030   58.4270 C.ar  108  PHE108     -0.0042
     73  CE1       54.8510   65.7530   58.5440 C.ar  108  PHE108     -0.0003
     74  CE2       56.3670   67.1360   57.3170 C.ar  108  PHE108     -0.0003
     75  CZ        55.1980   66.4090   57.3690 C.ar  108  PHE108     -0.0000
     76  N         58.2090   66.4210   63.8070 N.am  109  GLU109     -0.1965
     77  CA        59.3180   65.8860   64.6140 C.3   109  GLU109      0.1733
     78  C         60.5690   65.5780   63.7620 C.2   109  GLU109      0.2616
     79  O         60.4640   65.0510   62.6450 O.2   109  GLU109     -0.2715
     80  CB        58.9250   64.6100   65.3800 C.3   109  GLU109      0.0429
     81  CG        58.4270   63.4760   64.6020 C.3   109  GLU109      0.1163
     82  CD        56.9860   63.4770   64.1690 C.2   109  GLU109      0.3649
     83  OE1       56.2890   64.4920   64.1520 O.co2 109  GLU109     -0.2457
     84  OE2       56.5320   62.3130   63.8500 O.co2 109  GLU109     -0.2457
     85  N         61.7490   65.9000   64.3080 N.am  110  LEU110     -0.1963
     86  CA        63.0230   65.6040   63.6520 C.3   110  LEU110      0.1728
     87  C         63.3160   64.1080   63.8010 C.2   110  LEU110      0.2616
     88  O         63.3660   63.6320   64.8880 O.2   110  LEU110     -0.2715
     89  CB        64.1900   66.4510   64.1790 C.3   110  LEU110      0.0311
     90  CG        65.5700   66.0600   63.6340 C.3   110  LEU110      0.0022
     91  CD1       65.6650   66.3820   62.1480 C.3   110  LEU110      0.0001
     92  CD2       66.7580   66.6760   64.3830 C.3   110  LEU110      0.0001
     93  N         63.5050   63.3880   62.7070 N.am  111  LEU111     -0.1963
     94  CA        63.8190   61.9430   62.7660 C.3   111  LEU111      0.1728
     95  C         65.2640   61.6840   62.2790 C.2   111  LEU111      0.2616
     96  O         66.0340   62.6160   62.0920 O.2   111  LEU111     -0.2715
     97  CB        62.7700   61.1280   61.9430 C.3   111  LEU111      0.0311
     98  CG        61.3030   61.4150   62.3270 C.3   111  LEU111      0.0022
     99  CD1       60.2070   61.0090   61.3280 C.3   111  LEU111      0.0001
    100  CD2       61.0400   60.8280   63.6980 C.3   111  LEU111      0.0001
    101  N         65.6290   60.4100   62.1130 N.am  112  GLY112     -0.1955
    102  CA        66.9410   60.0040   61.6210 C.3   112  GLY112      0.1869
    103  C         66.9590   59.7340   60.1300 C.2   112  GLY112      0.2309
    104  O         66.1320   60.2010   59.4220 O.2   112  GLY112     -0.2863
    105  N         66.5940   57.7880   56.5280 N.3   114  ASN114     -0.1240
    106  CA        65.6770   56.8530   55.9530 C.3   114  ASN114      0.1653
    107  C         66.2870   55.4790   55.7740 C.2   114  ASN114      0.2266
    108  O         67.5130   55.3010   55.8700 O.2   114  ASN114     -0.2867
    109  CB        65.0110   57.3850   54.6960 C.3   114  ASN114      0.1155
    110  CG        65.9340   57.4690   53.4990 C.2   114  ASN114      0.2627
    111  OD1       66.3700   56.4620   52.9390 O.2   114  ASN114     -0.2716
    112  ND2       66.1140   58.6750   53.0190 N.am  114  ASN114     -0.0877
    113  N         63.1160   54.7020   50.9420 N.3   159  GLU159     -0.1245
    114  CA        63.4880   56.0820   51.1990 C.3   159  GLU159      0.1567
    115  C         62.3870   56.9180   51.9110 C.2   159  GLU159      0.2260
    116  O         62.6900   57.9510   52.5380 O.2   159  GLU159     -0.2867
    117  CB        63.9330   56.7780   49.8990 C.3   159  GLU159      0.0388
    118  CG        63.0750   56.4430   48.7090 C.3   159  GLU159      0.1160
    119  CD        63.6650   55.3230   47.7990 C.2   159  GLU159      0.3649
    120  OE1       64.2640   55.7350   46.7500 O.co2 159  GLU159     -0.2457
    121  OE2       63.5140   54.0860   48.0820 O.co2 159  GLU159     -0.2457
    122  N         61.4430   56.2020   57.5990 N.3   162  LEU162     -0.1245
    123  CA        62.4720   56.9050   58.3620 C.3   162  LEU162      0.1561
    124  C         62.6970   56.2370   59.7350 C.2   162  LEU162      0.2260
    125  O         61.7470   55.9520   60.4060 O.2   162  LEU162     -0.2867
    126  CB        62.0500   58.3760   58.5730 C.3   162  LEU162      0.0270
    127  CG        62.5030   59.4340   57.5930 C.3   162  LEU162      0.0019
    128  CD1       62.1980   59.0810   56.1470 C.3   162  LEU162      0.0001
    129  CD2       61.7670   60.7000   57.9160 C.3   162  LEU162      0.0001
    130  N         56.6390   58.0920   56.0610 N.3   191  ALA191     -0.1231
    131  CA        56.6880   59.4950   55.5840 C.3   191  ALA191      0.1694
    132  C         56.2020   59.6680   54.1830 C.2   191  ALA191      0.2592
    133  O         55.8500   58.6950   53.4680 O.2   191  ALA191     -0.2718
    134  CB        58.1090   60.0650   55.7050 C.3   191  ALA191      0.0304
    135  N         56.1530   60.9390   53.7870 N.am  192  ASP192     -0.1974
    136  CA        55.8380   61.3280   52.4320 C.3   192  ASP192      0.1709
    137  C         54.4200   60.9640   51.9950 C.2   192  ASP192      0.2293
    138  O         54.1780   60.0840   51.1670 O.2   192  ASP192     -0.2864
    139  CB        56.8420   60.8450   51.3970 C.3   192  ASP192      0.1436
    140  CG        56.5780   61.5180   49.9810 C.2   192  ASP192      0.3671
    141  OD1       55.6580   62.4180   49.8980 O.co2 192  ASP192     -0.2456
    142  OD2       57.2540   61.1390   48.9920 O.co2 192  ASP192     -0.2456
@<TRIPOS>BOND
     1    26    27    1
     2    25    24    2
     3    24    23    1
     4    27    28    1
     5    27    30    1
     6    23    22    1
     7    28    29    2
     8    20    19   ar
     9   120   119   ar
    10    30    31    1
    11    22    15   am
    12    19    21   ar
    13    19    18    1
    14   119   121   ar
    15   119   118    1
    16    16    15    2
    17    17    18    1
    18    17    14    1
    19    33    31   ar
    20    33    35   ar
    21    15    14    1
    22    31    32   ar
    23   118   117    1
    24    14    13    1
    25    35    36   ar
    26   142   140   ar
    27    32    34   ar
    28    13    11   am
    29   141   140   ar
    30   117   114    1
    31    36    34   ar
    32   140   139    1
    33   113   114    1
    34    11    12    2
    35    11    10    1
    36   138   137    2
    37   114   115    1
    38   139   136    1
    39    57    56    1
    40    56    55    1
    41   115   116    2
    42   137   136    1
    43    10     9    1
    44   136   135    1
    45    37    38    1
    46   111   110    2
    47    55    54    1
    48   112   110   am
    49    54    53    1
    50     9     3   am
    51   133   132    2
    52   110   109    1
    53    43    41    1
    54   135   132   am
    55    51    52    2
    56    51    50    1
    57    38    41    1
    58    38    39    1
    59   132   131    1
    60     4     3    2
    61     3     2    1
    62    53    50    1
    63    41    42    1
    64   109   106    1
    65    50    49    1
    66    40    39    2
    67   131   134    1
    68   131   130    1
    69     1     2    1
    70     2     5    1
    71   107   108    2
    72   107   106    1
    73   106   105    1
    74   128   127    1
    75     5     6    1
    76    74    75   ar
    77    74    72   ar
    78    75    73   ar
    79   127   129    1
    80   127   126    1
    81   122   123    1
    82     6     7    1
    83     6     8    1
    84    64    62    1
    85   123   126    1
    86   123   124    1
    87    72    70   ar
    88    73    71   ar
    89    63    62    1
    90   104   103    2
    91    62    59    1
    92    70    71   ar
    93    70    69    1
    94    46    47    2
    95    46    45    1
    96   124   125    2
    97    48    45    1
    98   103   102    1
    99    58    59    1
   100    45    44    1
   101    61    60    2
   102    59    60    1
   103    69    66    1
   104    65    66    1
   105    99    98    1
   106   102   101    1
   107    66    67    1
   108    97    98    1
   109    97    94    1
   110    96    95    2
   111   101    95   am
   112    91    90    1
   113    95    94    1
   114    98   100    1
   115    79    78    2
   116    93    94    1
   117    93    87   am
   118    67    68    2
   119    67    76   am
   120    90    89    1
   121    90    92    1
   122    86    87    1
   123    86    89    1
   124    86    85    1
   125    78    85   am
   126    78    77    1
   127    87    88    2
   128    76    77    1
   129    84    82   ar
   130    83    82   ar
   131    82    81    1
   132    81    80    1
   133    77    80    1
