@<TRIPOS>MOLECULE
tmp/6ft9A00.pdb
 159 149 0 0 0
SMALL
GASTEIGER

@<TRIPOS>ATOM
      1  N         30.6140   35.1550   78.9100 N.3    21  LEU21      -0.1231
      2  CA        32.0520   35.3500   78.9660 C.3    21  LEU21       0.1693
      3  C         32.6500   35.1580   77.5910 C.2    21  LEU21       0.2593
      4  O         33.5560   35.8860   77.2080 O.2    21  LEU21      -0.2718
      5  CB        32.7060   34.3840   79.9270 C.3    21  LEU21       0.0284
      6  CG        32.2880   34.5770   81.4140 C.3    21  LEU21       0.0019
      7  CD1       32.7150   33.4310   82.2990 C.3    21  LEU21       0.0001
      8  CD2       32.8600   35.8740   81.9610 C.3    21  LEU21       0.0001
      9  N         32.1250   34.2340   76.8470 N.am   22  GLY22      -0.1942
     10  CA        32.6260   34.0350   75.4870 C.3    22  GLY22       0.2014
     11  C         31.7890   33.0290   74.7750 C.2    22  GLY22       0.2639
     12  O         31.0580   32.2590   75.4250 O.2    22  GLY22      -0.2714
     13  N         31.8910   33.0250   73.4370 N.am   23  GLU23      -0.1963
     14  CA        31.1530   32.1210   72.5950 C.3    23  GLU23       0.1733
     15  C         32.1330   31.3990   71.7020 C.2    23  GLU23       0.2616
     16  O         33.2030   31.9250   71.3480 O.2    23  GLU23      -0.2715
     17  CB        30.1690   32.8630   71.7470 C.3    23  GLU23       0.0429
     18  CG        29.2590   33.7130   72.5740 C.3    23  GLU23       0.1163
     19  CD        28.1340   34.3400   71.7660 C.2    23  GLU23       0.3649
     20  OE1       27.7370   33.7670   70.7150 O.co2  23  GLU23      -0.2457
     21  OE2       27.6460   35.4070   72.1990 O.co2  23  GLU23      -0.2457
     22  N         31.7720   30.1860   71.3530 N.am   24  GLY24      -0.1955
     23  CA        32.5970   29.3750   70.4900 C.3    24  GLY24       0.1869
     24  C         31.6930   28.5940   69.5730 C.2    24  GLY24       0.2309
     25  O         30.4680   28.7560   69.5760 O.2    24  GLY24      -0.2863
     26  N         31.1120   25.5600   69.9510 N.3    26  PHE26      -0.1241
     27  CA        30.4750   24.6010   70.8370 C.3    26  PHE26       0.1605
     28  C         29.2250   25.1270   71.5330 C.2    26  PHE26       0.2264
     29  O         28.4750   24.3360   72.0740 O.2    26  PHE26      -0.2867
     30  CB        31.4420   24.1840   71.9250 C.3    26  PHE26       0.0534
     31  CG        31.9090   25.3220   72.7740 C.ar   26  PHE26      -0.0203
     32  CD1       31.1400   25.7820   73.8360 C.ar   26  PHE26      -0.0042
     33  CD2       33.1340   25.9520   72.5150 C.ar   26  PHE26      -0.0042
     34  CE1       31.5480   26.8680   74.5700 C.ar   26  PHE26      -0.0003
     35  CE2       33.5790   26.9840   73.3000 C.ar   26  PHE26      -0.0003
     36  CZ        32.7760   27.4540   74.3220 C.ar   26  PHE26      -0.0000
     37  N         30.0570   30.2430   77.0980 N.3    29  VAL29      -0.1245
     38  CA        30.3750   30.1500   78.5140 C.3    29  VAL29       0.1561
     39  C         29.8240   31.4070   79.1750 C.2    29  VAL29       0.2260
     40  O         30.0680   32.5570   78.6950 O.2    29  VAL29      -0.2867
     41  CB        31.9260   30.0390   78.7350 C.3    29  VAL29       0.0252
     42  CG1       32.2110   29.8090   80.1960 C.3    29  VAL29       0.0019
     43  CG2       32.4670   28.8990   77.9070 C.3    29  VAL29       0.0019
     44  N         31.7300   29.7420   86.3180 N.3    43  ALA43      -0.1245
     45  CA        31.5690   29.7420   84.8280 C.3    43  ALA43       0.1562
     46  C         30.8350   28.4840   84.4430 C.2    43  ALA43       0.2260
     47  O         31.1510   27.3800   84.9370 O.2    43  ALA43      -0.2867
     48  CB        32.9130   29.7960   84.1360 C.3    43  ALA43       0.0290
     49  N         29.7120   26.3760   81.0930 N.3    45  LYS45      -0.1245
     50  CA        29.7410   26.1160   79.6580 C.3    45  LYS45       0.1561
     51  C         28.4250   25.4630   79.2170 C.2    45  LYS45       0.2260
     52  O         28.1380   24.3340   79.6370 O.2    45  LYS45      -0.2867
     53  CB        30.9220   25.2300   79.3380 C.3    45  LYS45       0.0271
     54  CG        31.1330   24.9330   77.8500 C.3    45  LYS45       0.0035
     55  CD        32.4950   24.2450   77.8060 C.3    45  LYS45       0.0206
     56  CE        32.8360   23.5940   76.5050 C.3    45  LYS45       0.1093
     57  NZ        34.2800   23.2040   76.5960 N.3    45  LYS45      -0.1314
     58  N         42.0770   23.6790   84.3620 N.3    79  VAL79      -0.1245
     59  CA        40.8550   24.1940   84.9950 C.3    79  VAL79       0.1561
     60  C         40.1570   23.1430   85.8600 C.2    79  VAL79       0.2260
     61  O         40.1730   21.9580   85.5390 O.2    79  VAL79      -0.2867
     62  CB        39.9240   24.8120   83.9180 C.3    79  VAL79       0.0252
     63  CG1       39.4230   23.7580   82.9340 C.3    79  VAL79       0.0019
     64  CG2       38.7830   25.5970   84.5520 C.3    79  VAL79       0.0019
     65  N         32.4620   25.2030   85.9570 N.3    95  PHE95      -0.1227
     66  CA        33.8730   25.3320   86.2740 C.3    95  PHE95       0.1736
     67  C         34.1270   26.4620   87.2660 C.2    95  PHE95       0.2595
     68  O         33.3110   27.3730   87.4390 O.2    95  PHE95      -0.2718
     69  CB        34.6390   25.7190   85.0460 C.3    95  PHE95       0.0547
     70  CG        34.5390   24.7570   83.9170 C.ar   95  PHE95      -0.0202
     71  CD1       35.4390   23.6890   83.8250 C.ar   95  PHE95      -0.0042
     72  CD2       33.6670   24.9950   82.8570 C.ar   95  PHE95      -0.0042
     73  CE1       35.4520   22.8660   82.7020 C.ar   95  PHE95      -0.0003
     74  CE2       33.6570   24.1720   81.7540 C.ar   95  PHE95      -0.0003
     75  CZ        34.5330   23.0940   81.6720 C.ar   95  PHE95      -0.0000
     76  N         35.3030   26.4460   87.8980 N.am   96  GLU96      -0.1965
     77  CA        35.8060   27.6660   88.5890 C.3    96  GLU96       0.1733
     78  C         35.8350   28.8400   87.6200 C.2    96  GLU96       0.2616
     79  O         36.0890   28.6720   86.4070 O.2    96  GLU96      -0.2715
     80  CB        37.2010   27.4470   89.1840 C.3    96  GLU96       0.0429
     81  CG        38.2150   27.1020   88.1040 C.3    96  GLU96       0.1163
     82  CD        39.6440   26.9910   88.5990 C.2    96  GLU96       0.3649
     83  OE1       39.9710   27.6330   89.5770 O.co2  96  GLU96      -0.2457
     84  OE2       40.4100   26.1970   88.0350 O.co2  96  GLU96      -0.2457
     85  N         35.5250   30.0140   88.1180 N.am   97  LEU97      -0.1963
     86  CA        35.4990   31.1990   87.2790 C.3    97  LEU97       0.1728
     87  C         36.9070   31.7650   87.1020 C.2    97  LEU97       0.2616
     88  O         37.6040   31.9620   88.0730 O.2    97  LEU97      -0.2715
     89  CB        34.6850   32.3090   87.9000 C.3    97  LEU97       0.0311
     90  CG        34.6260   33.6200   87.0880 C.3    97  LEU97       0.0022
     91  CD1       33.9560   33.4400   85.7330 C.3    97  LEU97       0.0001
     92  CD2       33.9170   34.6890   87.8760 C.3    97  LEU97       0.0001
     93  N         37.3060   32.0260   85.8760 N.am   98  LEU98      -0.1963
     94  CA        38.6550   32.5690   85.5970 C.3    98  LEU98       0.1728
     95  C         38.4610   33.9620   84.9910 C.2    98  LEU98       0.2616
     96  O         37.3340   34.4120   84.8140 O.2    98  LEU98      -0.2715
     97  CB        39.3980   31.6490   84.6250 C.3    98  LEU98       0.0311
     98  CG        39.6640   30.2240   85.1630 C.3    98  LEU98       0.0022
     99  CD1       40.1230   29.2750   84.0370 C.3    98  LEU98       0.0001
    100  CD2       40.6460   30.2140   86.2920 C.3    98  LEU98       0.0001
    101  N         39.5340   34.6610   84.6710 N.am   99  GLY99      -0.1955
    102  CA        39.4290   35.9620   83.9950 C.3    99  GLY99       0.1869
    103  C         39.4710   35.7990   82.4820 C.2    99  GLY99       0.2309
    104  O         39.1710   34.7140   81.9390 O.2    99  GLY99      -0.2863
    105  N         40.5250   35.4450   78.5650 N.3   101  SER101     -0.1217
    106  CA        41.5110   34.6420   77.8540 C.3   101  SER101      0.1889
    107  C         42.6750   35.5400   77.4440 C.2   101  SER101      0.2288
    108  O         42.5520   36.7640   77.3610 O.2   101  SER101     -0.2866
    109  CB        40.9000   33.9760   76.6260 C.3   101  SER101      0.2089
    110  OG        40.6620   34.9050   75.5990 O.3   101  SER101     -0.2183
    111  N         45.4940   27.2250   71.9630 N.3   144  LYS144     -0.1245
    112  CA        45.3830   28.5110   71.2750 C.3   144  LYS144      0.1561
    113  C         45.1780   29.5590   72.3460 C.2   144  LYS144      0.2260
    114  O         44.8480   29.2350   73.4960 O.2   144  LYS144     -0.2867
    115  CB        44.2730   28.5450   70.2410 C.3   144  LYS144      0.0271
    116  CG        42.9070   28.1390   70.7560 C.3   144  LYS144      0.0035
    117  CD        41.8720   28.1200   69.6120 C.3   144  LYS144      0.0206
    118  CE        40.5310   27.6420   70.1410 C.3   144  LYS144      0.1093
    119  NZ        39.5420   27.6780   69.0510 N.3   144  LYS144     -0.1314
    120  N         42.9310   31.6090   72.9830 N.3   146  GLU146     -0.1231
    121  CA        41.5550   31.5920   73.5400 C.3   146  GLU146      0.1699
    122  C         41.3410   30.5570   74.6180 C.2   146  GLU146      0.2592
    123  O         40.3860   30.6880   75.3980 O.2   146  GLU146     -0.2718
    124  CB        40.5010   31.3470   72.4360 C.3   146  GLU146      0.0402
    125  CG        40.4460   32.3940   71.3900 C.3   146  GLU146      0.1161
    126  CD        41.3020   32.0760   70.1190 C.2   146  GLU146      0.3649
    127  OE1       42.5530   31.6810   70.1630 O.co2 146  GLU146     -0.2457
    128  OE2       40.6850   32.2710   69.0640 O.co2 146  GLU146     -0.2457
    129  N         42.1560   29.4960   74.6200 N.am  147  ASN147     -0.1974
    130  CA        42.0790   28.4000   75.5660 C.3   147  ASN147      0.1688
    131  C         43.0880   28.5040   76.7120 C.2   147  ASN147      0.2292
    132  O         43.2240   27.5890   77.4950 O.2   147  ASN147     -0.2864
    133  CB        42.1430   27.0290   74.8480 C.3   147  ASN147      0.1181
    134  CG        40.8800   26.6890   74.1130 C.2   147  ASN147      0.2629
    135  OD1       39.8210   27.2830   74.3490 O.2   147  ASN147     -0.2716
    136  ND2       40.9650   25.7410   73.2050 N.am  147  ASN147     -0.0877
    137  N         43.6900   30.9930   79.8430 N.3   149  LEU149     -0.1245
    138  CA        42.9430   32.0480   80.5600 C.3   149  LEU149      0.1561
    139  C         43.7250   32.5460   81.7340 C.2   149  LEU149      0.2260
    140  O         44.3300   31.7890   82.4190 O.2   149  LEU149     -0.2867
    141  CB        41.5300   31.5310   81.0700 C.3   149  LEU149      0.0270
    142  CG        40.4260   31.6560   80.0400 C.3   149  LEU149      0.0019
    143  CD1       40.7010   30.9790   78.7490 C.3   149  LEU149      0.0001
    144  CD2       39.1070   31.1330   80.6610 C.3   149  LEU149      0.0001
    145  N         42.2290   25.5920   79.4540 N.3   178  VAL178     -0.1231
    146  CA        40.8640   25.1420   79.3720 C.3   178  VAL178      0.1692
    147  C         40.6190   24.3610   78.0850 C.2   178  VAL178      0.2592
    148  O         41.5090   24.2620   77.2050 O.2   178  VAL178     -0.2718
    149  CB        39.8540   26.3280   79.5350 C.3   178  VAL178      0.0266
    150  CG1       40.1650   27.1440   80.7840 C.3   178  VAL178      0.0020
    151  CG2       39.8350   27.2340   78.3010 C.3   178  VAL178      0.0020
    152  N         39.3990   23.8360   77.9970 N.am  179  ASP179     -0.1974
    153  CA        38.8280   23.1570   76.8410 C.3   179  ASP179      0.1709
    154  C         39.4820   21.8280   76.5170 C.2   179  ASP179      0.2293
    155  O         40.3820   21.7490   75.6390 O.2   179  ASP179     -0.2864
    156  CB        38.7890   24.0020   75.5830 C.3   179  ASP179      0.1436
    157  CG        37.8820   23.3680   74.5040 C.2   179  ASP179      0.3671
    158  OD1       37.4860   22.1920   74.6120 O.co2 179  ASP179     -0.2456
    159  OD2       37.5820   24.0410   73.5370 O.co2 179  ASP179     -0.2456
@<TRIPOS>BOND
     1   119   118    1
     2   128   126   ar
     3    24    25    2
     4    24    23    1
     5   117   118    1
     6   117   116    1
     7    26    27    1
     8   126   127   ar
     9   126   125    1
    10   115   116    1
    11   115   112    1
    12    23    22    1
    13    20    19   ar
    14    27    28    1
    15    27    30    1
    16   112   111    1
    17   112   113    1
    18    16    15    2
    19    22    15   am
    20   125   124    1
    21    28    29    2
    22    15    14    1
    23    17    18    1
    24    17    14    1
    25    19    21   ar
    26    19    18    1
    27    30    31    1
    28   113   114    2
    29   124   121    1
    30    33    31   ar
    31    33    35   ar
    32    14    13    1
    33    31    32   ar
    34   120   121    1
    35   136   134   am
    36    35    36   ar
    37    13    11   am
    38   159   157   ar
    39   121   122    1
    40    32    34   ar
    41   134   135    2
    42   134   133    1
    43    36    34   ar
    44   157   158   ar
    45   157   156    1
    46   122   129   am
    47   122   123    2
    48   129   130    1
    49    11    12    2
    50    11    10    1
    51   133   130    1
    52    10     9    1
    53   130   131    1
    54   156   153    1
    55   110   109    1
    56   155   154    2
    57    56    57    1
    58    56    55    1
    59   154   153    1
    60   109   106    1
    61   131   132    2
    62   153   152    1
    63     9     3   am
    64    37    38    1
    65   148   147    2
    66     4     3    2
    67   108   107    2
    68   107   106    1
    69     3     2    1
    70    55    54    1
    71    54    53    1
    72   106   105    1
    73    43    41    1
    74   152   147   am
    75   147   146    1
    76   151   149    1
    77    38    41    1
    78    38    39    1
    79    40    39    2
    80    41    42    1
    81   143   142    1
    82     1     2    1
    83     2     5    1
    84    51    52    2
    85    51    50    1
    86    53    50    1
    87   146   145    1
    88   146   149    1
    89   149   150    1
    90    50    49    1
    91   137   138    1
    92     5     6    1
    93   142   144    1
    94   142   141    1
    95   138   141    1
    96   138   139    1
    97     6     8    1
    98     6     7    1
    99    75    74   ar
   100    75    73   ar
   101   139   140    2
   102    74    72   ar
   103   104   103    2
   104   103   102    1
   105    73    71   ar
   106    72    70   ar
   107    63    62    1
   108    71    70   ar
   109    70    69    1
   110    62    64    1
   111    62    59    1
   112   102   101    1
   113    99    98    1
   114    48    45    1
   115    58    59    1
   116    46    45    1
   117    46    47    2
   118    97    98    1
   119    97    94    1
   120   101    95   am
   121    96    95    2
   122    45    44    1
   123    95    94    1
   124    59    60    1
   125    69    66    1
   126    98   100    1
   127    61    60    2
   128    94    93    1
   129    91    90    1
   130    93    87   am
   131    65    66    1
   132    66    67    1
   133    79    78    2
   134    90    92    1
   135    90    89    1
   136    87    86    1
   137    87    88    2
   138    67    68    2
   139    67    76   am
   140    86    89    1
   141    86    85    1
   142    78    85   am
   143    78    77    1
   144    76    77    1
   145    84    82   ar
   146    81    82    1
   147    81    80    1
   148    77    80    1
   149    82    83   ar
