@<TRIPOS>MOLECULE
tmp/6ftbA01.pdb
 90 85 0 0 0
SMALL
GASTEIGER

@<TRIPOS>ATOM
      1  N        -40.3290  -29.3220   75.3110 N.3    52  PHE52      -0.1227
      2  CA       -41.7560  -29.1060   75.5310 C.3    52  PHE52       0.1736
      3  C        -42.1590  -27.6420   75.5660 C.2    52  PHE52       0.2595
      4  O        -43.2980  -27.3380   75.2370 O.2    52  PHE52      -0.2718
      5  CB       -42.2300  -29.8600   76.7970 C.3    52  PHE52       0.0547
      6  CG       -41.8200  -31.3160   76.7290 C.ar   52  PHE52      -0.0202
      7  CD1      -42.5540  -32.2250   75.9700 C.ar   52  PHE52      -0.0042
      8  CD2      -40.5990  -31.7370   77.2590 C.ar   52  PHE52      -0.0042
      9  CE1      -42.1020  -33.5350   75.7820 C.ar   52  PHE52      -0.0003
     10  CE2      -40.1500  -33.0480   77.0760 C.ar   52  PHE52      -0.0003
     11  CZ       -40.9270  -33.9490   76.3740 C.ar   52  PHE52      -0.0000
     12  N        -41.2620  -26.7230   75.9580 N.am   53  ASP53      -0.1960
     13  CA       -41.5660  -25.2810   75.9600 C.3    53  ASP53       0.1840
     14  C        -42.8440  -24.9030   76.7570 C.2    53  ASP53       0.2621
     15  O        -43.5690  -23.9870   76.3620 O.2    53  ASP53      -0.2715
     16  CB       -41.6700  -24.7670   74.5110 C.3    53  ASP53       0.1450
     17  CG       -41.5670  -23.2630   74.3710 C.2    53  ASP53       0.3671
     18  OD1      -40.8970  -22.6320   75.2190 O.co2  53  ASP53      -0.2456
     19  OD2      -42.1380  -22.7210   73.4020 O.co2  53  ASP53      -0.2456
     20  N        -43.1060  -25.6060   77.8600 N.am   54  LEU54      -0.1977
     21  CA       -44.2780  -25.3980   78.7170 C.3    54  LEU54       0.1596
     22  C        -44.4270  -23.9710   79.2140 C.2    54  LEU54       0.2287
     23  O        -45.5300  -23.4380   79.1260 O.2    54  LEU54      -0.2864
     24  CB       -44.2990  -26.3660   79.9030 C.3    54  LEU54       0.0297
     25  CG       -44.4290  -27.8340   79.6130 C.3    54  LEU54       0.0022
     26  CD1      -43.9210  -28.6470   80.7890 C.3    54  LEU54       0.0001
     27  CD2      -45.8590  -28.1950   79.3460 C.3    54  LEU54       0.0001
     28  N        -44.9920  -21.3200   76.1910 N.3    57  THR57      -0.1218
     29  CA       -46.3050  -21.6190   75.6240 C.3    57  THR57       0.1862
     30  C        -47.3720  -21.0240   76.5500 C.2    57  THR57       0.2287
     31  O        -48.3070  -20.3890   76.0750 O.2    57  THR57      -0.2866
     32  CB       -46.4210  -23.1380   75.3990 C.3    57  THR57       0.1770
     33  OG1      -45.5240  -23.4930   74.3450 O.3    57  THR57      -0.2211
     34  CG2      -47.8050  -23.5810   75.0300 C.3    57  THR57       0.0375
     35  N        -47.1890  -20.1120   69.0050 N.3    71  GLN71      -0.1231
     36  CA       -46.4990  -20.9040   67.9930 C.3    71  GLN71       0.1698
     37  C        -47.2820  -22.1390   67.6130 C.2    71  GLN71       0.2593
     38  O        -48.3700  -22.3600   68.1240 O.2    71  GLN71      -0.2718
     39  CB       -45.1020  -21.2920   68.4850 C.3    71  GLN71       0.0381
     40  CG       -44.2010  -20.1030   68.6940 C.3    71  GLN71       0.0905
     41  CD       -42.8350  -20.5930   69.0290 C.2    71  GLN71       0.2608
     42  OE1      -42.5230  -20.9330   70.1710 O.2    71  GLN71      -0.2717
     43  NE2      -42.0220  -20.6880   68.0200 N.am   71  GLN71      -0.0878
     44  N        -46.7050  -22.9470   66.7280 N.am   72  GLY72      -0.1942
     45  CA       -47.3210  -24.1790   66.2730 C.3    72  GLY72       0.2014
     46  C        -47.3570  -25.2590   67.3280 C.2    72  GLY72       0.2639
     47  O        -46.7210  -25.1430   68.3830 O.2    72  GLY72      -0.2714
     48  N        -48.0260  -26.3410   66.9850 N.am   73  GLY73      -0.1939
     49  CA       -48.2280  -27.4850   67.8530 C.3    73  GLY73       0.2014
     50  C        -47.0590  -28.3530   68.2880 C.2    73  GLY73       0.2640
     51  O        -47.2610  -29.2400   69.1200 O.2    73  GLY73      -0.2714
     52  N        -45.8600  -28.1850   67.6870 N.am   74  SER74      -0.1935
     53  CA       -44.7660  -29.0940   68.0120 C.3    74  SER74       0.2055
     54  C        -43.4040  -28.4940   67.9720 C.2    74  SER74       0.2643
     55  O        -43.0080  -27.8810   66.9850 O.2    74  SER74      -0.2714
     56  CB       -44.7960  -30.3350   67.1210 C.3    74  SER74       0.2130
     57  OG       -45.6580  -30.2140   66.0020 O.3    74  SER74      -0.2179
     58  N        -42.6310  -28.7720   69.0100 N.am   75  THR75      -0.1950
     59  CA       -41.2420  -28.3320   69.0870 C.3    75  THR75       0.1897
     60  C        -40.4590  -29.1210   68.0320 C.2    75  THR75       0.2313
     61  O        -40.9150  -30.1680   67.5510 O.2    75  THR75      -0.2863
     62  CB       -40.6670  -28.6100   70.4800 C.3    75  THR75       0.1794
     63  OG1      -40.6780  -30.0140   70.6810 O.3    75  THR75      -0.2208
     64  CG2      -41.4340  -27.8920   71.5960 C.3    75  THR75       0.0378
     65  N        -40.0390  -32.7910   69.0110 N.3    78  GLN78      -0.1245
     66  CA       -41.2370  -33.5830   68.7630 C.3    78  GLN78       0.1566
     67  C        -41.3680  -33.8880   67.2950 C.2    78  GLN78       0.2260
     68  O        -41.7950  -34.9710   66.9570 O.2    78  GLN78      -0.2867
     69  CB       -42.4820  -32.8580   69.2890 C.3    78  GLN78       0.0367
     70  CG       -42.5470  -32.8730   70.8310 C.3    78  GLN78       0.0905
     71  CD       -43.4250  -31.7900   71.4020 C.2    78  GLN78       0.2608
     72  OE1      -44.3550  -31.3210   70.7850 O.2    78  GLN78      -0.2717
     73  NE2      -43.1300  -31.3490   72.5960 N.am   78  GLN78      -0.0878
     74  N        -49.1720  -38.8530   69.1830 N.3    95  LYS95      -0.1245
     75  CA       -48.6250  -37.5710   69.6530 C.3    95  LYS95       0.1561
     76  C        -48.0460  -37.6940   71.0770 C.2    95  LYS95       0.2260
     77  O        -46.9460  -37.2200   71.3260 O.2    95  LYS95      -0.2867
     78  CB       -49.7020  -36.4670   69.5760 C.3    95  LYS95       0.0271
     79  CG       -49.2120  -35.0810   69.9880 C.3    95  LYS95       0.0035
     80  CD       -48.0520  -34.5580   69.1030 C.3    95  LYS95       0.0206
     81  CE       -47.6880  -33.1300   69.4330 C.3    95  LYS95       0.1093
     82  NZ       -46.3240  -32.7760   68.9690 N.3    95  LYS95      -0.1314
     83  N        -44.1520  -37.2600   72.4510 N.3    99  LEU99      -0.1245
     84  CA       -43.7890  -36.3590   73.5730 C.3    99  LEU99       0.1561
     85  C        -42.8730  -37.0880   74.5450 C.2    99  LEU99       0.2260
     86  O        -41.8590  -36.5510   74.9550 O.2    99  LEU99      -0.2867
     87  CB       -45.0820  -35.9110   74.3160 C.3    99  LEU99       0.0270
     88  CG       -45.7260  -34.5500   73.9670 C.3    99  LEU99       0.0019
     89  CD1      -45.7650  -34.2810   72.4800 C.3    99  LEU99       0.0001
     90  CD2      -47.1530  -34.4690   74.5200 C.3    99  LEU99       0.0001
@<TRIPOS>BOND
     1    57    56    1
     2    45    44    1
     3    45    46    1
     4    44    37   am
     5    68    67    2
     6    55    54    2
     7    48    46   am
     8    48    49    1
     9    56    53    1
    10    67    66    1
    11    46    47    2
    12    61    60    2
    13    37    36    1
    14    37    38    2
    15    52    53    1
    16    52    50   am
    17    49    50    1
    18    54    53    1
    19    54    58   am
    20    36    39    1
    21    36    35    1
    22    43    41   am
    23    60    59    1
    24    50    51    2
    25    39    40    1
    26    40    41    1
    27    66    65    1
    28    66    69    1
    29    82    81    1
    30    58    59    1
    31    41    42    2
    32    59    62    1
    33    80    81    1
    34    80    79    1
    35    74    75    1
    36    69    70    1
    37    78    75    1
    38    78    79    1
    39    75    76    1
    40    62    63    1
    41    62    64    1
    42    72    71    2
    43    70    71    1
    44    76    77    2
    45    71    73   am
    46    83    84    1
    47    89    88    1
    48    19    17   ar
    49    84    87    1
    50    84    85    1
    51    88    87    1
    52    88    90    1
    53    33    32    1
    54    17    16    1
    55    17    18   ar
    56    16    13    1
    57    85    86    2
    58    34    32    1
    59     4     3    2
    60     1     2    1
    61    32    29    1
    62     2     3    1
    63     2     5    1
    64     3    12   am
    65    29    28    1
    66    29    30    1
    67     9     7   ar
    68     9    11   ar
    69    12    13    1
    70    13    14    1
    71     7     6   ar
    72    31    30    2
    73    15    14    2
    74    11    10   ar
    75     6     5    1
    76     6     8   ar
    77    14    20   am
    78    10     8   ar
    79    20    21    1
    80    21    22    1
    81    21    24    1
    82    23    22    2
    83    27    25    1
    84    25    24    1
    85    25    26    1
