@<TRIPOS>MOLECULE
tmp/6ftbA02.pdb
 89 88 0 0 0
SMALL
GASTEIGER

@<TRIPOS>ATOM
      1  N        -40.3980  -32.0270   49.9560 N.3   125  GLY125     -0.1210
      2  CA       -41.0880  -32.1440   48.6720 C.3   125  GLY125      0.1956
      3  C        -40.1660  -32.7640   47.6380 C.2   125  GLY125      0.2611
      4  O        -38.9480  -32.8270   47.8600 O.2   125  GLY125     -0.2717
      5  N        -40.7260  -33.2430   46.5060 N.am  126  ASP126     -0.1973
      6  CA       -39.9590  -33.8330   45.4010 C.3   126  ASP126      0.1709
      7  C        -38.8820  -34.8360   45.8440 C.2   126  ASP126      0.2293
      8  O        -37.7260  -34.7640   45.3870 O.2   126  ASP126     -0.2864
      9  CB       -39.3180  -32.7330   44.4990 C.3   126  ASP126      0.1436
     10  CG       -40.2840  -31.7740   43.8250 C.2   126  ASP126      0.3671
     11  OD1      -41.4470  -32.1230   43.6730 O.co2 126  ASP126     -0.2456
     12  OD2      -39.8470  -30.6980   43.4050 O.co2 126  ASP126     -0.2456
     13  N        -34.1090  -27.4110   44.5180 N.3   138  TYR138     -0.1241
     14  CA       -34.9620  -26.2630   44.2560 C.3   138  TYR138      0.1605
     15  C        -34.2600  -25.0190   43.7430 C.2   138  TYR138      0.2264
     16  O        -34.8500  -24.2920   42.9350 O.2   138  TYR138     -0.2867
     17  CB       -35.7960  -25.8980   45.5080 C.3   138  TYR138      0.0534
     18  CG       -36.8830  -26.9100   45.7970 C.ar  138  TYR138     -0.0201
     19  CD1      -37.8720  -27.1880   44.8540 C.ar  138  TYR138     -0.0009
     20  CD2      -36.9010  -27.6240   46.9980 C.ar  138  TYR138     -0.0009
     21  CE1      -38.8420  -28.1590   45.0900 C.ar  138  TYR138      0.0417
     22  CE2      -37.8770  -28.5920   47.2490 C.ar  138  TYR138      0.0417
     23  CZ       -38.8610  -28.8310   46.3030 C.ar  138  TYR138      0.1957
     24  OH       -39.8400  -29.7580   46.5250 O.3   138  TYR138     -0.2866
     25  N        -42.0590  -24.4250   53.9140 N.3   164  LYS164     -0.1245
     26  CA       -42.4670  -25.5390   53.0650 C.3   164  LYS164      0.1561
     27  C        -42.7320  -26.8580   53.8020 C.2   164  LYS164      0.2260
     28  O        -43.5860  -27.6200   53.3750 O.2   164  LYS164     -0.2867
     29  CB       -41.4210  -25.7730   51.9820 C.3   164  LYS164      0.0271
     30  CG       -41.8230  -26.7690   50.9280 C.3   164  LYS164      0.0035
     31  CD       -41.5950  -26.2000   49.5710 C.3   164  LYS164      0.0206
     32  CE       -41.3920  -27.2800   48.5650 C.3   164  LYS164      0.1093
     33  NZ       -42.4960  -28.2710   48.5290 N.3   164  LYS164     -0.1314
     34  N        -45.3230  -29.9740   52.5780 N.3   168  PRO168     -0.2102
     35  CA       -44.3480  -30.0640   51.4760 C.3   168  PRO168      0.1504
     36  C        -44.8940  -30.5590   50.1430 C.2   168  PRO168      0.2576
     37  O        -44.2900  -30.3020   49.0930 O.2   168  PRO168     -0.2718
     38  CB       -43.2670  -30.9960   52.0410 C.3   168  PRO168      0.0282
     39  CG       -44.0070  -31.8540   53.0380 C.3   168  PRO168      0.0208
     40  CD       -44.9420  -30.8730   53.6950 C.3   168  PRO168      0.0893
     41  N        -46.0100  -31.2710   50.1680 N.am  169  SER169     -0.1938
     42  CA       -46.6090  -31.7680   48.9360 C.3   169  SER169      0.2055
     43  C        -47.5490  -30.7250   48.3470 C.2   169  SER169      0.2643
     44  O        -47.9750  -30.8690   47.1950 O.2   169  SER169     -0.2714
     45  CB       -47.3710  -33.0640   49.1980 C.3   169  SER169      0.2130
     46  OG       -46.4580  -34.1090   49.4790 O.3   169  SER169     -0.2179
     47  N        -47.9180  -29.7050   49.1390 N.am  170  VAL170     -0.1963
     48  CA       -48.8910  -28.7120   48.6840 C.3   170  VAL170      0.1727
     49  C        -48.2020  -27.3870   48.3240 C.2   170  VAL170      0.2616
     50  O        -48.3820  -26.8850   47.2090 O.2   170  VAL170     -0.2715
     51  CB       -50.0560  -28.5730   49.7060 C.3   170  VAL170      0.0290
     52  CG1      -50.9770  -27.3910   49.3780 C.3   170  VAL170      0.0023
     53  CG2      -50.8570  -29.8720   49.7820 C.3   170  VAL170      0.0023
     54  N        -47.3790  -26.8590   49.2410 N.am  171  TYR171     -0.1960
     55  CA       -46.6550  -25.6230   49.0320 C.3   171  TYR171      0.1771
     56  C        -45.6730  -25.8080   47.8620 C.2   171  TYR171      0.2620
     57  O        -44.7650  -26.6440   47.9150 O.2   171  TYR171     -0.2715
     58  CB       -45.9120  -25.2210   50.3070 C.3   171  TYR171      0.0574
     59  CG       -46.7660  -24.7530   51.4720 C.ar  171  TYR171     -0.0198
     60  CD1      -48.0220  -24.1880   51.2630 C.ar  171  TYR171     -0.0009
     61  CD2      -46.2860  -24.8110   52.7770 C.ar  171  TYR171     -0.0009
     62  CE1      -48.8010  -23.7400   52.3350 C.ar  171  TYR171      0.0417
     63  CE2      -47.0540  -24.3740   53.8520 C.ar  171  TYR171      0.0417
     64  CZ       -48.3060  -23.8310   53.6280 C.ar  171  TYR171      0.1957
     65  OH       -49.0220  -23.3610   54.6950 O.3   171  TYR171     -0.2866
     66  N        -45.9020  -25.0560   46.7940 N.am  172  ASN172     -0.1958
     67  CA       -45.1330  -25.1300   45.5590 C.3   172  ASN172      0.1819
     68  C        -44.2720  -23.8890   45.3690 C.2   172  ASN172      0.2621
     69  O        -44.7950  -22.7790   45.2900 O.2   172  ASN172     -0.2715
     70  CB       -46.0900  -25.3270   44.3810 C.3   172  ASN172      0.1195
     71  CG       -45.3790  -25.6680   43.1000 C.2   172  ASN172      0.2630
     72  OD1      -45.0780  -26.8210   42.8040 O.2   172  ASN172     -0.2716
     73  ND2      -45.0440  -24.6620   42.3460 N.am  172  ASN172     -0.0877
     74  N        -42.9520  -24.0920   45.2990 N.am  173  ILE173     -0.1963
     75  CA       -41.9440  -23.0370   45.1470 C.3   173  ILE173      0.1727
     76  C        -42.0800  -22.2440   43.8370 C.2   173  ILE173      0.2616
     77  O        -41.9270  -21.0180   43.8580 O.2   173  ILE173     -0.2715
     78  CB       -40.5060  -23.6060   45.3380 C.3   173  ILE173      0.0290
     79  CG1      -40.3430  -24.0750   46.8180 C.3   173  ILE173      0.0022
     80  CG2      -39.4490  -22.5450   44.9750 C.3   173  ILE173      0.0023
     81  CD1      -39.0340  -24.6390   47.2130 C.3   173  ILE173      0.0001
     82  N        -42.3590  -22.9420   42.7220 N.am  174  ASN174     -0.1972
     83  CA       -42.5010  -22.3520   41.3900 C.3   174  ASN174      0.1688
     84  C        -43.7670  -21.5050   41.2390 C.2   174  ASN174      0.2292
     85  O        -43.7040  -20.3900   40.7130 O.2   174  ASN174     -0.2864
     86  CB       -42.4340  -23.4460   40.3210 C.3   174  ASN174      0.1181
     87  CG       -41.0240  -23.8360   39.9550 C.2   174  ASN174      0.2629
     88  OD1      -40.1820  -24.1350   40.8110 O.2   174  ASN174     -0.2716
     89  ND2      -40.7370  -23.8410   38.6610 N.am  174  ASN174     -0.0877
@<TRIPOS>BOND
     1    89    87   am
     2    87    86    1
     3    87    88    2
     4    86    83    1
     5    85    84    2
     6    84    83    1
     7    83    82    1
     8    73    71   am
     9    82    76   am
    10    72    71    2
    11    16    15    2
    12    71    70    1
    13    12    10   ar
    14    11    10   ar
    15    15    14    1
    16    10     9    1
    17    76    77    2
    18    76    75    1
    19    14    13    1
    20    14    17    1
    21    70    67    1
    22     9     6    1
    23    19    21   ar
    24    19    18   ar
    25    80    78    1
    26    21    23   ar
    27    75    74    1
    28    75    78    1
    29    69    68    2
    30    74    68   am
    31    78    79    1
    32    68    67    1
    33     8     7    2
    34     6     7    1
    35     6     5    1
    36    17    18    1
    37    67    66    1
    38    18    20   ar
    39    23    24    1
    40    23    22   ar
    41     5     3   am
    42    66    56   am
    43    79    81    1
    44    20    22   ar
    45    44    43    2
    46    50    49    2
    47     3     4    2
    48     3     2    1
    49    56    57    2
    50    56    55    1
    51    49    48    1
    52    49    54   am
    53    43    42    1
    54    43    47   am
    55    33    32    1
    56    32    31    1
    57     2     1    1
    58    48    47    1
    59    48    51    1
    60    42    45    1
    61    42    41    1
    62    55    54    1
    63    55    58    1
    64    37    36    2
    65    45    46    1
    66    52    51    1
    67    31    30    1
    68    51    53    1
    69    36    41   am
    70    36    35    1
    71    58    59    1
    72    30    29    1
    73    60    59   ar
    74    60    62   ar
    75    59    61   ar
    76    35    38    1
    77    35    34    1
    78    29    26    1
    79    38    39    1
    80    62    64   ar
    81    34    40    1
    82    61    63   ar
    83    39    40    1
    84    26    27    1
    85    26    25    1
    86    28    27    2
    87    64    63   ar
    88    64    65    1
