@<TRIPOS>MOLECULE
tmp/6ftcA01.pdb
 114 107 0 0 0
SMALL
GASTEIGER

@<TRIPOS>ATOM
      1  N          5.7680    2.0490   20.5930 N.3   291  TYR291     -0.1241
      2  CA         5.5620    1.5160   19.2520 C.3   291  TYR291      0.1605
      3  C          6.4520    0.3070   19.0040 C.2   291  TYR291      0.2264
      4  O          6.0410   -0.6240   18.3050 O.2   291  TYR291     -0.2867
      5  CB         5.7820    2.5970   18.1780 C.3   291  TYR291      0.0534
      6  CG         7.2090    3.0430   17.9070 C.ar  291  TYR291     -0.0201
      7  CD1        7.9910    2.3920   16.9620 C.ar  291  TYR291     -0.0009
      8  CD2        7.7510    4.1540   18.5460 C.ar  291  TYR291     -0.0009
      9  CE1        9.2810    2.8050   16.6870 C.ar  291  TYR291      0.0417
     10  CE2        9.0480    4.5740   18.2770 C.ar  291  TYR291      0.0417
     11  CZ         9.8020    3.8940   17.3450 C.ar  291  TYR291      0.1957
     12  OH        11.0850    4.3010   17.0620 O.3   291  TYR291     -0.2866
     13  N          2.0350    6.1190   24.6730 N.3   317  ARG317     -0.1231
     14  CA         2.0520    7.4120   25.3410 C.3   317  ARG317      0.1694
     15  C          2.7170    8.4430   24.4430 C.2   317  ARG317      0.2593
     16  O          3.7630    8.1810   23.8410 O.2   317  ARG317     -0.2718
     17  CB         2.7970    7.3240   26.6770 C.3   317  ARG317      0.0321
     18  CG         2.7910    8.6270   27.4630 C.3   317  ARG317      0.0489
     19  CD         3.4140    8.4540   28.8500 C.3   317  ARG317      0.2205
     20  NE         2.5790    7.6370   29.7300 N.pl3 317  ARG317     -0.0865
     21  CZ         1.5550    8.1000   30.4400 C.cat 317  ARG317      0.5346
     22  NH1        1.2200    9.3850   30.3820 N.pl3 317  ARG317      0.1354
     23  NH2        0.8560    7.2750   31.2060 N.pl3 317  ARG317      0.1354
     24  N          2.0950    9.6190   24.3430 N.am  318  GLY318     -0.1942
     25  CA         2.5500   10.6480   23.4390 C.3   318  GLY318      0.2014
     26  C          1.8570   10.6690   22.0870 C.2   318  GLY318      0.2639
     27  O          1.8720   11.7110   21.4240 O.2   318  GLY318     -0.2714
     28  N          1.2760    9.5500   21.6520 N.am  319  PHE319     -0.1959
     29  CA         0.4270    9.4910   20.4640 C.3   319  PHE319      0.1771
     30  C         -1.0380    9.7420   20.8240 C.2   319  PHE319      0.2619
     31  O         -1.4670    9.5410   21.9630 O.2   319  PHE319     -0.2715
     32  CB         0.5210    8.1220   19.7830 C.3   319  PHE319      0.0574
     33  CG         1.8820    7.7850   19.2280 C.ar  319  PHE319     -0.0200
     34  CD1        2.8960    7.3220   20.0550 C.ar  319  PHE319     -0.0042
     35  CD2        2.1270    7.8790   17.8710 C.ar  319  PHE319     -0.0042
     36  CE1        4.1390    6.9890   19.5350 C.ar  319  PHE319     -0.0003
     37  CE2        3.3670    7.5450   17.3470 C.ar  319  PHE319     -0.0003
     38  CZ         4.3720    7.1010   18.1840 C.ar  319  PHE319     -0.0000
     39  N         -1.8160   10.1470   19.8170 N.am  320  ASP320     -0.1971
     40  CA        -3.2660   10.2880   19.9420 C.3   320  ASP320      0.1709
     41  C         -3.8820    9.0520   20.5860 C.2   320  ASP320      0.2293
     42  O         -3.7730    7.9390   20.0590 O.2   320  ASP320     -0.2864
     43  CB        -3.8740   10.5320   18.5520 C.3   320  ASP320      0.1436
     44  CG        -5.3720   10.7950   18.5950 C.2   320  ASP320      0.3671
     45  OD1       -6.1430    9.8680   18.9200 O.co2 320  ASP320     -0.2456
     46  OD2       -5.7810   11.9370   18.3000 O.co2 320  ASP320     -0.2456
     47  N         12.5210   11.4070   17.2250 N.3   435  GLN435     -0.1245
     48  CA        13.5820   10.4030   17.1660 C.3   435  GLN435      0.1566
     49  C         13.2700    9.4100   16.0490 C.2   435  GLN435      0.2260
     50  O         12.8100    8.2850   16.2750 O.2   435  GLN435     -0.2867
     51  CB        13.7260    9.7180   18.5170 C.3   435  GLN435      0.0367
     52  CG        14.1650   10.6690   19.6230 C.3   435  GLN435      0.0905
     53  CD        14.4440    9.9640   20.9370 C.2   435  GLN435      0.2608
     54  OE1       13.6380    9.1670   21.4140 O.2   435  GLN435     -0.2717
     55  NE2       15.5950   10.2580   21.5300 N.am  435  GLN435     -0.0878
     56  N          6.2970   16.5350   11.7480 N.3   464  VAL464     -0.1245
     57  CA         6.9970   15.3870   11.1750 C.3   464  VAL464      0.1561
     58  C          6.0890   14.1650   11.2610 C.2   464  VAL464      0.2260
     59  O          5.6870   13.7530   12.3550 O.2   464  VAL464     -0.2867
     60  CB         8.3310   15.1360   11.8950 C.3   464  VAL464      0.0252
     61  CG1        8.9760   13.8510   11.4060 C.3   464  VAL464      0.0019
     62  CG2        9.2650   16.3160   11.6750 C.3   464  VAL464      0.0019
     63  N          4.7100   10.2480   11.0150 N.3   466  THR466     -0.1218
     64  CA         5.1700    8.9910   11.5890 C.3   466  THR466      0.1862
     65  C          4.2240    7.8760   11.1620 C.2   466  THR466      0.2287
     66  O          3.0930    8.1260   10.7420 O.2   466  THR466     -0.2866
     67  CB         5.2300    9.0560   13.1280 C.3   466  THR466      0.1770
     68  OG1        3.9110    9.2510   13.6640 O.3   466  THR466     -0.2211
     69  CG2        6.1090   10.2030   13.5830 C.3   466  THR466      0.0375
     70  N         -0.7690    2.4850   11.7500 N.3   474  TYR474     -0.1241
     71  CA        -1.2760    3.7840   12.1890 C.3   474  TYR474      0.1605
     72  C         -0.3150    4.8690   11.7180 C.2   474  TYR474      0.2264
     73  O          0.8340    4.9290   12.1770 O.2   474  TYR474     -0.2867
     74  CB        -1.4420    3.8240   13.7150 C.3   474  TYR474      0.0534
     75  CG        -1.6530    5.2100   14.2840 C.ar  474  TYR474     -0.0201
     76  CD1       -2.4510    6.1440   13.6290 C.ar  474  TYR474     -0.0009
     77  CD2       -1.0670    5.5780   15.4960 C.ar  474  TYR474     -0.0009
     78  CE1       -2.6350    7.4180   14.1440 C.ar  474  TYR474      0.0417
     79  CE2       -1.2490    6.8400   16.0230 C.ar  474  TYR474      0.0417
     80  CZ        -2.0380    7.7580   15.3460 C.ar  474  TYR474      0.1957
     81  OH        -2.2230    9.0150   15.8750 O.3   474  TYR474     -0.2866
     82  N          0.2910    9.1500   11.1070 N.3   476  ALA476     -0.1245
     83  CA        -0.1310   10.4130   11.6980 C.3   476  ALA476      0.1562
     84  C          0.7990   11.5300   11.2540 C.2   476  ALA476      0.2260
     85  O          1.9890   11.3160   11.0100 O.2   476  ALA476     -0.2867
     86  CB        -0.1560   10.3470   13.2300 C.3   476  ALA476      0.0290
     87  N          1.1160   15.6920   12.5450 N.3   478  GLY478     -0.1225
     88  CA         0.6260   16.8380   13.2800 C.3   478  GLY478      0.1811
     89  C          0.1150   16.4930   14.6600 C.2   478  GLY478      0.2280
     90  O          0.5290   15.4980   15.2620 O.2   478  GLY478     -0.2866
     91  N         -2.0770   15.4010   17.9000 N.3   480  SER480     -0.1217
     92  CA        -3.1640   14.5830   18.4100 C.3   480  SER480      0.1889
     93  C         -4.3780   15.4600   18.6870 C.2   480  SER480      0.2288
     94  O         -4.2670   16.6730   18.8780 O.2   480  SER480     -0.2866
     95  CB        -2.7410   13.8820   19.6970 C.3   480  SER480      0.2089
     96  OG        -2.4470   14.8410   20.6930 O.3   480  SER480     -0.2183
     97  N         -4.0170   17.1000   22.1150 N.3   483  ASP483     -0.1239
     98  CA        -3.0580   18.2020   22.1230 C.3   483  ASP483      0.1674
     99  C         -3.6460   19.4550   21.4820 C.2   483  ASP483      0.2266
    100  O         -3.4150   20.5720   21.9600 O.2   483  ASP483     -0.2867
    101  CB        -1.7750   17.7750   21.4090 C.3   483  ASP483      0.1410
    102  CG        -0.8760   16.9180   22.2850 C.2   483  ASP483      0.3668
    103  OD1       -1.2550   16.6530   23.4450 O.co2 483  ASP483     -0.2456
    104  OD2        0.2240   16.5390   21.8280 O.co2 483  ASP483     -0.2456
    105  N         -4.7620   11.6200   10.9170 N.3   533  HIS533     -0.1241
    106  CA        -4.6260   10.3240   11.5680 C.3   533  HIS533      0.1621
    107  C         -5.3440    9.2660   10.7510 C.2   533  HIS533      0.2264
    108  O         -6.4980    9.4670   10.3720 O.2   533  HIS533     -0.2867
    109  CB        -5.2080   10.3760   12.9880 C.3   533  HIS533      0.0745
    110  CG        -4.5610   11.4140   13.8480 C.ar  533  HIS533      0.0817
    111  ND1       -3.4640   11.1470   14.6410 N.ar  533  HIS533     -0.2268
    112  CD2       -4.8330   12.7300   14.0040 C.ar  533  HIS533      0.1154
    113  CE1       -3.0890   12.2600   15.2470 C.ar  533  HIS533      0.1986
    114  NE2       -3.9080   13.2330   14.8820 N.ar  533  HIS533     -0.2212
@<TRIPOS>BOND
     1   108   107    2
     2    66    65    2
     3   107   106    1
     4   105   106    1
     5    85    84    2
     6    63    64    1
     7    82    83    1
     8    65    64    1
     9    57    58    1
    10    57    56    1
    11    57    60    1
    12    84    83    1
    13    58    59    2
    14    61    60    1
    15   106   109    1
    16    64    67    1
    17    62    60    1
    18    83    86    1
    19    72    73    2
    20    72    71    1
    21    70    71    1
    22    71    74    1
    23    87    88    1
    24   109   110    1
    25    67    69    1
    26    67    68    1
    27    88    89    1
    28    76    78   ar
    29    76    75   ar
    30    74    75    1
    31   110   112   ar
    32   110   111   ar
    33   112   114   ar
    34    78    80   ar
    35    75    77   ar
    36   111   113   ar
    37    89    90    2
    38   114   113   ar
    39    80    81    1
    40    80    79   ar
    41    77    79   ar
    42    49    50    2
    43    49    48    1
    44     9     7   ar
    45     9    11   ar
    46     7     6   ar
    47    12    11    1
    48    48    47    1
    49    48    51    1
    50    11    10   ar
    51    37    35   ar
    52    37    38   ar
    53    35    33   ar
    54    91    92    1
    55     6     5    1
    56     6     8   ar
    57     5     2    1
    58    38    36   ar
    59    10     8   ar
    60    46    44   ar
    61     4     3    2
    62    92    93    1
    63    92    95    1
    64    51    52    1
    65    43    44    1
    66    43    40    1
    67    44    45   ar
    68    93    94    2
    69     3     2    1
    70    33    32    1
    71    33    34   ar
    72     2     1    1
    73    36    34   ar
    74    52    53    1
    75    95    96    1
    76    32    29    1
    77    39    40    1
    78    39    30   am
    79    40    41    1
    80    42    41    2
    81    29    30    1
    82    29    28    1
    83    30    31    2
    84    53    54    2
    85    53    55   am
    86   101    98    1
    87   101   102    1
    88    27    26    2
    89    99   100    2
    90    99    98    1
    91    28    26   am
    92   104   102   ar
    93    26    25    1
    94    97    98    1
    95   102   103   ar
    96    25    24    1
    97    16    15    2
    98    24    15   am
    99    15    14    1
   100    13    14    1
   101    14    17    1
   102    17    18    1
   103    18    19    1
   104    19    20    1
   105    20    21    2
   106    22    21    1
   107    21    23    1
