@<TRIPOS>MOLECULE
tmp/6ftcA03.pdb
 108 102 0 0 0
SMALL
GASTEIGER

@<TRIPOS>ATOM
      1  N         27.0550   36.4350    6.5930 N.3     5  TRP5       -0.1241
      2  CA        26.9490   35.1530    5.9020 C.3     5  TRP5        0.1605
      3  C         28.2610   34.7980    5.2120 C.2     5  TRP5        0.2264
      4  O         28.7250   33.6530    5.2770 O.2     5  TRP5       -0.2867
      5  CB        25.8120   35.1840    4.8780 C.3     5  TRP5        0.0550
      6  CG        25.8540   33.9880    3.9690 C.ar    5  TRP5        0.0003
      7  CD1       25.2860   32.7660    4.1950 C.ar    5  TRP5        0.0946
      8  CD2       26.5280   33.8910    2.7080 C.ar    5  TRP5        0.0152
      9  NE1       25.5620   31.9160    3.1510 N.ar    5  TRP5       -0.2442
     10  CE2       26.3180   32.5830    2.2230 C.ar    5  TRP5        0.0810
     11  CE3       27.2810   34.7830    1.9390 C.ar    5  TRP5        0.0012
     12  CZ2       26.8340   32.1470    1.0070 C.ar    5  TRP5        0.0191
     13  CZ3       27.7920   34.3500    0.7320 C.ar    5  TRP5        0.0001
     14  CH2       27.5690   33.0440    0.2770 C.ar    5  TRP5        0.0015
     15  N         30.9360   33.7690    7.7790 N.3     8  LYS8       -0.1231
     16  CA        30.7170   32.4110    8.2690 C.3     8  LYS8        0.1693
     17  C         31.0620   31.3760    7.2070 C.2     8  LYS8        0.2592
     18  O         31.6650   30.3410    7.5130 O.2     8  LYS8       -0.2718
     19  CB        29.2690   32.2520    8.7310 C.3     8  LYS8        0.0285
     20  CG        28.9850   32.9230   10.0670 C.3     8  LYS8        0.0035
     21  CD        27.6410   32.4990   10.6480 C.3     8  LYS8        0.0206
     22  CE        26.4810   33.2420   10.0160 C.3     8  LYS8        0.1093
     23  NZ        25.1770   32.7850   10.5790 N.3     8  LYS8       -0.1314
     24  N         30.6930   31.6390    5.9510 N.am    9  THR9       -0.1953
     25  CA        30.9620   30.6830    4.8800 C.3     9  THR9        0.1897
     26  C         32.4610   30.5400    4.6330 C.2     9  THR9        0.2313
     27  O         32.9750   29.4210    4.5000 O.2     9  THR9       -0.2863
     28  CB        30.2380   31.1190    3.6030 C.3     9  THR9        0.1794
     29  OG1       28.8230   31.1150    3.8320 O.3     9  THR9       -0.2208
     30  CG2       30.5530   30.1870    2.4380 C.3     9  THR9        0.0378
     31  N         34.2160   28.6150    7.5770 N.3    12  SER12      -0.1217
     32  CA        33.8270   27.2330    7.8360 C.3    12  SER12       0.1889
     33  C         34.0970   26.2880    6.6700 C.2    12  SER12       0.2288
     34  O         34.4370   25.1220    6.9010 O.2    12  SER12      -0.2866
     35  CB        32.3390   27.1700    8.1990 C.3    12  SER12       0.2089
     36  OG        32.0020   25.9010    8.7260 O.3    12  SER12      -0.2183
     37  N         35.5810   20.6730   13.0630 N.3   247  LYS247     -0.1245
     38  CA        34.2050   20.5030   13.5140 C.3   247  LYS247      0.1561
     39  C         33.9760   19.0720   13.9880 C.2   247  LYS247      0.2260
     40  O         34.5420   18.1220   13.4350 O.2   247  LYS247     -0.2867
     41  CB        33.2100   20.8340   12.3970 C.3   247  LYS247      0.0271
     42  CG        33.4270   22.2000   11.7340 C.3   247  LYS247      0.0035
     43  CD        33.2580   23.3650   12.7100 C.3   247  LYS247      0.0206
     44  CE        33.4950   24.7110   12.0160 C.3   247  LYS247      0.1093
     45  NZ        33.4460   25.8630   12.9460 N.3   247  LYS247     -0.1314
     46  N         20.3780   25.3000   14.8770 N.3   415  ASP415     -0.1239
     47  CA        21.2760   24.8140   13.8320 C.3   415  ASP415      0.1674
     48  C         22.1880   23.7080   14.3620 C.2   415  ASP415      0.2266
     49  O         23.2700   23.4720   13.8230 O.2   415  ASP415     -0.2867
     50  CB        22.0830   25.9600   13.2100 C.3   415  ASP415      0.1410
     51  CG        23.1820   26.4760   14.1110 C.2   415  ASP415      0.3668
     52  OD1       23.0290   26.4100   15.3430 O.co2 415  ASP415     -0.2456
     53  OD2       24.2010   26.9660   13.5760 O.co2 415  ASP415     -0.2456
     54  N         28.6020   19.9010   17.3000 N.3   424  TYR424     -0.1241
     55  CA        27.1960   19.8060   16.9440 C.3   424  TYR424      0.1605
     56  C         26.6830   18.4270   17.3350 C.2   424  TYR424      0.2264
     57  O         27.4670   17.5040   17.5640 O.2   424  TYR424     -0.2867
     58  CB        27.0100   20.0490   15.4400 C.3   424  TYR424      0.0534
     59  CG        27.4380   21.4370   15.0480 C.ar  424  TYR424     -0.0201
     60  CD1       28.7890   21.7730   14.9320 C.ar  424  TYR424     -0.0009
     61  CD2       26.4980   22.4310   14.8450 C.ar  424  TYR424     -0.0009
     62  CE1       29.1750   23.0660   14.6060 C.ar  424  TYR424      0.0417
     63  CE2       26.8760   23.7260   14.5210 C.ar  424  TYR424      0.0417
     64  CZ        28.2120   24.0350   14.4010 C.ar  424  TYR424      0.1957
     65  OH        28.5820   25.3250   14.0820 O.3   424  TYR424     -0.2866
     66  N         23.0410   20.0980    7.9870 N.3   447  LEU447     -0.1245
     67  CA        24.1460   20.6520    8.7650 C.3   447  LEU447      0.1561
     68  C         25.4350   20.6570    7.9480 C.2   447  LEU447      0.2260
     69  O         26.1530   21.6650    7.9010 O.2   447  LEU447     -0.2867
     70  CB        24.3160   19.8540   10.0580 C.3   447  LEU447      0.0270
     71  CG        25.5550   20.1690   10.9100 C.3   447  LEU447      0.0019
     72  CD1       25.6130   21.6440   11.3170 C.3   447  LEU447      0.0001
     73  CD2       25.5700   19.2880   12.1300 C.3   447  LEU447      0.0001
     74  N         25.5110   23.5180    5.5270 N.3   450  ARG450     -0.1231
     75  CA        25.7750   24.8130    6.1440 C.3   450  ARG450      0.1694
     76  C         27.2560   24.9520    6.4700 C.2   450  ARG450      0.2591
     77  O         27.8790   25.9820    6.1810 O.2   450  ARG450     -0.2718
     78  CB        24.9160   24.9860    7.4020 C.3   450  ARG450      0.0321
     79  CG        23.4130   25.1090    7.1120 C.3   450  ARG450      0.0489
     80  CD        22.6330   25.6640    8.3100 C.3   450  ARG450      0.2205
     81  NE        22.8290   24.8680    9.5230 N.pl3 450  ARG450     -0.0865
     82  CZ        22.1470   23.7620    9.8240 C.cat 450  ARG450      0.5346
     83  NH1       21.2060   23.2970    9.0100 N.pl3 450  ARG450      0.1354
     84  NH2       22.4110   23.1130   10.9500 N.pl3 450  ARG450      0.1354
     85  N         27.8450   23.8980    7.0420 N.am  451  LEU451     -0.1980
     86  CA        29.2390   23.9540    7.4730 C.3   451  LEU451      0.1596
     87  C         30.1890   24.1480    6.3000 C.2   451  LEU451      0.2287
     88  O         31.1520   24.9200    6.3950 O.2   451  LEU451     -0.2864
     89  CB        29.6050   22.6740    8.2300 C.3   451  LEU451      0.0297
     90  CG        29.0490   22.5020    9.6470 C.3   451  LEU451      0.0022
     91  CD1       29.3190   21.1000   10.1640 C.3   451  LEU451      0.0001
     92  CD2       29.6520   23.5430   10.5810 C.3   451  LEU451      0.0001
     93  N         28.2620   26.7740    2.4670 N.3   454  GLY454     -0.1210
     94  CA        27.6390   28.0790    2.5740 C.3   454  GLY454      0.1956
     95  C         26.1280   28.0820    2.6400 C.2   454  GLY454      0.2612
     96  O         25.5190   29.1470    2.4980 O.2   454  GLY454     -0.2717
     97  N         25.4940   26.9320    2.8480 N.am  455  ALA455     -0.1965
     98  CA        24.0430   26.9060    2.9170 C.3   455  ALA455      0.1728
     99  C         23.5590   27.5910    4.1940 C.2   455  ALA455      0.2616
    100  O         24.2910   27.7240    5.1750 O.2   455  ALA455     -0.2715
    101  CB        23.5310   25.4680    2.8580 C.3   455  ALA455      0.0334
    102  N         22.2990   28.0390    4.1630 N.am  456  THR456     -0.1951
    103  CA        21.6540   28.6400    5.3250 C.3   456  THR456      0.1897
    104  C         20.4470   27.8530    5.8200 C.2   456  THR456      0.2313
    105  O         19.9690   28.1170    6.9310 O.2   456  THR456     -0.2863
    106  CB        21.1890   30.0680    5.0110 C.3   456  THR456      0.1794
    107  OG1       20.2560   30.0290    3.9300 O.3   456  THR456     -0.2208
    108  CG2       22.3620   30.9610    4.6410 C.3   456  THR456      0.0378
@<TRIPOS>BOND
     1    14    13   ar
     2    14    12   ar
     3    13    11   ar
     4    12    10   ar
     5    11     8   ar
     6    10     8   ar
     7    10     9   ar
     8    30    28    1
     9    93    94    1
    10    96    95    2
    11    94    95    1
    12    95    97   am
    13     8     6   ar
    14    97    98    1
    15   101    98    1
    16    98    99    1
    17     9     7   ar
    18    28    29    1
    19    28    25    1
    20   107   106    1
    21     6     7   ar
    22     6     5    1
    23   102    99   am
    24   102   103    1
    25    99   100    2
    26    27    26    2
    27    26    25    1
    28   108   106    1
    29     5     2    1
    30    25    24    1
    31   106   103    1
    32     3     4    2
    33     3     2    1
    34   103   104    1
    35    74    75    1
    36   104   105    2
    37     2     1    1
    38    24    17   am
    39    75    76    1
    40    75    78    1
    41    77    76    2
    42    87    88    2
    43    87    86    1
    44    76    85   am
    45    33    34    2
    46    33    32    1
    47    85    86    1
    48    79    78    1
    49    79    80    1
    50    17    18    2
    51    17    16    1
    52    86    89    1
    53    31    32    1
    54    15    16    1
    55    32    35    1
    56    69    68    2
    57    68    67    1
    58    66    67    1
    59    35    36    1
    60    89    90    1
    61    16    19    1
    62    80    81    1
    63    19    20    1
    64    67    70    1
    65    83    82    1
    66    81    82    2
    67    90    91    1
    68    90    92    1
    69    82    84    1
    70    22    23    1
    71    22    21    1
    72    70    71    1
    73    20    21    1
    74    71    72    1
    75    71    73    1
    76    42    41    1
    77    42    43    1
    78    44    43    1
    79    44    45    1
    80    41    38    1
    81    37    38    1
    82    50    47    1
    83    50    51    1
    84    40    39    2
    85    38    39    1
    86    53    51   ar
    87    49    48    2
    88    47    48    1
    89    47    46    1
    90    65    64    1
    91    51    52   ar
    92    64    63   ar
    93    64    62   ar
    94    63    61   ar
    95    62    60   ar
    96    61    59   ar
    97    60    59   ar
    98    59    58    1
    99    58    55    1
   100    55    54    1
   101    55    56    1
   102    56    57    2
