@<TRIPOS>MOLECULE
tmp/6fteA00.pdb
 183 175 0 0 0
SMALL
GASTEIGER

@<TRIPOS>ATOM
      1  N         -6.3610   -7.0520    8.3700 N.3    58  TYR58      -0.1241
      2  CA        -7.3020   -8.1430    8.2150 C.3    58  TYR58       0.1605
      3  C         -6.6470   -9.4600    8.5970 C.2    58  TYR58       0.2264
      4  O         -5.4350   -9.5240    8.7470 O.2    58  TYR58      -0.2867
      5  CB        -7.8030   -8.1990    6.7340 C.3    58  TYR58       0.0534
      6  CG        -6.8900   -8.8300    5.6740 C.ar   58  TYR58      -0.0201
      7  CD1       -5.6790   -8.2680    5.2890 C.ar   58  TYR58      -0.0009
      8  CD2       -7.2430  -10.0430    5.0650 C.ar   58  TYR58      -0.0009
      9  CE1       -4.8840   -8.8580    4.3000 C.ar   58  TYR58       0.0417
     10  CE2       -6.4370  -10.6360    4.0980 C.ar   58  TYR58       0.0417
     11  CZ        -5.2700  -10.0580    3.7190 C.ar   58  TYR58       0.1957
     12  OH        -4.4780  -10.6260    2.7300 O.3    58  TYR58      -0.2866
     13  N         -7.4380  -13.9890    7.8280 N.3    60  VAL60      -0.1245
     14  CA        -8.2240  -15.0100    7.0810 C.3    60  VAL60       0.1561
     15  C         -8.0210  -16.3970    7.7080 C.2    60  VAL60       0.2260
     16  O         -7.0830  -17.1130    7.3820 O.2    60  VAL60      -0.2867
     17  CB        -7.8190  -15.0750    5.5800 C.3    60  VAL60       0.0252
     18  CG1       -8.5380  -16.2410    4.8020 C.3    60  VAL60       0.0019
     19  CG2       -8.1200  -13.7570    4.9050 C.3    60  VAL60       0.0019
     20  N         -5.2630  -17.3370   14.3580 N.3    74  HIS74      -0.1241
     21  CA        -5.6740  -16.1630   13.5450 C.3    74  HIS74       0.1621
     22  C         -6.1100  -14.9660   14.3500 C.2    74  HIS74       0.2264
     23  O         -5.7070  -13.8360   14.0550 O.2    74  HIS74      -0.2867
     24  CB        -6.6890  -16.5610   12.4570 C.3    74  HIS74       0.0745
     25  CG        -6.0800  -17.4060   11.3740 C.ar   74  HIS74       0.0817
     26  ND1       -5.4110  -16.8440   10.3160 N.ar   74  HIS74      -0.2268
     27  CD2       -6.0260  -18.7540   11.2000 C.ar   74  HIS74       0.1154
     28  CE1       -4.9150  -17.8260    9.5620 C.ar   74  HIS74       0.1986
     29  NE2       -5.2620  -18.9930   10.0810 N.ar   74  HIS74      -0.2212
     30  N         -3.0650  -13.4140   15.9900 N.3    77  ARG77      -0.1245
     31  CA        -2.2960  -12.5900   15.0740 C.3    77  ARG77       0.1563
     32  C         -3.0300  -11.2790   14.7670 C.2    77  ARG77       0.2260
     33  O         -2.4250  -10.2200   14.6780 O.2    77  ARG77      -0.2867
     34  CB        -2.0100  -13.3570   13.7680 C.3    77  ARG77       0.0307
     35  CG        -1.2310  -12.5720   12.7650 C.3    77  ARG77       0.0489
     36  CD        -0.7760  -13.4230   11.6010 C.3    77  ARG77       0.2205
     37  NE        -1.8770  -13.7350   10.7140 N.pl3  77  ARG77      -0.0865
     38  CZ        -1.7690  -14.6390    9.7270 C.cat  77  ARG77       0.5346
     39  NH1       -0.6090  -15.2530    9.5170 N.pl3  77  ARG77       0.1354
     40  NH2       -2.8190  -14.8760    8.9360 N.pl3  77  ARG77       0.1354
     41  N          9.5130   -6.5670   -2.9050 N.3   168  ARG168     -0.1245
     42  CA         8.5870   -6.5190   -1.8000 C.3   168  ARG168      0.1563
     43  C          8.7880   -5.2090   -1.0110 C.2   168  ARG168      0.2260
     44  O          9.9500   -4.7850   -0.7260 O.2   168  ARG168     -0.2867
     45  CB         8.7780   -7.7200   -0.8360 C.3   168  ARG168      0.0307
     46  CG         7.7340   -7.8130    0.2750 C.3   168  ARG168      0.0489
     47  CD         6.4140   -8.4240   -0.2440 C.3   168  ARG168      0.2205
     48  NE         5.4260   -8.5040    0.8220 N.pl3 168  ARG168     -0.0865
     49  CZ         4.5910   -7.5440    1.1730 C.cat 168  ARG168      0.5346
     50  NH1        4.5180   -6.3960    0.5130 N.pl3 168  ARG168      0.1354
     51  NH2        3.7790   -7.7220    2.2100 N.pl3 168  ARG168      0.1354
     52  N         -0.8240   -8.2300    8.4230 N.3   179  LYS179     -0.1231
     53  CA        -1.5320   -8.6070    7.1580 C.3   179  LYS179      0.1693
     54  C         -2.3410   -7.4380    6.6730 C.2   179  LYS179      0.2592
     55  O         -3.1560   -6.9000    7.4250 O.2   179  LYS179     -0.2718
     56  CB        -2.4070   -9.8580    7.3940 C.3   179  LYS179      0.0285
     57  CG        -2.5160  -10.8030    6.1680 C.3   179  LYS179      0.0035
     58  CD        -3.2550  -12.0990    6.5130 C.3   179  LYS179      0.0206
     59  CE        -3.7910  -12.8600    5.3050 C.3   179  LYS179      0.1093
     60  NZ        -2.7500  -13.0960    4.2640 N.3   179  LYS179     -0.1314
     61  N         -2.0540   -6.9930    5.4360 N.am  180  ASN180     -0.1974
     62  CA        -2.6890   -5.7790    4.8890 C.3   180  ASN180      0.1688
     63  C         -3.0490   -5.9300    3.4400 C.2   180  ASN180      0.2292
     64  O         -2.6080   -6.8540    2.7900 O.2   180  ASN180     -0.2864
     65  CB        -1.7540   -4.5900    5.1270 C.3   180  ASN180      0.1181
     66  CG        -0.5030   -4.6410    4.2440 C.2   180  ASN180      0.2629
     67  OD1       -0.5400   -4.2720    3.0860 O.2   180  ASN180     -0.2716
     68  ND2        0.5990   -5.1660    4.7910 N.am  180  ASN180     -0.0877
     69  N         -1.5860   -3.9670   -1.7120 N.3   183  TRP183     -0.1241
     70  CA        -0.9120   -5.0020   -2.5720 C.3   183  TRP183      0.1605
     71  C         -0.2050   -4.4410   -3.7940 C.2   183  TRP183      0.2264
     72  O         -0.0020   -5.1560   -4.7430 O.2   183  TRP183     -0.2867
     73  CB        -1.9370   -6.0330   -3.0110 C.3   183  TRP183      0.0550
     74  CG        -2.1550   -7.1720   -2.0510 C.ar  183  TRP183      0.0003
     75  CD1       -2.0980   -7.1500   -0.6830 C.ar  183  TRP183      0.0946
     76  CD2       -2.3810   -8.5270   -2.4310 C.ar  183  TRP183      0.0152
     77  NE1       -2.3200   -8.4400   -0.1990 N.ar  183  TRP183     -0.2442
     78  CE2       -2.4780   -9.2900   -1.2560 C.ar  183  TRP183      0.0810
     79  CE3       -2.5880   -9.1690   -3.6810 C.ar  183  TRP183      0.0012
     80  CZ2       -2.7190  -10.6640   -1.2720 C.ar  183  TRP183      0.0191
     81  CZ3       -2.7950  -10.5260   -3.6870 C.ar  183  TRP183      0.0001
     82  CH2       -2.8810  -11.2610   -2.4870 C.ar  183  TRP183      0.0015
     83  N          2.6020   -6.6240   -4.8840 N.3   186  LEU186     -0.1245
     84  CA         2.0840   -7.9470   -5.1750 C.3   186  LEU186      0.1561
     85  C          1.3100   -7.9740   -6.5260 C.2   186  LEU186      0.2260
     86  O          1.4950   -8.8860   -7.3480 O.2   186  LEU186     -0.2867
     87  CB         1.2450   -8.4320   -3.9610 C.3   186  LEU186      0.0270
     88  CG         2.0530   -8.5240   -2.6440 C.3   186  LEU186      0.0019
     89  CD1        1.1020   -9.0780   -1.5930 C.3   186  LEU186      0.0001
     90  CD2        3.3260   -9.3520   -2.7800 C.3   186  LEU186      0.0001
     91  N          8.1960  -13.2110   -0.2500 N.3   212  GLU212     -0.1231
     92  CA         6.9340  -13.9260   -0.3710 C.3   212  GLU212      0.1699
     93  C          6.3130  -13.5120   -1.7140 C.2   212  GLU212      0.2592
     94  O          6.9340  -12.7580   -2.4590 O.2   212  GLU212     -0.2718
     95  CB         6.0140  -13.6420    0.8670 C.3   212  GLU212      0.0402
     96  CG         5.6650  -12.1380    0.9990 C.3   212  GLU212      0.1161
     97  CD         4.8940  -11.8010    2.2820 C.2   212  GLU212      0.3649
     98  OE1        4.4310  -12.7410    2.9960 O.co2 212  GLU212     -0.2457
     99  OE2        4.7870  -10.5760    2.6250 O.co2 212  GLU212     -0.2457
    100  N          5.1450  -14.0360   -1.9960 N.am  213  GLY213     -0.1957
    101  CA         4.3860  -13.6650   -3.1740 C.3   213  GLY213      0.1869
    102  C          3.0290  -13.1000   -2.8570 C.2   213  GLY213      0.2309
    103  O          2.7590  -12.6090   -1.7440 O.2   213  GLY213     -0.2863
    104  N          0.0430  -13.2150   -1.8150 N.3   215  GLY215     -0.1210
    105  CA        -0.8870  -13.9000   -0.9110 C.3   215  GLY215      0.1956
    106  C         -0.4490  -15.2690   -0.4100 C.2   215  GLY215      0.2612
    107  O         -1.2970  -16.1270   -0.0590 O.2   215  GLY215     -0.2717
    108  N          0.8540  -15.4590   -0.2700 N.am  216  PHE216     -0.1962
    109  CA         1.3960  -16.7740    0.1120 C.3   216  PHE216      0.1771
    110  C          2.8730  -16.6370    0.5860 C.2   216  PHE216      0.2619
    111  O          3.6000  -15.7080    0.1180 O.2   216  PHE216     -0.2715
    112  CB         1.3270  -17.7870   -1.0350 C.3   216  PHE216      0.0574
    113  CG         2.0050  -17.3460   -2.3210 C.ar  216  PHE216     -0.0200
    114  CD1        3.3720  -17.4500   -2.5650 C.ar  216  PHE216     -0.0042
    115  CD2        1.2010  -16.8540   -3.3050 C.ar  216  PHE216     -0.0042
    116  CE1        3.9330  -16.9770   -3.7580 C.ar  216  PHE216     -0.0003
    117  CE2        1.7500  -16.4580   -4.5270 C.ar  216  PHE216     -0.0003
    118  CZ         3.0840  -16.5280   -4.7490 C.ar  216  PHE216     -0.0000
    119  N          3.3220  -17.5320    1.5030 N.am  217  ASN217     -0.1972
    120  CA         4.7120  -17.6700    1.8370 C.3   217  ASN217      0.1688
    121  C          5.3060  -18.7070    0.8710 C.2   217  ASN217      0.2292
    122  O          4.5440  -19.4670    0.1760 O.2   217  ASN217     -0.2864
    123  CB         4.9140  -18.1380    3.2910 C.3   217  ASN217      0.1181
    124  CG         4.4990  -17.1070    4.3060 C.2   217  ASN217      0.2629
    125  OD1        3.5730  -17.3340    5.1010 O.2   217  ASN217     -0.2716
    126  ND2        5.1890  -15.9430    4.2750 N.am  217  ASN217     -0.0877
    127  N          4.9810  -12.1480    5.8730 N.3   234  LEU234     -0.1245
    128  CA         3.9760  -12.4110    6.8990 C.3   234  LEU234      0.1561
    129  C          4.3330  -13.7190    7.5850 C.2   234  LEU234      0.2260
    130  O          4.8310  -14.6380    6.9330 O.2   234  LEU234     -0.2867
    131  CB         2.6000  -12.6030    6.2730 C.3   234  LEU234      0.0270
    132  CG         1.4530  -12.6690    7.2590 C.3   234  LEU234      0.0019
    133  CD1        1.0770  -11.2470    7.7150 C.3   234  LEU234      0.0001
    134  CD2        0.2620  -13.4080    6.6750 C.3   234  LEU234      0.0001
    135  N          3.0050  -16.6020    8.3570 N.3   236  GLY236     -0.1210
    136  CA         1.8260  -17.3770    8.0450 C.3   236  GLY236      0.1956
    137  C          1.4790  -18.4540    9.0740 C.2   236  GLY236      0.2612
    138  O          2.3490  -19.1330    9.6310 O.2   236  GLY236     -0.2717
    139  N          0.1830  -18.6400    9.2190 N.am  237  VAL237     -0.1965
    140  CA        -0.3640  -19.7570    9.9740 C.3   237  VAL237      0.1727
    141  C         -0.1720  -21.0470    9.1880 C.2   237  VAL237      0.2617
    142  O          0.0810  -22.1070    9.7860 O.2   237  VAL237     -0.2715
    143  CB        -1.8430  -19.5220   10.4180 C.3   237  VAL237      0.0290
    144  CG1       -2.4310  -20.7460   11.1330 C.3   237  VAL237      0.0023
    145  CG2       -1.9340  -18.2660   11.2900 C.3   237  VAL237      0.0023
    146  N         -0.2320  -20.9510    7.8570 N.am  238  THR238     -0.1937
    147  CA         0.0360  -22.1510    7.0430 C.3   238  THR238      0.2028
    148  C          1.5260  -22.5220    7.1910 C.2   238  THR238      0.2642
    149  O          1.8780  -23.6830    7.4110 O.2   238  THR238     -0.2714
    150  CB        -0.3820  -21.9690    5.5670 C.3   238  THR238      0.1808
    151  OG1       -1.6670  -21.3330    5.5100 O.3   238  THR238     -0.2208
    152  CG2       -0.4810  -23.3050    4.9580 C.3   238  THR238      0.0379
    153  N          2.4120  -21.5420    7.1080 N.am  239  ARG239     -0.1977
    154  CA         3.8380  -21.7370    7.2490 C.3   239  ARG239      0.1597
    155  C          4.1230  -22.3590    8.6830 C.2   239  ARG239      0.2287
    156  O          4.8960  -23.2850    8.8360 O.2   239  ARG239     -0.2864
    157  CB         4.5330  -20.3640    7.1080 C.3   239  ARG239      0.0334
    158  CG         6.0360  -20.5120    7.1830 C.3   239  ARG239      0.0492
    159  CD         6.7550  -19.1880    7.0480 C.3   239  ARG239      0.2205
    160  NE         6.8420  -18.5920    8.3820 N.pl3 239  ARG239     -0.0865
    161  CZ         7.5350  -17.5090    8.6940 C.cat 239  ARG239      0.5346
    162  NH1        8.2790  -16.9010    7.7990 N.pl3 239  ARG239      0.1354
    163  NH2        7.5480  -17.1110    9.9380 N.pl3 239  ARG239      0.1354
    164  N          2.6110  -21.5640    0.3650 N.3   272  CYS272     -0.1221
    165  CA         1.6200  -21.9080    1.3790 C.3   272  CYS272      0.1808
    166  C          0.8220  -20.7120    1.8280 C.2   272  CYS272      0.2602
    167  O          1.3540  -19.5760    1.9970 O.2   272  CYS272     -0.2717
    168  CB         2.2290  -22.6550    2.5620 C.3   272  CYS272      0.0970
    169  SG         3.5170  -21.7920    3.4840 S.3   272  CYS272     -0.0800
    170  N         -0.4620  -20.9470    2.0120 N.am  273  THR273     -0.1939
    171  CA        -1.3800  -19.9230    2.4520 C.3   273  THR273      0.2028
    172  C         -2.7450  -20.5190    2.9160 C.2   273  THR273      0.2642
    173  O         -3.1020  -21.6900    2.5800 O.2   273  THR273     -0.2714
    174  CB        -1.6590  -18.9460    1.2890 C.3   273  THR273      0.1808
    175  OG1       -2.1770  -17.7380    1.8300 O.3   273  THR273     -0.2208
    176  CG2       -2.6940  -19.4700    0.2440 C.3   273  THR273      0.0379
    177  N         -3.5370  -19.7710    3.6950 N.am  274  THR274     -0.1950
    178  CA        -4.8130  -20.3170    4.1380 C.3   274  THR274      0.1897
    179  C         -5.7560  -20.6230    3.0000 C.2   274  THR274      0.2313
    180  O         -6.3810  -21.6510    2.9820 O.2   274  THR274     -0.2863
    181  CB        -5.5130  -19.4140    5.1500 C.3   274  THR274      0.1794
    182  OG1       -4.5710  -19.3140    6.2570 O.3   274  THR274     -0.2208
    183  CG2       -6.7720  -19.9620    5.6110 C.3   274  THR274      0.0378
@<TRIPOS>BOND
     1    86    85    2
     2    85    84    1
     3    84    83    1
     4    84    87    1
     5   118   117   ar
     6   118   116   ar
     7    72    71    2
     8   117   115   ar
     9    87    88    1
    10    71    70    1
    11   116   114   ar
    12    81    79   ar
    13    81    82   ar
    14    79    76   ar
    15   115   113   ar
    16   101   102    1
    17   101   100    1
    18    73    70    1
    19    73    74    1
    20    41    42    1
    21   102   103    2
    22    90    88    1
    23    88    89    1
    24    70    69    1
    25   114   113   ar
    26    82    80   ar
    27    94    93    2
    28    76    74   ar
    29    76    78   ar
    30   113   112    1
    31    74    75   ar
    32   100    93   am
    33   104   105    1
    34    42    43    1
    35    42    45    1
    36    93    92    1
    37    80    78   ar
    38    78    77   ar
    39   112   109    1
    40    43    44    2
    41   105   106    1
    42    45    46    1
    43    75    77   ar
    44   106   108   am
    45   106   107    2
    46    92    91    1
    47    92    95    1
    48   108   109    1
    49    47    46    1
    50    47    48    1
    51   109   110    1
    52   111   110    2
    53   122   121    2
    54   176   174    1
    55   164   165    1
    56    50    49    1
    57   110   119   am
    58    48    49    2
    59    95    96    1
    60   121   120    1
    61    96    97    1
    62    49    51    1
    63   174   175    1
    64   174   171    1
    65   165   166    1
    66   165   168    1
    67   119   120    1
    68   166   167    2
    69   166   170   am
    70   120   123    1
    71   170   171    1
    72    97    99   ar
    73    97    98   ar
    74   171   172    1
    75   168   169    1
    76   173   172    2
    77    12    11    1
    78    64    63    2
    79   172   177   am
    80   180   179    2
    81   179   178    1
    82    67    66    2
    83   123   124    1
    84    63    62    1
    85   177   178    1
    86    11    10   ar
    87    11     9   ar
    88    10     8   ar
    89   178   181    1
    90    66    68   am
    91    66    65    1
    92    60    59    1
    93   126   124   am
    94     9     7   ar
    95   124   125    2
    96    18    17    1
    97    62    65    1
    98    62    61    1
    99    19    17    1
   100   152   150    1
   101     8     6   ar
   102   181   183    1
   103   181   182    1
   104     7     6   ar
   105    59    58    1
   106    61    54   am
   107   151   150    1
   108   150   147    1
   109    17    14    1
   110     6     5    1
   111   127   128    1
   112    57    58    1
   113    57    56    1
   114   131   128    1
   115   131   132    1
   116    54    53    1
   117    54    55    2
   118   134   132    1
   119     5     2    1
   120   128   129    1
   121   130   129    2
   122   147   148    1
   123   147   146    1
   124   159   158    1
   125   159   160    1
   126    14    15    1
   127    14    13    1
   128   157   158    1
   129   157   154    1
   130   153   148   am
   131   153   154    1
   132    53    56    1
   133    53    52    1
   134   148   149    2
   135   154   155    1
   136   132   133    1
   137    16    15    2
   138   162   161    1
   139   146   141   am
   140   136   135    1
   141   136   137    1
   142     2     1    1
   143     2     3    1
   144   160   161    2
   145     3     4    2
   146   155   156    2
   147   161   163    1
   148    40    38    1
   149   137   139   am
   150   137   138    2
   151   141   142    2
   152   141   140    1
   153   139   140    1
   154    39    38    1
   155    28    29   ar
   156    28    26   ar
   157    38    37    2
   158   140   143    1
   159    29    27   ar
   160    26    25   ar
   161   143   144    1
   162   143   145    1
   163    37    36    1
   164    27    25   ar
   165    25    24    1
   166    36    35    1
   167    24    21    1
   168    35    34    1
   169    21    22    1
   170    21    20    1
   171    34    31    1
   172    23    22    2
   173    33    32    2
   174    32    31    1
   175    31    30    1
