@<TRIPOS>MOLECULE
tmp/6ftlC00.pdb
 151 143 0 0 0
SMALL
GASTEIGER

@<TRIPOS>ATOM
      1  N         38.4700   39.8480   23.9390 N.3   172  THR172     -0.1218
      2  CA        37.9980   40.9350   23.1070 C.3   172  THR172      0.1862
      3  C         37.3010   41.9540   24.0090 C.2   172  THR172      0.2287
      4  O         36.5150   41.5640   24.8990 O.2   172  THR172     -0.2866
      5  CB        37.0620   40.4160   21.9920 C.3   172  THR172      0.1770
      6  OG1       37.7150   39.3620   21.2710 O.3   172  THR172     -0.2211
      7  CG2       36.7010   41.5430   21.0280 C.3   172  THR172      0.0375
      8  N         34.5470   44.6570   25.0320 N.3   174  LYS174     -0.1245
      9  CA        33.1090   44.7230   24.7860 C.3   174  LYS174      0.1561
     10  C         32.5060   45.9460   25.5150 C.2   174  LYS174      0.2260
     11  O         33.0190   46.3240   26.5680 O.2   174  LYS174     -0.2867
     12  CB        32.4010   43.4420   25.2530 C.3   174  LYS174      0.0271
     13  CG        32.8680   42.1570   24.5910 C.3   174  LYS174      0.0035
     14  CD        32.5710   42.0870   23.0950 C.3   174  LYS174      0.0206
     15  CE        33.1540   40.8180   22.4990 C.3   174  LYS174      0.1093
     16  NZ        33.4200   40.9340   21.0420 N.3   174  LYS174     -0.1314
     17  N         31.1220   45.6210   21.4410 N.3   176  LYS176     -0.1245
     18  CA        31.8820   45.5580   20.1940 C.3   176  LYS176      0.1561
     19  C         32.2410   46.9540   19.7270 C.2   176  LYS176      0.2260
     20  O         33.4090   47.2340   19.4730 O.2   176  LYS176     -0.2867
     21  CB        31.1050   44.8760   19.0740 C.3   176  LYS176      0.0271
     22  CG        30.7540   43.4120   19.2520 C.3   176  LYS176      0.0035
     23  CD        30.0140   42.8770   18.0260 C.3   176  LYS176      0.0206
     24  CE        30.9530   42.6020   16.8650 C.3   176  LYS176      0.1093
     25  NZ        31.7630   41.3750   17.1060 N.3   176  LYS176     -0.1314
     26  N         37.9600   44.8560   18.9890 N.3   200  ASP200     -0.1225
     27  CA        37.0300   44.0400   18.2520 C.3   200  ASP200      0.1805
     28  C         37.3580   44.2370   16.7560 C.2   200  ASP200      0.2597
     29  O         37.9210   45.2780   16.3810 O.2   200  ASP200     -0.2718
     30  CB        35.5920   44.4490   18.5980 C.3   200  ASP200      0.1424
     31  CG        34.6770   43.2790   18.6900 C.2   200  ASP200      0.3668
     32  OD1       33.8670   43.2180   19.6250 O.co2 200  ASP200     -0.2456
     33  OD2       34.7910   42.3750   17.8460 O.co2 200  ASP200     -0.2456
     34  N         37.0590   43.2390   15.9160 N.am  201  GLU201     -0.1979
     35  CA        37.3580   43.3200   14.4520 C.3   201  GLU201      0.1602
     36  C         36.7700   44.5580   13.7600 C.2   201  GLU201      0.2287
     37  O         37.4250   45.1410   12.9170 O.2   201  GLU201     -0.2864
     38  CB        36.9850   42.0290   13.6910 C.3   201  GLU201      0.0415
     39  CG        35.4990   41.7360   13.5300 C.3   201  GLU201      0.1163
     40  CD        34.8330   41.3470   14.8400 C.2   201  GLU201      0.3649
     41  OE1       33.7500   41.8770   15.1470 O.co2 201  GLU201     -0.2457
     42  OE2       35.4010   40.5240   15.5920 O.co2 201  GLU201     -0.2457
     43  N         42.5810   38.5740   12.4860 N.3   290  HIS290     -0.1226
     44  CA        41.2100   38.1960   12.7390 C.3   290  HIS290      0.1752
     45  C         40.6480   37.7420   11.4000 C.2   290  HIS290      0.2595
     46  O         40.9660   38.3270   10.3560 O.2   290  HIS290     -0.2718
     47  CB        40.4470   39.3810   13.2700 C.3   290  HIS290      0.0759
     48  CG        39.0320   39.0700   13.5420 C.ar  290  HIS290      0.0818
     49  ND1       38.0820   39.0810   12.5560 N.ar  290  HIS290     -0.2268
     50  CD2       38.4050   38.6760   14.6700 C.ar  290  HIS290      0.1154
     51  CE1       36.9210   38.7240   13.0650 C.ar  290  HIS290      0.1986
     52  NE2       37.0890   38.4780   14.3510 N.ar  290  HIS290     -0.2212
     53  N         39.8030   36.7180   11.4010 N.am  291  ARG291     -0.1980
     54  CA        39.3930   36.0890   10.1210 C.3   291  ARG291      0.1597
     55  C         38.0530   36.6090    9.5820 C.2   291  ARG291      0.2287
     56  O         37.3000   35.8650    8.9580 O.2   291  ARG291     -0.2864
     57  CB        39.4290   34.5510   10.2080 C.3   291  ARG291      0.0334
     58  CG        38.4490   33.9290   11.1760 C.3   291  ARG291      0.0492
     59  CD        38.5460   32.4140   11.1180 C.3   291  ARG291      0.2205
     60  NE        37.8580   31.8100   12.2650 N.pl3 291  ARG291     -0.0865
     61  CZ        37.5650   30.5200   12.4030 C.cat 291  ARG291      0.5346
     62  NH1       37.9240   29.6270   11.4960 N.pl3 291  ARG291      0.1354
     63  NH2       36.9460   30.1200   13.4960 N.pl3 291  ARG291      0.1354
     64  N         42.7500   33.2070   14.0390 N.3   323  HIS323     -0.1241
     65  CA        41.6120   32.5490   14.7090 C.3   323  HIS323      0.1621
     66  C         41.3520   31.2590   13.9590 C.2   323  HIS323      0.2264
     67  O         41.3030   31.2880   12.7420 O.2   323  HIS323     -0.2867
     68  CB        40.3530   33.4020   14.6460 C.3   323  HIS323      0.0745
     69  CG        40.3820   34.6140   15.5190 C.ar  323  HIS323      0.0817
     70  ND1       39.4400   34.8280   16.4970 N.ar  323  HIS323     -0.2268
     71  CD2       41.2100   35.6890   15.5590 C.ar  323  HIS323      0.1154
     72  CE1       39.6740   35.9850   17.0920 C.ar  323  HIS323      0.1986
     73  NE2       40.7430   36.5260   16.5430 N.ar  323  HIS323     -0.2212
     74  N         39.2190   28.5700   15.6730 N.3   325  GLY325     -0.1225
     75  CA        38.1140   27.8910   16.3170 C.3   325  GLY325      0.1811
     76  C         38.3140   27.4240   17.7560 C.2   325  GLY325      0.2280
     77  O         39.4430   27.3220   18.2610 O.2   325  GLY325     -0.2866
     78  N         30.6870   29.4990   20.6650 N.3   330  LYS330     -0.1231
     79  CA        29.5210   29.9440   19.8610 C.3   330  LYS330      0.1693
     80  C         29.6820   29.9120   18.3300 C.2   330  LYS330      0.2591
     81  O         28.7160   30.1920   17.6310 O.2   330  LYS330     -0.2718
     82  CB        29.1040   31.3600   20.2780 C.3   330  LYS330      0.0285
     83  CG        29.9960   32.4490   19.6980 C.3   330  LYS330      0.0035
     84  CD        29.8920   33.7490   20.4730 C.3   330  LYS330      0.0206
     85  CE        30.6800   34.8240   19.7610 C.3   330  LYS330      0.1093
     86  NZ        30.4880   36.1210   20.4440 N.3   330  LYS330     -0.1314
     87  N         30.8690   29.6180   17.8070 N.am  331  LEU331     -0.1980
     88  CA        31.0710   29.5880   16.3570 C.3   331  LEU331      0.1596
     89  C         31.3920   28.2010   15.8690 C.2   331  LEU331      0.2287
     90  O         32.0680   27.4490   16.5480 O.2   331  LEU331     -0.2864
     91  CB        32.1810   30.5460   15.9480 C.3   331  LEU331      0.0297
     92  CG        31.8240   32.0330   16.1280 C.3   331  LEU331      0.0022
     93  CD1       32.8150   32.7010   17.0730 C.3   331  LEU331      0.0001
     94  CD2       31.7290   32.7850   14.8070 C.3   331  LEU331      0.0001
     95  N         44.2950   30.8800   17.3620 N.3   372  VAL372     -0.1245
     96  CA        43.5990   31.6230   18.3790 C.3   372  VAL372      0.1561
     97  C         42.2210   31.0100   18.5320 C.2   372  VAL372      0.2260
     98  O         41.5620   30.7710   17.5500 O.2   372  VAL372     -0.2867
     99  CB        43.5130   33.1060   17.9900 C.3   372  VAL372      0.0252
    100  CG1       42.6710   33.8970   18.9920 C.3   372  VAL372      0.0019
    101  CG2       44.9150   33.6830   17.8740 C.3   372  VAL372      0.0019
    102  N         38.7660   31.9280   19.9670 N.3   374  SER374     -0.1202
    103  CA        37.8860   32.9780   20.4890 C.3   374  SER374      0.2020
    104  C         36.4470   32.6100   20.1690 C.2   374  SER374      0.2619
    105  O         36.1890   31.8800   19.2180 O.2   374  SER374     -0.2717
    106  CB        38.2480   34.3290   19.8580 C.3   374  SER374      0.2103
    107  OG        38.0230   35.4290   20.7330 O.3   374  SER374     -0.2182
    108  N         35.5170   33.0860   20.9890 N.am  375  GLY375     -0.1942
    109  CA        34.0830   33.0560   20.6560 C.3   375  GLY375      0.2014
    110  C         33.1510   32.2290   21.5240 C.2   375  GLY375      0.2639
    111  O         32.8770   31.0710   21.2250 O.2   375  GLY375     -0.2714
    112  N         32.6210   32.8580   22.5640 N.am  376  GLY376     -0.1939
    113  CA        31.6600   32.2280   23.4450 C.3   376  GLY376      0.2014
    114  C         32.2230   31.1070   24.2980 C.2   376  GLY376      0.2638
    115  O         31.5340   30.1130   24.5600 O.2   376  GLY376     -0.2714
    116  N         33.4660   31.2570   24.7440 N.am  377  ILE377     -0.1977
    117  CA        34.0440   30.2760   25.6410 C.3   377  ILE377      0.1596
    118  C         34.1760   30.8690   27.0360 C.2   377  ILE377      0.2287
    119  O         34.3180   32.0880   27.1900 O.2   377  ILE377     -0.2864
    120  CB        35.3600   29.6680   25.1040 C.3   377  ILE377      0.0276
    121  CG1       36.3340   30.7440   24.6440 C.3   377  ILE377      0.0022
    122  CG2       35.0430   28.6970   23.9680 C.3   377  ILE377      0.0022
    123  CD1       37.7630   30.2590   24.5420 C.3   377  ILE377      0.0001
    124  N         40.8310   33.0890   24.1020 N.3   396  GLN396     -0.1231
    125  CA        40.2840   34.4260   24.3180 C.3   396  GLN396      0.1698
    126  C         38.8870   34.4320   24.9010 C.2   396  GLN396      0.2592
    127  O         38.0210   33.6760   24.4860 O.2   396  GLN396     -0.2718
    128  CB        40.3540   35.2210   23.0410 C.3   396  GLN396      0.0381
    129  CG        41.7880   35.4600   22.6190 C.3   396  GLN396      0.0905
    130  CD        41.9200   36.4090   21.4470 C.2   396  GLN396      0.2608
    131  OE1       43.0000   36.9530   21.2200 O.2   396  GLN396     -0.2717
    132  NE2       40.8290   36.6040   20.6780 N.am  396  GLN396     -0.0878
    133  N         38.6900   35.3140   25.8690 N.am  397  PHE397     -0.1962
    134  CA        37.5180   35.3230   26.7230 C.3   397  PHE397      0.1771
    135  C         36.9500   36.7310   26.8170 C.2   397  PHE397      0.2620
    136  O         37.2050   37.4340   27.7800 O.2   397  PHE397     -0.2715
    137  CB        37.9250   34.8320   28.1240 C.3   397  PHE397      0.0574
    138  CG        38.3100   33.3790   28.1760 C.ar  397  PHE397     -0.0200
    139  CD1       39.6380   32.9900   28.3020 C.ar  397  PHE397     -0.0042
    140  CD2       37.3420   32.4040   28.1090 C.ar  397  PHE397     -0.0042
    141  CE1       39.9840   31.6430   28.3540 C.ar  397  PHE397     -0.0003
    142  CE2       37.6770   31.0640   28.1670 C.ar  397  PHE397     -0.0003
    143  CZ        39.0010   30.6770   28.2920 C.ar  397  PHE397     -0.0000
    144  N         36.1860   37.1420   25.8100 N.am  398  GLY398     -0.1940
    145  CA        35.5600   38.4870   25.7890 C.3   398  GLY398      0.2014
    146  C         34.4380   38.6250   26.8170 C.2   398  GLY398      0.2639
    147  O         34.6230   39.2260   27.9010 O.2   398  GLY398     -0.2714
    148  N         33.2850   38.0410   26.4770 N.am  399  GLY399     -0.1954
    149  CA        32.1490   37.9570   27.3860 C.3   399  GLY399      0.1869
    150  C         32.4950   37.2340   28.6720 C.2   399  GLY399      0.2309
    151  O         31.9930   37.6050   29.7380 O.2   399  GLY399     -0.2863
@<TRIPOS>BOND
     1    56    55    2
     2    55    54    1
     3    54    57    1
     4    54    53    1
     5    57    58    1
     6    46    45    2
     7    59    58    1
     8    59    60    1
     9    45    53   am
    10    45    44    1
    11    62    61    1
    12    60    61    2
    13    61    63    1
    14    43    44    1
    15    49    51   ar
    16    49    48   ar
    17    44    47    1
    18    67    66    2
    19    37    36    2
    20    51    52   ar
    21    47    48    1
    22    39    38    1
    23    39    40    1
    24    48    50   ar
    25    38    35    1
    26    36    35    1
    27    66    65    1
    28    64    65    1
    29    52    50   ar
    30    35    34    1
    31    68    65    1
    32    68    69    1
    33    94    92    1
    34    40    41   ar
    35    40    42   ar
    36    69    71   ar
    37    69    70   ar
    38    71    73   ar
    39    74    75    1
    40    89    88    1
    41    89    90    2
    42    34    28   am
    43    91    92    1
    44    91    88    1
    45    92    93    1
    46    75    76    1
    47    88    87    1
    48    29    28    2
    49    70    72   ar
    50    73    72   ar
    51    28    27    1
    52    24    25    1
    53    24    23    1
    54    95    96    1
    55    98    97    2
    56    81    80    2
    57    76    77    2
    58    87    80   am
    59    33    31   ar
    60   101    99    1
    61    99    96    1
    62    99   100    1
    63    23    22    1
    64    27    30    1
    65    27    26    1
    66    80    79    1
    67    96    97    1
    68    30    31    1
    69    31    32   ar
    70    21    22    1
    71    21    18    1
    72   105   104    2
    73    20    19    2
    74    83    82    1
    75    83    84    1
    76    19    18    1
    77    85    86    1
    78    85    84    1
    79   106   103    1
    80   106   107    1
    81    79    82    1
    82    79    78    1
    83   102   103    1
    84   104   103    1
    85   104   108   am
    86    18    17    1
    87   109   108    1
    88   109   110    1
    89   132   130   am
    90     7     5    1
    91    16    15    1
    92   131   130    2
    93   111   110    2
    94     6     5    1
    95   130   129    1
    96   110   112   am
    97     5     2    1
    98    15    14    1
    99   112   113    1
   100   129   128    1
   101   128   125    1
   102    14    13    1
   103     2     1    1
   104     2     3    1
   105   113   114    1
   106   122   120    1
   107     3     4    2
   108   124   125    1
   109   114   115    2
   110   114   116   am
   111   125   126    1
   112   127   126    2
   113   123   121    1
   114    13    12    1
   115   121   120    1
   116   116   117    1
   117     9     8    1
   118     9    12    1
   119     9    10    1
   120   126   133   am
   121   120   117    1
   122    10    11    2
   123   117   118    1
   124   145   144    1
   125   145   146    1
   126   144   135   am
   127   133   134    1
   128   148   146   am
   129   148   149    1
   130   134   135    1
   131   134   137    1
   132   135   136    2
   133   146   147    2
   134   118   119    2
   135   149   150    1
   136   140   142   ar
   137   140   138   ar
   138   137   138    1
   139   142   143   ar
   140   138   139   ar
   141   143   141   ar
   142   139   141   ar
   143   150   151    2
