@<TRIPOS>MOLECULE
tmp/6ftnA00.pdb
 203 195 0 0 0
SMALL
GASTEIGER

@<TRIPOS>ATOM
      1  N         -5.3180  -50.3330   15.5580 N.3   561  MET561     -0.1245
      2  CA        -5.8720  -51.4530   16.3230 C.3   561  MET561      0.1570
      3  C         -6.7950  -52.3050   15.4520 C.2   561  MET561      0.2261
      4  O         -7.3210  -51.8350   14.4450 O.2   561  MET561     -0.2867
      5  CB        -6.6100  -50.9420   17.5660 C.3   561  MET561      0.0387
      6  CG        -5.6710  -50.5360   18.6950 C.3   561  MET561      0.0595
      7  SD        -6.3220  -49.2540   19.7870 S.3   561  MET561     -0.1393
      8  CE        -6.1770  -47.8220   18.7280 C.3   561  MET561      0.0692
      9  N         -9.7880  -53.6520   15.9370 N.3   563  SER563     -0.1217
     10  CA       -11.2490  -53.5090   16.0180 C.3   563  SER563      0.1889
     11  C        -11.8490  -53.0080   14.7010 C.2   563  SER563      0.2288
     12  O        -11.1480  -52.4230   13.8750 O.2   563  SER563     -0.2866
     13  CB       -11.6390  -52.5780   17.1660 C.3   563  SER563      0.2089
     14  OG       -10.9870  -51.3280   17.0520 O.3   563  SER563     -0.2183
     15  N         -9.0610  -48.1100   14.5320 N.3   567  PRO567     -0.2116
     16  CA        -8.6340  -46.8210   15.0890 C.3   567  PRO567      0.1372
     17  C         -7.1170  -46.6360   15.0100 C.2   567  PRO567      0.2244
     18  O         -6.3620  -47.5900   15.2140 O.2   567  PRO567     -0.2868
     19  CB        -9.1100  -46.8630   16.5480 C.3   567  PRO567      0.0268
     20  CG        -9.8150  -48.1630   16.7450 C.3   567  PRO567      0.0207
     21  CD        -9.5760  -49.0330   15.5560 C.3   567  PRO567      0.0892
     22  N         -3.4020  -45.3920   16.0250 N.3   569  TRP569     -0.1241
     23  CA        -2.5780  -45.2000   17.2070 C.3   569  TRP569      0.1605
     24  C         -1.4470  -44.2560   16.8140 C.2   569  TRP569      0.2264
     25  O         -0.5540  -44.6510   16.0690 O.2   569  TRP569     -0.2867
     26  CB        -2.0220  -46.5590   17.6360 C.3   569  TRP569      0.0550
     27  CG        -1.1390  -46.5460   18.8340 C.ar  569  TRP569      0.0003
     28  CD1        0.1960  -46.2610   18.8710 C.ar  569  TRP569      0.0946
     29  CD2       -1.5160  -46.8840   20.1700 C.ar  569  TRP569      0.0152
     30  NE1        0.6680  -46.3780   20.1560 N.ar  569  TRP569     -0.2442
     31  CE2       -0.3630  -46.7590   20.9730 C.ar  569  TRP569      0.0810
     32  CE3       -2.7200  -47.2690   20.7700 C.ar  569  TRP569      0.0012
     33  CZ2       -0.3770  -47.0110   22.3420 C.ar  569  TRP569      0.0191
     34  CZ3       -2.7360  -47.5110   22.1300 C.ar  569  TRP569      0.0001
     35  CH2       -1.5700  -47.3850   22.9010 C.ar  569  TRP569      0.0015
     36  N         -5.4010  -41.6800   20.1520 N.3   586  ILE586     -0.1245
     37  CA        -6.1130  -42.6030   19.2920 C.3   586  ILE586      0.1561
     38  C         -7.1690  -41.8210   18.5270 C.2   586  ILE586      0.2260
     39  O         -7.9400  -41.0730   19.1220 O.2   586  ILE586     -0.2867
     40  CB        -6.7570  -43.7440   20.1020 C.3   586  ILE586      0.0252
     41  CG1       -5.6710  -44.7210   20.5620 C.3   586  ILE586      0.0019
     42  CG2       -7.8060  -44.4790   19.2760 C.3   586  ILE586      0.0019
     43  CD1       -6.0760  -45.6010   21.7210 C.3   586  ILE586      0.0001
     44  N        -10.4130  -42.3470   16.2350 N.3   588  LYS588     -0.1245
     45  CA       -11.4220  -43.3360   15.8830 C.3   588  LYS588      0.1561
     46  C        -12.5580  -42.7000   15.0970 C.2   588  LYS588      0.2260
     47  O        -13.1590  -41.7240   15.5460 O.2   588  LYS588     -0.2867
     48  CB       -11.9750  -44.0220   17.1290 C.3   588  LYS588      0.0271
     49  CG       -12.9240  -45.1640   16.7870 C.3   588  LYS588      0.0035
     50  CD       -12.8610  -46.3110   17.7810 C.3   588  LYS588      0.0206
     51  CE       -14.0280  -46.3110   18.7450 C.3   588  LYS588      0.1093
     52  NZ       -14.1160  -47.6240   19.4420 N.3   588  LYS588     -0.1314
     53  N        -19.6740  -42.1410   19.3510 N.3   593  LEU593     -0.1245
     54  CA       -18.9070  -42.1690   20.5970 C.3   593  LEU593      0.1561
     55  C        -19.5900  -41.4170   21.7390 C.2   593  LEU593      0.2260
     56  O        -19.1340  -41.4850   22.8770 O.2   593  LEU593     -0.2867
     57  CB       -17.5220  -41.5600   20.3650 C.3   593  LEU593      0.0270
     58  CG       -16.7000  -42.1320   19.2090 C.3   593  LEU593      0.0019
     59  CD1      -15.3700  -41.4020   19.0990 C.3   593  LEU593      0.0001
     60  CD2      -16.4840  -43.6290   19.3740 C.3   593  LEU593      0.0001
     61  N        -20.4640  -43.2170   25.1670 N.3   596  ASP596     -0.1225
     62  CA       -19.2500  -43.5940   25.8930 C.3   596  ASP596      0.1805
     63  C        -18.5260  -42.3620   26.4480 C.2   596  ASP596      0.2597
     64  O        -17.9410  -42.4160   27.5310 O.2   596  ASP596     -0.2718
     65  CB       -18.3050  -44.3970   24.9940 C.3   596  ASP596      0.1424
     66  CG       -18.8400  -45.7850   24.6580 C.2   596  ASP596      0.3668
     67  OD1      -19.4490  -46.4380   25.5330 O.co2 596  ASP596     -0.2456
     68  OD2      -18.6380  -46.2300   23.5090 O.co2 596  ASP596     -0.2456
     69  N        -18.5720  -41.2580   25.7030 N.am  597  MET597     -0.1979
     70  CA       -17.9760  -39.9930   26.1440 C.3   597  MET597      0.1605
     71  C        -18.6850  -39.4740   27.3930 C.2   597  MET597      0.2287
     72  O        -18.0450  -38.9500   28.3030 O.2   597  MET597     -0.2864
     73  CB       -18.0630  -38.9370   25.0380 C.3   597  MET597      0.0413
     74  CG       -17.3620  -39.3140   23.7410 C.3   597  MET597      0.0598
     75  SD       -15.7680  -38.5160   23.5130 S.3   597  MET597     -0.1393
     76  CE       -15.2100  -39.3060   22.0050 C.3   597  MET597      0.0692
     77  N        -17.6480  -41.7260   30.4410 N.3   600  LEU600     -0.1245
     78  CA       -16.3160  -41.3670   30.9230 C.3   600  LEU600      0.1561
     79  C        -16.3270  -40.0620   31.7150 C.2   600  LEU600      0.2260
     80  O        -15.6550  -39.9560   32.7420 O.2   600  LEU600     -0.2867
     81  CB       -15.3280  -41.2860   29.7570 C.3   600  LEU600      0.0270
     82  CG       -14.9710  -42.6510   29.1650 C.3   600  LEU600      0.0019
     83  CD1      -14.5090  -42.5190   27.7240 C.3   600  LEU600      0.0001
     84  CD2      -13.9150  -43.3410   30.0190 C.3   600  LEU600      0.0001
     85  N         -8.9460  -40.8800   31.5580 N.3   622  TYR622     -0.1241
     86  CA        -8.2220  -40.5560   30.3280 C.3   622  TYR622      0.1605
     87  C         -9.0730  -39.6760   29.4230 C.2   622  TYR622      0.2264
     88  O        -10.2920  -39.8300   29.3590 O.2   622  TYR622     -0.2867
     89  CB        -7.7660  -41.8170   29.5780 C.3   622  TYR622      0.0534
     90  CG        -8.8720  -42.7850   29.2240 C.ar  622  TYR622     -0.0201
     91  CD1       -9.6450  -42.6050   28.0790 C.ar  622  TYR622     -0.0009
     92  CD2       -9.1360  -43.8930   30.0250 C.ar  622  TYR622     -0.0009
     93  CE1      -10.6550  -43.4910   27.7510 C.ar  622  TYR622      0.0417
     94  CE2      -10.1480  -44.7840   29.7040 C.ar  622  TYR622      0.0417
     95  CZ       -10.9010  -44.5810   28.5670 C.ar  622  TYR622      0.1957
     96  OH       -11.9080  -45.4640   28.2460 O.3   622  TYR622     -0.2866
     97  N        -10.9740  -37.9070   26.3860 N.3   624  CYS624     -0.1235
     98  CA       -11.8290  -38.4060   25.3290 C.3   624  CYS624      0.1677
     99  C        -12.6410  -37.2240   24.8110 C.2   624  CYS624      0.2270
    100  O        -13.2270  -36.4860   25.6060 O.2   624  CYS624     -0.2867
    101  CB       -12.7450  -39.4970   25.8730 C.3   624  CYS624      0.0956
    102  SG       -13.3440  -40.6320   24.6110 S.3   624  CYS624     -0.0801
    103  N         -9.0000  -40.1240   21.5600 N.3   634  ILE634     -0.1231
    104  CA        -8.8620  -40.7410   22.8690 C.3   634  ILE634      0.1692
    105  C         -7.4040  -40.6180   23.3050 C.2   634  ILE634      0.2592
    106  O         -6.4880  -40.8740   22.5150 O.2   634  ILE634     -0.2718
    107  CB        -9.2500  -42.2320   22.8290 C.3   634  ILE634      0.0266
    108  CG1      -10.5340  -42.4200   22.0120 C.3   634  ILE634      0.0019
    109  CG2       -9.4020  -42.7790   24.2420 C.3   634  ILE634      0.0020
    110  CD1      -10.8840  -43.8560   21.7320 C.3   634  ILE634      0.0001
    111  N         -7.1980  -40.2220   24.5570 N.am  635  GLU635     -0.1966
    112  CA        -5.8630  -40.1540   25.1400 C.3   635  GLU635      0.1733
    113  C         -5.3690  -41.5700   25.4070 C.2   635  GLU635      0.2616
    114  O         -6.0410  -42.3480   26.0810 O.2   635  GLU635     -0.2715
    115  CB        -5.8990  -39.3740   26.4530 C.3   635  GLU635      0.0429
    116  CG        -4.5630  -39.2840   27.1750 C.3   635  GLU635      0.1163
    117  CD        -4.6650  -38.6130   28.5290 C.2   635  GLU635      0.3649
    118  OE1       -5.7910  -38.4580   29.0480 O.co2 635  GLU635     -0.2457
    119  OE2       -3.6090  -38.2380   29.0760 O.co2 635  GLU635     -0.2457
    120  N         -4.1970  -41.8980   24.8790 N.am  636  VAL636     -0.1963
    121  CA        -3.5910  -43.2030   25.1190 C.3   636  VAL636      0.1727
    122  C         -3.0780  -43.2860   26.5550 C.2   636  VAL636      0.2616
    123  O         -2.3970  -42.3790   27.0240 O.2   636  VAL636     -0.2715
    124  CB        -2.4220  -43.4580   24.1460 C.3   636  VAL636      0.0290
    125  CG1       -1.5750  -44.6400   24.5950 C.3   636  VAL636      0.0023
    126  CG2       -2.9480  -43.6790   22.7370 C.3   636  VAL636      0.0023
    127  N         -3.4180  -44.3690   27.2480 N.am  637  VAL637     -0.1963
    128  CA        -2.7950  -44.6840   28.5290 C.3   637  VAL637      0.1727
    129  C         -1.6390  -45.6450   28.2470 C.2   637  VAL637      0.2616
    130  O         -1.8570  -46.7990   27.8660 O.2   637  VAL637     -0.2715
    131  CB        -3.7890  -45.3130   29.5250 C.3   637  VAL637      0.0290
    132  CG1       -3.0780  -45.6960   30.8190 C.3   637  VAL637      0.0023
    133  CG2       -4.9340  -44.3500   29.8140 C.3   637  VAL637      0.0023
    134  N         -0.4140  -45.1550   28.4130 N.am  638  LEU638     -0.1963
    135  CA         0.7770  -45.9400   28.1070 C.3   638  LEU638      0.1728
    136  C          1.0930  -46.9050   29.2400 C.2   638  LEU638      0.2616
    137  O          0.5750  -46.7670   30.3500 O.2   638  LEU638     -0.2715
    138  CB         1.9770  -45.0230   27.8600 C.3   638  LEU638      0.0311
    139  CG         1.8560  -44.0620   26.6760 C.3   638  LEU638      0.0022
    140  CD1        2.9250  -42.9820   26.7510 C.3   638  LEU638      0.0001
    141  CD2        1.9330  -44.8110   25.3540 C.3   638  LEU638      0.0001
    142  N          1.9460  -47.8830   28.9430 N.am  639  HIS639     -0.1959
    143  CA         2.3870  -48.8660   29.9280 C.3   639  HIS639      0.1787
    144  C          1.1830  -49.5750   30.5500 C.2   639  HIS639      0.2620
    145  O          1.0290  -49.6280   31.7720 O.2   639  HIS639     -0.2715
    146  CB         3.2630  -48.1960   30.9970 C.3   639  HIS639      0.0785
    147  CG         4.3490  -47.3350   30.4290 C.ar  639  HIS639      0.0821
    148  ND1        4.3980  -45.9720   30.6230 N.ar  639  HIS639     -0.2267
    149  CD2        5.4160  -47.6420   29.6530 C.ar  639  HIS639      0.1154
    150  CE1        5.4530  -45.4770   30.0000 C.ar  639  HIS639      0.1986
    151  NE2        6.0860  -46.4700   29.4020 N.ar  639  HIS639     -0.2212
    152  N          0.3220  -50.0970   29.6790 N.am  640  SER640     -0.1950
    153  CA        -0.8640  -50.8330   30.0920 C.3   640  SER640      0.1924
    154  C         -1.1870  -51.9100   29.0650 C.2   640  SER640      0.2314
    155  O         -0.7230  -51.8590   27.9300 O.2   640  SER640     -0.2863
    156  CB        -2.0590  -49.8870   30.2590 C.3   640  SER640      0.2116
    157  OG        -2.4250  -49.2850   29.0300 O.3   640  SER640     -0.2180
    158  N         -8.5340  -52.8130   31.0020 N.3   709  MET709     -0.1245
    159  CA        -7.0880  -52.7210   30.8940 C.3   709  MET709      0.1570
    160  C         -6.4800  -52.5000   32.2680 C.2   709  MET709      0.2261
    161  O         -7.1520  -52.0350   33.1900 O.2   709  MET709     -0.2867
    162  CB        -6.6910  -51.5820   29.9530 C.3   709  MET709      0.0387
    163  CG        -7.1840  -51.7700   28.5240 C.3   709  MET709      0.0595
    164  SD        -6.2600  -50.8140   27.3030 S.3   709  MET709     -0.1393
    165  CE        -4.7220  -51.7280   27.2550 C.3   709  MET709      0.0692
    166  N         -8.6300  -49.9070   34.5590 N.3   717  PHE717     -0.1241
    167  CA        -9.5720  -48.9810   33.9120 C.3   717  PHE717      0.1605
    168  C        -10.2910  -49.6280   32.7270 C.2   717  PHE717      0.2264
    169  O         -9.8740  -50.6820   32.2390 O.2   717  PHE717     -0.2867
    170  CB        -8.8710  -47.6830   33.4850 C.3   717  PHE717      0.0534
    171  CG        -7.8080  -47.8700   32.4380 C.ar  717  PHE717     -0.0203
    172  CD1       -6.5120  -48.2210   32.7960 C.ar  717  PHE717     -0.0042
    173  CD2       -8.0960  -47.6710   31.0940 C.ar  717  PHE717     -0.0042
    174  CE1       -5.5300  -48.3860   31.8320 C.ar  717  PHE717     -0.0003
    175  CE2       -7.1200  -47.8330   30.1280 C.ar  717  PHE717     -0.0003
    176  CZ        -5.8360  -48.1930   30.4960 C.ar  717  PHE717     -0.0000
    177  N        -12.1670  -49.5510   28.8070 N.3   719  ILE719     -0.1231
    178  CA       -11.9940  -48.9790   27.4610 C.3   719  ILE719      0.1692
    179  C        -13.1760  -49.2130   26.5090 C.2   719  ILE719      0.2592
    180  O        -13.1090  -48.8580   25.3330 O.2   719  ILE719     -0.2718
    181  CB       -10.6980  -49.4870   26.7890 C.3   719  ILE719      0.0266
    182  CG1      -10.7080  -51.0150   26.6570 C.3   719  ILE719      0.0019
    183  CG2       -9.4820  -49.0220   27.5740 C.3   719  ILE719      0.0020
    184  CD1       -9.6660  -51.5500   25.6990 C.3   719  ILE719      0.0001
    185  N        -14.2450  -49.8200   27.0090 N.am  720  ASP720     -0.1960
    186  CA       -15.4840  -49.9560   26.2480 C.3   720  ASP720      0.1840
    187  C        -16.6060  -50.2430   27.2290 C.2   720  ASP720      0.2622
    188  O        -16.3710  -50.8570   28.2680 O.2   720  ASP720     -0.2715
    189  CB       -15.3790  -51.0830   25.2130 C.3   720  ASP720      0.1450
    190  CG       -16.5320  -51.0800   24.2240 C.2   720  ASP720      0.3671
    191  OD1      -16.8430  -50.0070   23.6640 O.co2 720  ASP720     -0.2456
    192  OD2      -17.1280  -52.1530   24.0020 O.co2 720  ASP720     -0.2456
    193  N        -17.8120  -49.7870   26.9090 N.am  721  PHE721     -0.1974
    194  CA       -18.9610  -49.9510   27.7980 C.3   721  PHE721      0.1639
    195  C        -20.0600  -50.7320   27.0320 C.2   721  PHE721      0.2290
    196  O        -19.9150  -51.9480   26.9200 O.2   721  PHE721     -0.2864
    197  CB       -19.3510  -48.5930   28.3970 C.3   721  PHE721      0.0560
    198  CG       -18.2010  -47.8700   29.0530 C.ar  721  PHE721     -0.0200
    199  CD1      -17.8420  -48.1450   30.3660 C.ar  721  PHE721     -0.0042
    200  CD2      -17.4720  -46.9160   28.3510 C.ar  721  PHE721     -0.0042
    201  CE1      -16.7850  -47.4790   30.9670 C.ar  721  PHE721     -0.0003
    202  CE2      -16.4140  -46.2490   28.9450 C.ar  721  PHE721     -0.0003
    203  CZ       -16.0690  -46.5300   30.2550 C.ar  721  PHE721     -0.0000
@<TRIPOS>BOND
     1    12    11    2
     2     4     3    2
     3    15    16    1
     4    15    21    1
     5    11    10    1
     6    17    16    1
     7    17    18    2
     8    16    19    1
     9    46    47    2
    10    46    45    1
    11     3     2    1
    12    21    20    1
    13     1     2    1
    14    45    44    1
    15    45    48    1
    16     9    10    1
    17    10    13    1
    18    22    23    1
    19    25    24    2
    20     2     5    1
    21    19    20    1
    22    49    48    1
    23    49    50    1
    24    24    23    1
    25    14    13    1
    26    23    26    1
    27     5     6    1
    28    26    27    1
    29    50    51    1
    30    38    39    2
    31    38    37    1
    32     6     7    1
    33     8     7    1
    34    51    52    1
    35    27    28   ar
    36    27    29   ar
    37    28    30   ar
    38    59    58    1
    39    58    60    1
    40    58    57    1
    41    42    40    1
    42    37    40    1
    43    37    36    1
    44    53    54    1
    45    40    41    1
    46    30    31   ar
    47    29    32   ar
    48    29    31   ar
    49    57    54    1
    50    41    43    1
    51    54    55    1
    52    32    34   ar
    53    31    33   ar
    54   103   104    1
    55   110   108    1
    56    55    56    2
    57    76    75    1
    58   108   107    1
    59    34    35   ar
    60    33    35   ar
    61   106   105    2
    62   126   124    1
    63   107   104    1
    64   107   109    1
    65   104   105    1
    66   105   111   am
    67    68    66   ar
    68    75    74    1
    69   191   190   ar
    70    74    73    1
    71   192   190   ar
    72   124   125    1
    73   124   121    1
    74   190   189    1
    75   111   112    1
    76   102   101    1
    77    66    65    1
    78    66    67   ar
    79    99    98    1
    80    99   100    2
    81   120   121    1
    82   120   113   am
    83    65    62    1
    84    73    70    1
    85   121   122    1
    86   112   113    1
    87   112   115    1
    88    61    62    1
    89   189   186    1
    90    98   101    1
    91    98    97    1
    92   180   179    2
    93   141   139    1
    94   113   114    2
    95   184   182    1
    96    69    70    1
    97    69    63   am
    98    62    63    1
    99    70    71    1
   100   186   185    1
   101   186   187    1
   102    63    64    2
   103   115   116    1
   104   179   185   am
   105   179   178    1
   106   122   123    2
   107   122   127   am
   108   182   181    1
   109   139   140    1
   110   139   138    1
   111   181   178    1
   112   181   183    1
   113   193   187   am
   114   193   194    1
   115   196   195    2
   116   195   194    1
   117   116   117    1
   118   187   188    2
   119   127   128    1
   120   165   164    1
   121   164   163    1
   122    71    72    2
   123   178   177    1
   124    83    82    1
   125    93    91   ar
   126    93    95   ar
   127   194   197    1
   128   138   135    1
   129   130   129    2
   130   155   154    2
   131    91    90   ar
   132   135   134    1
   133   135   136    1
   134    96    95    1
   135   129   134   am
   136   129   128    1
   137   200   202   ar
   138   200   198   ar
   139   197   198    1
   140   163   162    1
   141   128   131    1
   142   117   118   ar
   143   117   119   ar
   144    95    94   ar
   145   142   136   am
   146   142   143    1
   147   202   203   ar
   148   157   156    1
   149   198   199   ar
   150   154   153    1
   151    82    81    1
   152    82    84    1
   153    90    89    1
   154    90    92   ar
   155   136   137    2
   156    88    87    2
   157   151   149   ar
   158   151   150   ar
   159    87    86    1
   160   131   133    1
   161   131   132    1
   162    89    86    1
   163   149   147   ar
   164   152   153    1
   165   152   144   am
   166    94    92   ar
   167    81    78    1
   168   143   144    1
   169   143   146    1
   170   162   159    1
   171   150   148   ar
   172   153   156    1
   173   175   176   ar
   174   175   173   ar
   175   203   201   ar
   176    86    85    1
   177   199   201   ar
   178   147   148   ar
   179   147   146    1
   180    77    78    1
   181   176   174   ar
   182   144   145    2
   183   159   158    1
   184   159   160    1
   185    78    79    1
   186   173   171   ar
   187    79    80    2
   188   174   172   ar
   189   169   168    2
   190   160   161    2
   191   171   172   ar
   192   171   170    1
   193   168   167    1
   194   170   167    1
   195   167   166    1
