@<TRIPOS>MOLECULE
tmp/6ftpA00.pdb
 114 108 0 0 0
SMALL
GASTEIGER

@<TRIPOS>ATOM
      1  N        -28.7930   11.4110    1.8210 N.3     6  VAL6       -0.1245
      2  CA       -28.2440   10.9150    3.0810 C.3     6  VAL6        0.1561
      3  C        -28.6610   11.8000    4.2540 C.2     6  VAL6        0.2260
      4  O        -28.9990   11.2920    5.3280 O.2     6  VAL6       -0.2867
      5  CB       -26.7100   10.7870    2.9750 C.3     6  VAL6        0.0252
      6  CG1      -26.0930   10.4510    4.3220 C.3     6  VAL6        0.0019
      7  CG2      -26.3270    9.7310    1.9400 C.3     6  VAL6        0.0019
      8  N        -13.5710   -5.2050    6.2310 N.3   204  PRO204     -0.2116
      9  CA       -13.2810   -3.8460    6.7010 C.3   204  PRO204      0.1372
     10  C        -13.8010   -3.6580    8.1160 C.2   204  PRO204      0.2244
     11  O        -14.9010   -4.0960    8.4590 O.2   204  PRO204     -0.2868
     12  CB       -14.0140   -2.9540    5.6980 C.3   204  PRO204      0.0268
     13  CG       -14.1320   -3.8010    4.4690 C.3   204  PRO204      0.0207
     14  CD       -14.3220   -5.1980    4.9640 C.3   204  PRO204      0.0892
     15  N        -17.9390   -3.8320    7.7110 N.3   217  GLN217     -0.1245
     16  CA       -18.5590   -3.7910    6.3960 C.3   217  GLN217      0.1566
     17  C        -18.6040   -5.2140    5.8710 C.2   217  GLN217      0.2260
     18  O        -17.5630   -5.7840    5.5310 O.2   217  GLN217     -0.2867
     19  CB       -17.7870   -2.8720    5.4530 C.3   217  GLN217      0.0367
     20  CG       -18.4490   -2.6210    4.1020 C.3   217  GLN217      0.0905
     21  CD       -17.6170   -1.6950    3.2250 C.2   217  GLN217      0.2608
     22  OE1      -16.4350   -1.4780    3.4910 O.2   217  GLN217     -0.2717
     23  NE2      -18.2310   -1.1380    2.1860 N.am  217  GLN217     -0.0878
     24  N        -18.6970   -6.3610    1.0070 N.3   220  TYR220     -0.1227
     25  CA       -18.2300   -5.0660    0.5140 C.3   220  TYR220      0.1736
     26  C        -17.8640   -4.8690   -0.9230 C.2   220  TYR220      0.2596
     27  O        -17.6940   -3.7570   -1.3540 O.2   220  TYR220     -0.2718
     28  CB       -17.0730   -4.5740    1.3440 C.3   220  TYR220      0.0548
     29  CG       -15.9280   -5.4770    1.1870 C.ar  220  TYR220     -0.0200
     30  CD1      -15.8510   -6.6070    1.9220 C.ar  220  TYR220     -0.0009
     31  CD2      -14.9620   -5.2520    0.2410 C.ar  220  TYR220     -0.0009
     32  CE1      -14.8320   -7.4880    1.7760 C.ar  220  TYR220      0.0417
     33  CE2      -13.9360   -6.1380    0.0780 C.ar  220  TYR220      0.0417
     34  CZ       -13.9030   -7.2660    0.8510 C.ar  220  TYR220      0.1957
     35  OH       -12.9030   -8.1560    0.7490 O.3   220  TYR220     -0.2866
     36  N        -17.7110   -5.9490   -1.6460 N.am  221  THR221     -0.1939
     37  CA       -17.3370   -5.8350   -3.0290 C.3   221  THR221      0.2028
     38  C        -18.5590   -5.5960   -3.8450 C.2   221  THR221      0.2642
     39  O        -19.6660   -5.8440   -3.4050 O.2   221  THR221     -0.2714
     40  CB       -16.7000   -7.1260   -3.5730 C.3   221  THR221      0.1808
     41  OG1      -17.6620   -8.1600   -3.5720 O.3   221  THR221     -0.2208
     42  CG2      -15.5600   -7.5620   -2.7650 C.3   221  THR221      0.0379
     43  N        -18.3440   -5.0870   -5.0460 N.am  222  GLY222     -0.1954
     44  CA       -19.4270   -4.8730   -5.9760 C.3   222  GLY222      0.1869
     45  C        -20.2320   -3.5960   -5.9610 C.2   222  GLY222      0.2309
     46  O        -19.7540   -2.5380   -5.6430 O.2   222  GLY222     -0.2863
     47  N        -23.0280   -2.6490   -0.4880 N.3   225  SER225     -0.1217
     48  CA       -22.4340   -3.1750    0.7270 C.3   225  SER225      0.1889
     49  C        -23.2600   -2.8240    1.9770 C.2   225  SER225      0.2288
     50  O        -24.0710   -1.9610    1.9470 O.2   225  SER225     -0.2866
     51  CB       -21.0100   -2.6830    0.8920 C.3   225  SER225      0.2089
     52  OG       -20.9540   -1.3050    1.0070 O.3   225  SER225     -0.2183
     53  N        -24.1230   12.6310    8.0130 N.3   245  GLN245     -0.1245
     54  CA       -23.2800   12.3540    6.8560 C.3   245  GLN245      0.1566
     55  C        -21.8010   12.4000    7.2280 C.2   245  GLN245      0.2260
     56  O        -21.0180   11.5510    6.7860 O.2   245  GLN245     -0.2867
     57  CB       -23.5780   13.3340    5.7290 C.3   245  GLN245      0.0367
     58  CG       -22.4850   13.3750    4.7000 C.3   245  GLN245      0.0905
     59  CD       -22.9030   14.1520    3.4960 C.2   245  GLN245      0.2608
     60  OE1      -23.6060   13.6250    2.6270 O.2   245  GLN245     -0.2717
     61  NE2      -22.5070   15.4210    3.4360 N.am  245  GLN245     -0.0878
     62  N        -20.8840    9.2470    9.1140 N.3   248  LEU248     -0.1231
     63  CA       -20.8660    8.1240    8.1830 C.3   248  LEU248      0.1693
     64  C        -19.6250    8.1740    7.3000 C.2   248  LEU248      0.2592
     65  O        -19.0050    7.1400    7.0240 O.2   248  LEU248     -0.2718
     66  CB       -22.1380    8.1240    7.3270 C.3   248  LEU248      0.0284
     67  CG       -22.3360    6.9570    6.3570 C.3   248  LEU248      0.0019
     68  CD1      -22.3690    5.6160    7.0910 C.3   248  LEU248      0.0001
     69  CD2      -23.5980    7.1360    5.5310 C.3   248  LEU248      0.0001
     70  N        -19.2490    9.3730    6.8470 N.am  249  SER249     -0.1952
     71  CA       -18.0150    9.5130    6.0790 C.3   249  SER249      0.1924
     72  C        -16.8170    9.0510    6.8920 C.2   249  SER249      0.2314
     73  O        -16.0050    8.2470    6.4220 O.2   249  SER249     -0.2863
     74  CB       -17.8180   10.9600    5.6260 C.3   249  SER249      0.2116
     75  OG       -16.5790   11.0940    4.9450 O.3   249  SER249     -0.2180
     76  N        -16.6410    5.2660    7.1150 N.3   252  PHE252     -0.1227
     77  CA       -16.1010    4.6410    5.9080 C.3   252  PHE252      0.1736
     78  C        -14.6080    4.9110    5.7670 C.2   252  PHE252      0.2595
     79  O        -13.8280    4.0000    5.4630 O.2   252  PHE252     -0.2718
     80  CB       -16.8430    5.1410    4.6600 C.3   252  PHE252      0.0547
     81  CG       -18.1330    4.4150    4.3750 C.ar  252  PHE252     -0.0202
     82  CD1      -18.1300    3.0960    3.9530 C.ar  252  PHE252     -0.0042
     83  CD2      -19.3480    5.0610    4.5140 C.ar  252  PHE252     -0.0042
     84  CE1      -19.3080    2.4350    3.6870 C.ar  252  PHE252     -0.0003
     85  CE2      -20.5300    4.4060    4.2440 C.ar  252  PHE252     -0.0003
     86  CZ       -20.5110    3.0900    3.8330 C.ar  252  PHE252     -0.0000
     87  N        -14.1920    6.1660    5.9730 N.am  253  GLU253     -0.1979
     88  CA       -12.7840    6.5140    5.7970 C.3   253  GLU253      0.1602
     89  C        -11.8990    5.8070    6.8160 C.2   253  GLU253      0.2287
     90  O        -10.7370    5.5090    6.5190 O.2   253  GLU253     -0.2864
     91  CB       -12.5790    8.0310    5.8910 C.3   253  GLU253      0.0415
     92  CG       -13.3830    8.8800    4.8970 C.3   253  GLU253      0.1163
     93  CD       -13.2470    8.4260    3.4460 C.2   253  GLU253      0.3649
     94  OE1      -14.2480    8.5150    2.6980 O.co2 253  GLU253     -0.2457
     95  OE2      -12.1440    7.9890    3.0480 O.co2 253  GLU253     -0.2457
     96  N        -12.3370    2.7660    7.9960 N.3   255  LEU255     -0.1245
     97  CA       -12.3550    1.3160    7.8650 C.3   255  LEU255      0.1561
     98  C        -11.0140    0.8020    7.3580 C.2   255  LEU255      0.2260
     99  O        -10.3910    1.4020    6.4790 O.2   255  LEU255     -0.2867
    100  CB       -13.4590    0.8750    6.9080 C.3   255  LEU255      0.0270
    101  CG       -14.9190    1.0250    7.3320 C.3   255  LEU255      0.0019
    102  CD1      -15.8110    0.8320    6.1110 C.3   255  LEU255      0.0001
    103  CD2      -15.2970    0.0400    8.4510 C.3   255  LEU255      0.0001
    104  N         -9.0190   -3.2330    6.6130 N.3   257  PHE257     -0.1241
    105  CA        -9.1830   -4.6780    6.5840 C.3   257  PHE257      0.1605
    106  C         -8.5900   -5.3030    7.8370 C.2   257  PHE257      0.2264
    107  O         -7.5310   -4.8910    8.3180 O.2   257  PHE257     -0.2867
    108  CB        -8.5210   -5.2570    5.3400 C.3   257  PHE257      0.0534
    109  CG        -9.4120   -5.2770    4.1400 C.ar  257  PHE257     -0.0203
    110  CD1       -9.1990   -4.4040    3.0880 C.ar  257  PHE257     -0.0042
    111  CD2      -10.4640   -6.1710    4.0620 C.ar  257  PHE257     -0.0042
    112  CE1      -10.0190   -4.4240    1.9800 C.ar  257  PHE257     -0.0003
    113  CE2      -11.2860   -6.1960    2.9520 C.ar  257  PHE257     -0.0003
    114  CZ       -11.0620   -5.3200    1.9120 C.ar  257  PHE257     -0.0000
@<TRIPOS>BOND
     1    44    45    1
     2    44    43    1
     3    45    46    2
     4    43    38   am
     5    38    39    2
     6    38    37    1
     7    40    41    1
     8    40    37    1
     9    40    42    1
    10    37    36    1
    11    36    26   am
    12    27    26    2
    13    26    25    1
    14    47    48    1
    15    33    31   ar
    16    33    34   ar
    17    31    29   ar
    18    25    24    1
    19    25    28    1
    20    48    51    1
    21    48    49    1
    22    35    34    1
    23    34    32   ar
    24    51    52    1
    25    29    28    1
    26    29    30   ar
    27    32    30   ar
    28     1     2    1
    29   114   112   ar
    30   114   113   ar
    31     7     5    1
    32    50    49    2
    33   112   110   ar
    34    23    21   am
    35    60    59    2
    36    94    93   ar
    37   113   111   ar
    38     5     2    1
    39     5     6    1
    40    95    93   ar
    41     2     3    1
    42   110   109   ar
    43    21    22    2
    44    21    20    1
    45    61    59   am
    46    93    92    1
    47    59    58    1
    48    84    86   ar
    49    84    82   ar
    50    86    85   ar
    51    82    81   ar
    52   111   109   ar
    53    20    19    1
    54   109   108    1
    55    85    83   ar
    56     3     4    2
    57    81    83   ar
    58    81    80    1
    59    13    14    1
    60    13    12    1
    61    80    77    1
    62    58    57    1
    63    92    91    1
    64    75    74    1
    65    14     8    1
    66   108   105    1
    67    19    16    1
    68    79    78    2
    69    18    17    2
    70    69    67    1
    71    74    71    1
    72    12     9    1
    73    57    54    1
    74    78    77    1
    75    78    87   am
    76    88    91    1
    77    88    87    1
    78    88    89    1
    79    17    16    1
    80    77    76    1
    81    71    70    1
    82    71    72    1
    83   102   101    1
    84     8     9    1
    85    67    68    1
    86    67    66    1
    87    16    15    1
    88    73    72    2
    89    99    98    2
    90    90    89    2
    91   105   104    1
    92   105   106    1
    93     9    10    1
    94    56    55    2
    95    70    64   am
    96    54    55    1
    97    54    53    1
    98   100   101    1
    99   100    97    1
   100    65    64    2
   101    64    63    1
   102    66    63    1
   103   101   103    1
   104    98    97    1
   105   106   107    2
   106    97    96    1
   107    10    11    2
   108    63    62    1
