@<TRIPOS>MOLECULE
tmp/6ftsA00.pdb
 141 133 0 0 0
SMALL
GASTEIGER

@<TRIPOS>ATOM
      1  N         18.9930   28.5420   28.0860 N.3    59  LEU59      -0.1231
      2  CA        18.6030   28.7320   29.5180 C.3    59  LEU59       0.1693
      3  C         17.1720   28.3530   29.7640 C.2    59  LEU59       0.2591
      4  O         16.8710   27.7690   30.7800 O.2    59  LEU59      -0.2718
      5  CB        18.8110   30.1630   29.9560 C.3    59  LEU59       0.0284
      6  CG        20.2680   30.6230   29.8930 C.3    59  LEU59       0.0019
      7  CD1       20.4600   31.8860   30.6950 C.3    59  LEU59       0.0001
      8  CD2       21.3090   29.5870   30.3910 C.3    59  LEU59       0.0001
      9  N         16.2660   28.7060   28.8560 N.am   60  ALA60      -0.1980
     10  CA        14.8660   28.2930   29.0270 C.3    60  ALA60       0.1597
     11  C         14.7070   26.7730   29.0890 C.2    60  ALA60       0.2287
     12  O         13.8960   26.2580   29.8620 O.2    60  ALA60      -0.2864
     13  CB        13.9680   28.8810   27.9440 C.3    60  ALA60       0.0319
     14  N         18.1640   25.5850   32.1740 N.3    63  HIS63      -0.1241
     15  CA        18.5970   26.2530   33.4020 C.3    63  HIS63       0.1621
     16  C         17.3680   26.1870   34.2620 C.2    63  HIS63       0.2264
     17  O         16.6730   27.1680   34.4190 O.2    63  HIS63      -0.2867
     18  CB        19.0630   27.6860   33.1310 C.3    63  HIS63       0.0745
     19  CG        19.4630   28.4550   34.3510 C.ar   63  HIS63       0.0817
     20  ND1       19.9480   27.8610   35.4930 N.ar   63  HIS63      -0.2268
     21  CD2       19.4930   29.7920   34.5890 C.ar   63  HIS63       0.1154
     22  CE1       20.2390   28.7900   36.3890 C.ar   63  HIS63       0.1986
     23  NE2       19.9400   29.9680   35.8760 N.ar   63  HIS63      -0.2212
     24  N         16.5810   28.3930   38.3280 N.3    66  SER66      -0.1217
     25  CA        16.7330   29.8080   38.2330 C.3    66  SER66       0.1889
     26  C         16.0070   30.4790   39.3440 C.2    66  SER66       0.2288
     27  O         16.1740   31.6640   39.5040 O.2    66  SER66      -0.2866
     28  CB        16.2150   30.3130   36.8690 C.3    66  SER66       0.2089
     29  OG        14.9370   29.7750   36.5520 O.3    66  SER66      -0.2183
     30  N         20.3720   28.8030   47.4140 N.3    77  PHE77      -0.1227
     31  CA        19.8720   29.2410   46.1490 C.3    77  PHE77       0.1736
     32  C         21.0100   29.5900   45.1560 C.2    77  PHE77       0.2595
     33  O         21.0380   29.0430   44.0300 O.2    77  PHE77      -0.2718
     34  CB        18.8660   30.4010   46.2470 C.3    77  PHE77       0.0547
     35  CG        18.6110   31.0460   44.9240 C.ar   77  PHE77      -0.0202
     36  CD1       18.0340   30.3160   43.9180 C.ar   77  PHE77      -0.0042
     37  CD2       18.9520   32.3750   44.6840 C.ar   77  PHE77      -0.0042
     38  CE1       17.8330   30.8930   42.6650 C.ar   77  PHE77      -0.0003
     39  CE2       18.7150   32.9910   43.4530 C.ar   77  PHE77      -0.0003
     40  CZ        18.1860   32.2300   42.4410 C.ar   77  PHE77      -0.0000
     41  N         21.9080   30.4860   45.5560 N.am   78  LEU78      -0.1980
     42  CA        23.0500   30.8140   44.7110 C.3    78  LEU78       0.1596
     43  C         23.8400   29.5960   44.2990 C.2    78  LEU78       0.2287
     44  O         24.2710   29.5140   43.1490 O.2    78  LEU78      -0.2864
     45  CB        23.9840   31.8100   45.3790 C.3    78  LEU78       0.0297
     46  CG        23.4410   33.1820   45.7100 C.3    78  LEU78       0.0022
     47  CD1       24.5320   33.9520   46.4130 C.3    78  LEU78       0.0001
     48  CD2       23.0180   33.9020   44.4630 C.3    78  LEU78       0.0001
     49  N         21.7370   27.6320   41.7210 N.3    81  ALA81      -0.1231
     50  CA        21.4840   28.3860   40.5190 C.3    81  ALA81       0.1694
     51  C         22.7790   28.4310   39.7070 C.2    81  ALA81       0.2591
     52  O         22.7610   28.3730   38.4720 O.2    81  ALA81      -0.2718
     53  CB        20.9620   29.7850   40.8650 C.3    81  ALA81       0.0304
     54  N         23.9070   28.4610   40.4170 N.am   82  ALA82      -0.1980
     55  CA        25.2290   28.4480   39.7850 C.3    82  ALA82       0.1597
     56  C         25.4610   27.1130   39.1380 C.2    82  ALA82       0.2287
     57  O         25.9050   27.0330   37.9970 O.2    82  ALA82      -0.2864
     58  CB        26.3490   28.8020   40.7560 C.3    82  ALA82       0.0319
     59  N         23.1770   26.8790   36.0250 N.3    85  PHE85      -0.1241
     60  CA        23.6740   27.7790   35.0120 C.3    85  PHE85       0.1605
     61  C         24.8880   27.1160   34.3330 C.2    85  PHE85       0.2264
     62  O         24.9490   27.0690   33.0780 O.2    85  PHE85      -0.2867
     63  CB        24.0370   29.1470   35.6420 C.3    85  PHE85       0.0534
     64  CG        24.5690   30.1890   34.6600 C.ar   85  PHE85      -0.0203
     65  CD1       23.9170   30.4510   33.4540 C.ar   85  PHE85      -0.0042
     66  CD2       25.6860   30.9570   34.9700 C.ar   85  PHE85      -0.0042
     67  CE1       24.3280   31.4690   32.6070 C.ar   85  PHE85      -0.0003
     68  CE2       26.1470   31.9420   34.0970 C.ar   85  PHE85      -0.0003
     69  CZ        25.4630   32.2270   32.9170 C.ar   85  PHE85      -0.0000
     70  N         26.0830   32.3310   25.0920 N.3    99  HIS99      -0.1241
     71  CA        25.5090   33.1500   26.1470 C.3    99  HIS99       0.1621
     72  C         26.0480   34.5800   26.2750 C.2    99  HIS99       0.2264
     73  O         25.2700   35.5400   26.4700 O.2    99  HIS99      -0.2867
     74  CB        25.7150   32.4920   27.4800 C.3    99  HIS99       0.0745
     75  CG        25.0810   33.2520   28.5840 C.ar   99  HIS99       0.0817
     76  ND1       23.7220   33.2770   28.7760 N.ar   99  HIS99      -0.2268
     77  CD2       25.6110   34.0490   29.5400 C.ar   99  HIS99       0.1154
     78  CE1       23.4340   34.0690   29.7980 C.ar   99  HIS99       0.1986
     79  NE2       24.5680   34.5490   30.2760 N.ar   99  HIS99      -0.2212
     80  N         11.5250   37.8090   29.9080 N.3   107  LYS107     -0.1231
     81  CA        11.3730   36.6830   30.8340 C.3   107  LYS107      0.1693
     82  C         12.5650   36.5660   31.7780 C.2   107  LYS107      0.2591
     83  O         12.4500   36.3870   32.9750 O.2   107  LYS107     -0.2718
     84  CB        11.2590   35.3970   30.0200 C.3   107  LYS107      0.0285
     85  CG        10.0440   34.5370   30.3180 C.3   107  LYS107      0.0035
     86  CD         9.4350   33.9780   29.0250 C.3   107  LYS107      0.0206
     87  CE         8.8490   32.5840   29.2300 C.3   107  LYS107      0.1093
     88  NZ         8.0990   32.4410   30.5150 N.3   107  LYS107     -0.1314
     89  N         13.7370   36.6550   31.2110 N.am  108  GLN108     -0.1979
     90  CA        14.9440   36.6910   32.0060 C.3   108  GLN108      0.1601
     91  C         14.9360   37.8710   33.0020 C.2   108  GLN108      0.2287
     92  O         15.5270   37.7990   34.1050 O.2   108  GLN108     -0.2864
     93  CB        16.1390   36.7750   31.0830 C.3   108  GLN108      0.0394
     94  CG        16.1750   35.6100   30.0880 C.3   108  GLN108      0.0908
     95  CD        17.5500   35.3630   29.5550 C.2   108  GLN108      0.2608
     96  OE1       17.8420   34.2860   29.0250 O.2   108  GLN108     -0.2717
     97  NE2       18.4250   36.3620   29.7080 N.am  108  GLN108     -0.0878
     98  N         12.5540   36.9650   35.7280 N.3   111  THR111     -0.1203
     99  CA        13.2100   35.9610   36.5250 C.3   111  THR111      0.1994
    100  C         14.3110   36.6320   37.3320 C.2   111  THR111      0.2617
    101  O         14.4510   36.3430   38.5360 O.2   111  THR111     -0.2717
    102  CB        13.7560   34.7920   35.6710 C.3   111  THR111      0.1784
    103  OG1       12.6540   34.0270   35.2150 O.3   111  THR111     -0.2211
    104  CG2       14.6870   33.8550   36.4860 C.3   111  THR111      0.0376
    105  N         15.0490   37.5490   36.7090 N.am  112  VAL112     -0.1979
    106  CA        16.1350   38.2120   37.4120 C.3   112  VAL112      0.1595
    107  C         15.5090   39.0760   38.4940 C.2   112  VAL112      0.2287
    108  O         16.0880   39.2140   39.5640 O.2   112  VAL112     -0.2864
    109  CB        17.1070   39.0150   36.4920 C.3   112  VAL112      0.0276
    110  CG1       17.9630   39.9990   37.2990 C.3   112  VAL112      0.0022
    111  CG2       18.0570   38.0520   35.7450 C.3   112  VAL112      0.0022
    112  N         14.7230   37.0890   41.5040 N.3   115  GLN115     -0.1245
    113  CA        15.9720   36.7460   42.1420 C.3   115  GLN115      0.1566
    114  C         16.4700   37.8890   42.9870 C.2   115  GLN115      0.2260
    115  O         16.9200   37.6440   44.0650 O.2   115  GLN115     -0.2867
    116  CB        17.0540   36.3760   41.1020 C.3   115  GLN115      0.0367
    117  CG        16.7180   35.1400   40.2830 C.3   115  GLN115      0.0905
    118  CD        17.8260   34.7950   39.2870 C.2   115  GLN115      0.2608
    119  OE1       18.7120   35.5850   39.0470 O.2   115  GLN115     -0.2717
    120  NE2       17.7760   33.6080   38.7390 N.am  115  GLN115     -0.0878
    121  N         24.9490   38.2210   42.8260 N.3   133  ILE133     -0.1245
    122  CA        24.4510   37.5520   41.6030 C.3   133  ILE133      0.1561
    123  C         25.4260   37.7740   40.4610 C.2   133  ILE133      0.2260
    124  O         25.7600   36.8620   39.8090 O.2   133  ILE133     -0.2867
    125  CB        23.0090   38.0270   41.2130 C.3   133  ILE133      0.0252
    126  CG1       21.9980   37.5710   42.2430 C.3   133  ILE133      0.0019
    127  CG2       22.5620   37.4860   39.8250 C.3   133  ILE133      0.0019
    128  CD1       20.7500   38.3670   42.1520 C.3   133  ILE133      0.0001
    129  N         28.6430   35.6210   41.0090 N.3   136  VAL136     -0.1231
    130  CA        28.4050   34.2080   40.7010 C.3   136  VAL136      0.1692
    131  C         28.3580   33.9620   39.2180 C.2   136  VAL136      0.2592
    132  O         28.9150   32.9920   38.7020 O.2   136  VAL136     -0.2718
    133  CB        27.0830   33.7200   41.3680 C.3   136  VAL136      0.0266
    134  CG1       26.7060   32.3250   40.8890 C.3   136  VAL136      0.0020
    135  CG2       27.2300   33.7240   42.8600 C.3   136  VAL136      0.0020
    136  N         27.6700   34.8430   38.5190 N.am  137  SER137     -0.1952
    137  CA        27.5170   34.7100   37.1150 C.3   137  SER137      0.1924
    138  C         28.8520   34.8440   36.3870 C.2   137  SER137      0.2314
    139  O         29.2110   33.9930   35.5620 O.2   137  SER137     -0.2863
    140  CB        26.5250   35.7890   36.6630 C.3   137  SER137      0.2116
    141  OG        26.3270   35.6060   35.2820 O.3   137  SER137     -0.2180
@<TRIPOS>BOND
     1    70    71    1
     2    71    72    1
     3    71    74    1
     4    72    73    2
     5    74    75    1
     6    13    10    1
     7     1     2    1
     8    75    76   ar
     9    75    77   ar
    10    76    78   ar
    11     9    10    1
    12     9     3   am
    13    96    95    2
    14    86    87    1
    15    86    85    1
    16    10    11    1
    17    11    12    2
    18    87    88    1
    19     2     3    1
    20     2     5    1
    21    77    79   ar
    22    95    97   am
    23    95    94    1
    24     3     4    2
    25    78    79   ar
    26     6     5    1
    27     6     8    1
    28     6     7    1
    29    80    81    1
    30    84    85    1
    31    84    81    1
    32    94    93    1
    33    81    82    1
    34    93    90    1
    35    89    82   am
    36    89    90    1
    37    82    83    2
    38    90    91    1
    39    14    15    1
    40    67    69   ar
    41    67    65   ar
    42    69    68   ar
    43    91    92    2
    44    62    61    2
    45    18    15    1
    46    18    19    1
    47    15    16    1
    48    65    64   ar
    49    68    66   ar
    50    16    17    2
    51    61    60    1
    52    19    21   ar
    53    19    20   ar
    54    21    23   ar
    55    64    66   ar
    56    64    63    1
    57    60    63    1
    58    60    59    1
    59   103   102    1
    60   141   140    1
    61    20    22   ar
    62   139   138    2
    63   102   104    1
    64   102    99    1
    65    98    99    1
    66   111   109    1
    67    23    22   ar
    68   138   137    1
    69   109   110    1
    70   109   106    1
    71    99   100    1
    72    29    28    1
    73   140   137    1
    74   105   100   am
    75   105   106    1
    76    28    25    1
    77   137   136    1
    78   100   101    2
    79   106   107    1
    80    57    56    2
    81    25    24    1
    82    25    26    1
    83    52    51    2
    84   107   108    2
    85   136   131   am
    86   132   131    2
    87   120   118   am
    88   119   118    2
    89    56    55    1
    90   131   130    1
    91   118   117    1
    92    26    27    2
    93    51    54   am
    94    51    50    1
    95    55    54    1
    96    55    58    1
    97   124   123    2
    98   127   125    1
    99   117   116    1
   100   123   122    1
   101    50    53    1
   102    50    49    1
   103   130   129    1
   104   130   133    1
   105   134   133    1
   106   116   113    1
   107   125   122    1
   108   125   126    1
   109   133   135    1
   110   112   113    1
   111   122   121    1
   112   113   114    1
   113   128   126    1
   114    40    38   ar
   115    40    39   ar
   116    38    36   ar
   117   114   115    2
   118    44    43    2
   119    39    37   ar
   120    36    35   ar
   121    33    32    2
   122    43    42    1
   123    48    46    1
   124    37    35   ar
   125    42    45    1
   126    42    41    1
   127    35    34    1
   128    32    41   am
   129    32    31    1
   130    45    46    1
   131    46    47    1
   132    31    34    1
   133    31    30    1
