@<TRIPOS>MOLECULE
tmp/6ftyA00.pdb
 132 128 0 0 0
SMALL
GASTEIGER

@<TRIPOS>ATOM
      1  N         13.8750   10.0740    8.0720 N.3    25  LEU25      -0.1231
      2  CA        13.2420   10.4500    6.8190 C.3    25  LEU25       0.1693
      3  C         12.7420    9.2140    6.1240 C.2    25  LEU25       0.2592
      4  O         11.5720    9.1430    5.7510 O.2    25  LEU25      -0.2718
      5  CB        14.2660   11.1710    5.9160 C.3    25  LEU25       0.0284
      6  CG        13.8260   11.5930    4.5180 C.3    25  LEU25       0.0019
      7  CD1       12.6700   12.5820    4.5700 C.3    25  LEU25       0.0001
      8  CD2       15.0020   12.2130    3.7460 C.3    25  LEU25       0.0001
      9  N         13.6210    8.2220    6.0030 N.am   26  CYS26      -0.1970
     10  CA        13.3170    6.9700    5.2870 C.3    26  CYS26       0.1712
     11  C         13.9470    5.8040    5.9450 C.2    26  CYS26       0.2296
     12  O         14.9370    5.9530    6.6550 O.2    26  CYS26      -0.2864
     13  CB        13.8460    7.0780    3.8600 C.3    26  CYS26       0.0983
     14  SG        12.7440    7.9610    2.7420 S.3    26  CYS26      -0.0798
     15  N         13.4300    8.7750   -4.1200 N.3    41  HIS41      -0.1226
     16  CA        12.5670    9.9480   -3.7820 C.3    41  HIS41       0.1752
     17  C         12.9190   10.5370   -2.3940 C.2    41  HIS41       0.2596
     18  O         12.7020   11.7270   -2.1630 O.2    41  HIS41      -0.2718
     19  CB        11.0370    9.6810   -3.8550 C.3    41  HIS41       0.0759
     20  CG        10.4570    9.2440   -5.1700 C.ar   41  HIS41       0.0818
     21  ND1       10.6790    9.9560   -6.3420 N.ar   41  HIS41      -0.2268
     22  CD2        9.5670    8.2500   -5.4330 C.ar   41  HIS41       0.1154
     23  CE1        9.9440    9.3700   -7.2750 C.ar   41  HIS41       0.1986
     24  NE2        9.2590    8.3360   -6.7790 N.ar   41  HIS41      -0.2212
     25  N         13.4970    9.7110   -1.5000 N.am   42  CYS42      -0.1970
     26  CA        13.9540   10.1320   -0.1560 C.3    42  CYS42       0.1712
     27  C         14.8780   11.3340   -0.2180 C.2    42  CYS42       0.2296
     28  O         14.7350   12.2440    0.5960 O.2    42  CYS42      -0.2864
     29  CB        14.6420    8.9810    0.5700 C.3    42  CYS42       0.0983
     30  SG        13.5520    7.5910    0.9260 S.3    42  CYS42      -0.0798
     31  N         15.1620   13.4870   -2.6640 N.3    44  GLU44      -0.1245
     32  CA        14.5920   14.6310   -3.3860 C.3    44  GLU44       0.1567
     33  C         14.3850   15.7930   -2.4470 C.2    44  GLU44       0.2260
     34  O         13.8780   15.6160   -1.3230 O.2    44  GLU44      -0.2867
     35  CB        13.2350   14.3060   -3.9960 C.3    44  GLU44       0.0388
     36  CG        13.2780   13.5720   -5.3070 C.3    44  GLU44       0.1160
     37  CD        11.8970   13.1350   -5.7400 C.2    44  GLU44       0.3649
     38  OE1       10.8840   13.6020   -5.1700 O.co2  44  GLU44      -0.2457
     39  OE2       11.8350   12.2890   -6.6490 O.co2  44  GLU44      -0.2457
     40  N          4.8900    6.1410   10.0220 N.3   130  ILE130     -0.1245
     41  CA         3.6720    6.4200   10.8040 C.3   130  ILE130      0.1561
     42  C          2.9080    5.1260   11.1180 C.2   130  ILE130      0.2260
     43  O          2.9680    4.1620   10.3470 O.2   130  ILE130     -0.2867
     44  CB         2.7790    7.5280   10.2070 C.3   130  ILE130      0.0252
     45  CG1        2.0980    7.0690    8.8930 C.3   130  ILE130      0.0019
     46  CG2        3.5960    8.8460   10.0170 C.3   130  ILE130      0.0019
     47  CD1        1.0180    8.0260    8.3490 C.3   130  ILE130      0.0001
     48  N          3.0000   -0.9360    4.8390 N.3   178  SER178     -0.1202
     49  CA         4.0530    0.0250    5.0880 C.3   178  SER178      0.2020
     50  C          3.3750    1.3880    4.8710 C.2   178  SER178      0.2619
     51  O          2.3370    1.4660    4.2280 O.2   178  SER178     -0.2717
     52  CB         5.2100   -0.1750    4.1210 C.3   178  SER178      0.2103
     53  OG         4.7840    0.0380    2.7870 O.3   178  SER178     -0.2182
     54  N          3.8980    2.4350    5.4660 N.am  179  CYS179     -0.1955
     55  CA         3.2570    3.7370    5.3230 C.3   179  CYS179      0.1843
     56  C          4.3040    4.8260    5.2050 C.2   179  CYS179      0.2625
     57  O          5.4450    4.4890    4.9290 O.2   179  CYS179     -0.2714
     58  CB         2.2890    3.9820    6.4750 C.3   179  CYS179      0.0997
     59  SG         0.9940    5.1880    6.1010 S.3   179  CYS179     -0.0797
     60  N          3.9180    6.1020    5.3500 N.am  180  LYS180     -0.1963
     61  CA         4.7780    7.2920    5.2740 C.3   180  LYS180      0.1728
     62  C          5.9370    7.1660    6.2670 C.2   180  LYS180      0.2616
     63  O          5.6780    6.8760    7.4350 O.2   180  LYS180     -0.2715
     64  CB         3.9580    8.5570    5.5840 C.3   180  LYS180      0.0311
     65  CG         4.6380    9.8180    5.0650 C.3   180  LYS180      0.0038
     66  CD         4.9650   10.8310    6.0960 C.3   180  LYS180      0.0206
     67  CE         5.9030   11.8210    5.4350 C.3   180  LYS180      0.1093
     68  NZ         6.3900   12.8620    6.3680 N.3   180  LYS180     -0.1314
     69  N          7.1730    7.2780    5.7660 N.am  181  GLY181     -0.1955
     70  CA         8.3990    7.1000    6.5490 C.3   181  GLY181      0.1869
     71  C          8.9910    5.6930    6.5070 C.2   181  GLY181      0.2309
     72  O         10.0890    5.4900    7.0330 O.2   181  GLY181     -0.2863
     73  N          9.2100    4.1390    3.5110 N.3   183  SER183     -0.1217
     74  CA         9.8520    4.2880    2.2050 C.3   183  SER183      0.1889
     75  C         11.3580    4.0400    2.2520 C.2   183  SER183      0.2288
     76  O         12.0180    4.5040    3.1830 O.2   183  SER183     -0.2866
     77  CB         9.5930    5.7060    1.7220 C.3   183  SER183      0.2089
     78  OG         8.1960    5.8780    1.5770 O.3   183  SER183     -0.2183
     79  N         10.9290   -0.7140   -0.2380 N.3   197  VAL197     -0.1231
     80  CA         9.6530    0.0000   -0.2180 C.3   197  VAL197      0.1692
     81  C          9.7510    1.2200   -1.1500 C.2   197  VAL197      0.2593
     82  O         10.6790    2.0150   -1.0080 O.2   197  VAL197     -0.2718
     83  CB         9.2980    0.4320    1.2370 C.3   197  VAL197      0.0266
     84  CG1        7.9400    1.1150    1.3200 C.3   197  VAL197      0.0020
     85  CG2        9.3550   -0.7590    2.1970 C.3   197  VAL197      0.0020
     86  N          8.7990    1.3720   -2.0840 N.am  198  THR198     -0.1939
     87  CA         8.8430    2.5480   -2.9580 C.3   198  THR198      0.2028
     88  C          8.5620    3.8110   -2.1030 C.2   198  THR198      0.2643
     89  O          7.9440    3.7280   -1.0230 O.2   198  THR198     -0.2714
     90  CB         7.8840    2.4100   -4.1380 C.3   198  THR198      0.1808
     91  OG1        6.5560    2.2810   -3.6290 O.3   198  THR198     -0.2208
     92  CG2        8.2680    1.2520   -5.0880 C.3   198  THR198      0.0379
     93  N          9.1440    4.9420   -2.5160 N.am  199  SER199     -0.1935
     94  CA         9.0120    6.1830   -1.7650 C.3   199  SER199      0.2055
     95  C          7.9620    7.1550   -2.3480 C.2   199  SER199      0.2644
     96  O          7.9060    8.3170   -1.9610 O.2   199  SER199     -0.2714
     97  CB        10.3580    6.8590   -1.5810 C.3   199  SER199      0.2130
     98  OG        10.8960    7.0950   -2.8640 O.3   199  SER199     -0.2179
     99  N          7.1240    6.6570   -3.2390 N.am  200  GLY200     -0.1939
    100  CA         6.0080    7.4280   -3.7640 C.3   200  GLY200      0.2014
    101  C          4.8840    7.3780   -2.7530 C.2   200  GLY200      0.2640
    102  O          4.5850    6.3000   -2.2150 O.2   200  GLY200     -0.2714
    103  N          4.2840    8.5560   -2.4450 N.am  201  SER201     -0.1935
    104  CA         3.1570    8.6850   -1.5150 C.3   201  SER201      0.2055
    105  C          2.0190    7.7780   -1.9950 C.2   201  SER201      0.2643
    106  O          1.6600    7.7980   -3.1720 O.2   201  SER201     -0.2714
    107  CB         2.7030   10.1460   -1.4280 C.3   201  SER201      0.2130
    108  OG         3.7500   10.9740   -0.9380 O.3   201  SER201     -0.2179
    109  N          1.5480    6.9130   -1.1260 N.am  202  ARG202     -0.1963
    110  CA         0.5070    5.9480   -1.4170 C.3   202  ARG202      0.1729
    111  C         -0.3600    5.7850   -0.2090 C.2   202  ARG202      0.2616
    112  O          0.1330    5.8350    0.9170 O.2   202  ARG202     -0.2715
    113  CB         1.1330    4.5950   -1.8390 C.3   202  ARG202      0.0348
    114  CG         0.1550    3.4240   -2.0180 C.3   202  ARG202      0.0492
    115  CD         0.8260    2.0570   -2.2000 C.3   202  ARG202      0.2205
    116  NE         1.7100    1.7200   -1.0920 N.pl3 202  ARG202     -0.0865
    117  CZ         1.3320    1.0750    0.0080 C.cat 202  ARG202      0.5346
    118  NH1        0.1070    0.5800    0.1080 N.pl3 202  ARG202      0.1354
    119  NH2        2.1910    0.8830    0.9970 N.pl3 202  ARG202      0.1354
    120  N         -1.6520    5.5460   -0.4260 N.am  203  VAL203     -0.1963
    121  CA        -2.5780    5.3110    0.6750 C.3   203  VAL203      0.1727
    122  C         -2.1300    4.0390    1.4320 C.2   203  VAL203      0.2616
    123  O         -1.6490    3.0870    0.7890 O.2   203  VAL203     -0.2715
    124  CB        -4.0590    5.2930    0.1890 C.3   203  VAL203      0.0290
    125  CG1       -4.3610    4.0910   -0.7090 C.3   203  VAL203      0.0023
    126  CG2       -5.0370    5.3780    1.3540 C.3   203  VAL203      0.0023
    127  N         -2.1890    4.0570    2.7830 N.am  204  CYS204     -0.1968
    128  CA        -1.7630    2.9030    3.5730 C.3   204  CYS204      0.1712
    129  C         -2.9190    2.1460    4.1770 C.2   204  CYS204      0.2296
    130  O         -3.8620    2.7530    4.7060 O.2   204  CYS204     -0.2864
    131  CB        -0.7460    3.2810    4.6520 C.3   204  CYS204      0.0983
    132  SG         0.2930    4.7060    4.2550 S.3   204  CYS204     -0.0798
@<TRIPOS>BOND
     1    23    24   ar
     2    23    21   ar
     3    24    22   ar
     4    39    37   ar
     5    21    20   ar
     6    37    36    1
     7    37    38   ar
     8    22    20   ar
     9    36    35    1
    10    20    19    1
    11    92    90    1
    12    90    91    1
    13    90    87    1
    14    15    16    1
    15    35    32    1
    16    19    16    1
    17    16    17    1
    18   100    99    1
    19   100   101    1
    20    32    31    1
    21    32    33    1
    22    99    95   am
    23   106   105    2
    24    87    88    1
    25    87    86    1
    26    98    97    1
    27   101   103   am
    28   101   102    2
    29    93    88   am
    30    93    94    1
    31    33    34    2
    32   103   104    1
    33    17    18    2
    34    17    25   am
    35    95    96    2
    36    95    94    1
    37   115   114    1
    38   115   116    1
    39    88    89    2
    40    86    81   am
    41   114   113    1
    42   105   104    1
    43   105   109   am
    44   113   110    1
    45    94    97    1
    46   104   107    1
    47    25    26    1
    48   107   108    1
    49   110   109    1
    50   110   111    1
    51    81    82    2
    52    81    80    1
    53   116   117    2
    54   125   124    1
    55   120   111   am
    56   120   121    1
    57    79    80    1
    58    80    83    1
    59    27    26    1
    60    27    28    2
    61   111   112    2
    62    26    29    1
    63   117   118    1
    64   117   119    1
    65   124   121    1
    66   124   126    1
    67    29    30    1
    68   121   122    1
    69   123   122    2
    70    30    14    1
    71    83    84    1
    72    83    85    1
    73   122   127   am
    74    78    77    1
    75    77    74    1
    76    74    75    1
    77    74    73    1
    78    75    76    2
    79    14    13    1
    80   127   128    1
    81    53    52    1
    82   128   129    1
    83   128   131    1
    84     8     6    1
    85    13    10    1
    86    52    49    1
    87   129   130    2
    88    51    50    2
    89   132   131    1
    90   132    59    1
    91     6     7    1
    92     6     5    1
    93    48    49    1
    94    50    49    1
    95    50    54   am
    96    57    56    2
    97    65    64    1
    98    65    66    1
    99    56    55    1
   100    56    60   am
   101    61    60    1
   102    61    64    1
   103    61    62    1
   104    10    11    1
   105    10     9    1
   106    55    54    1
   107    55    58    1
   108    67    66    1
   109    67    68    1
   110     4     3    2
   111    69    62   am
   112    69    70    1
   113     5     2    1
   114    11    12    2
   115     9     3   am
   116    59    58    1
   117     3     2    1
   118    62    63    2
   119    71    70    1
   120    71    72    2
   121     2     1    1
   122    47    45    1
   123    45    44    1
   124    46    44    1
   125    40    41    1
   126    44    41    1
   127    43    42    2
   128    41    42    1
