@<TRIPOS>MOLECULE
tmp/6ftzA00.pdb
 127 124 0 0 0
SMALL
GASTEIGER

@<TRIPOS>ATOM
      1  N         13.5540    8.7420   -3.9900 N.3    41  HIS41      -0.1241
      2  CA        12.5560    9.7690   -3.6260 C.3    41  HIS41       0.1621
      3  C         12.8700   10.3490   -2.2290 C.2    41  HIS41       0.2264
      4  O         12.4670   11.4710   -1.9730 O.2    41  HIS41      -0.2867
      5  CB        11.1110    9.2090   -3.6360 C.3    41  HIS41       0.0745
      6  CG        10.4880    8.9640   -4.9890 C.ar   41  HIS41       0.0817
      7  ND1       10.6590    9.8500   -6.0530 N.ar   41  HIS41      -0.2268
      8  CD2        9.6250    7.9900   -5.3750 C.ar   41  HIS41       0.1154
      9  CE1        9.9150    9.3800   -7.0420 C.ar   41  HIS41       0.1986
     10  NE2        9.2900    8.2500   -6.6940 N.ar   41  HIS41      -0.2212
     11  N          0.2950   -2.3740    6.5640 N.3   177  ASP177     -0.1225
     12  CA         1.0090   -1.7640    5.4400 C.3   177  ASP177      0.1805
     13  C          2.2140   -0.9450    5.8780 C.2   177  ASP177      0.2598
     14  O          2.3240   -0.5440    7.0330 O.2   177  ASP177     -0.2718
     15  CB         0.0440   -0.8430    4.6650 C.3   177  ASP177      0.1424
     16  CG         0.3680   -0.5480    3.2100 C.2   177  ASP177      0.3668
     17  OD1        1.3400   -1.1540    2.6690 O.co2 177  ASP177     -0.2456
     18  OD2       -0.3620    0.2590    2.5970 O.co2 177  ASP177     -0.2456
     19  N          3.0750   -0.6310    4.9130 N.am  178  SER178     -0.1938
     20  CA         4.1800    0.2980    5.1050 C.3   178  SER178      0.2055
     21  C          3.5640    1.6380    4.7480 C.2   178  SER178      0.2643
     22  O          2.5820    1.6680    3.9900 O.2   178  SER178     -0.2714
     23  CB         5.3370   -0.0420    4.1750 C.3   178  SER178      0.2130
     24  OG         4.9250   -0.1040    2.8180 O.3   178  SER178     -0.2179
     25  N          4.0460    2.7340    5.3670 N.am  179  CYS179     -0.1953
     26  CA         3.4680    4.0530    5.1650 C.3   179  CYS179      0.1843
     27  C          4.5650    5.0980    5.1760 C.2   179  CYS179      0.2625
     28  O          5.7320    4.7260    5.1050 O.2   179  CYS179     -0.2714
     29  CB         2.4010    4.3230    6.2260 C.3   179  CYS179      0.0997
     30  SG         1.2740    5.6850    5.8330 S.3   179  CYS179     -0.0797
     31  N          4.2050    6.4010    5.2040 N.am  180  LYS180     -0.1963
     32  CA         5.1560    7.5180    5.1830 C.3   180  LYS180      0.1728
     33  C          6.2170    7.3530    6.2920 C.2   180  LYS180      0.2616
     34  O          5.8640    7.1500    7.4600 O.2   180  LYS180     -0.2715
     35  CB         4.4130    8.8480    5.3530 C.3   180  LYS180      0.0311
     36  CG         5.3350   10.0510    5.1990 C.3   180  LYS180      0.0038
     37  CD         4.6860   11.3510    5.5950 C.3   180  LYS180      0.0206
     38  CE         5.7370   12.4170    5.8360 C.3   180  LYS180      0.1093
     39  NZ         6.3080   12.9210    4.5580 N.3   180  LYS180     -0.1314
     40  N          7.4800    7.3940    5.8890 N.am  181  GLY181     -0.1955
     41  CA         8.6400    7.2340    6.7710 C.3   181  GLY181      0.1869
     42  C          9.1840    5.8240    6.6780 C.2   181  GLY181      0.2309
     43  O         10.2690    5.5490    7.1840 O.2   181  GLY181     -0.2863
     44  N          9.3720    4.3240    3.5330 N.3   183  SER183     -0.1217
     45  CA        10.0350    4.2930    2.2070 C.3   183  SER183      0.1889
     46  C         11.5480    4.0360    2.3400 C.2   183  SER183      0.2288
     47  O         12.1790    4.5300    3.2870 O.2   183  SER183     -0.2866
     48  CB         9.8220    5.6240    1.5070 C.3   183  SER183      0.2089
     49  OG         8.4390    5.8890    1.5040 O.3   183  SER183     -0.2183
     50  N         11.0160   -0.6530   -0.1990 N.3   197  VAL197     -0.1231
     51  CA         9.7670    0.0900   -0.1340 C.3   197  VAL197      0.1692
     52  C          9.8490    1.3190   -1.0020 C.2   197  VAL197      0.2593
     53  O         10.8310    2.0630   -0.9270 O.2   197  VAL197     -0.2718
     54  CB         9.4230    0.5030    1.3310 C.3   197  VAL197      0.0266
     55  CG1        8.0750    1.2060    1.3950 C.3   197  VAL197      0.0020
     56  CG2        9.4510   -0.7130    2.2670 C.3   197  VAL197      0.0020
     57  N          8.8040    1.5370   -1.8290 N.am  198  THR198     -0.1939
     58  CA         8.7160    2.7540   -2.6150 C.3   198  THR198      0.2028
     59  C          7.4580    3.5400   -2.1510 C.2   198  THR198      0.2642
     60  O          6.4580    2.9120   -1.7980 O.2   198  THR198     -0.2714
     61  CB         8.8500    2.5240   -4.1230 C.3   198  THR198      0.1808
     62  OG1        8.7970    3.7840   -4.7740 O.3   198  THR198     -0.2208
     63  CG2        7.7810    1.6390   -4.6940 C.3   198  THR198      0.0379
     64  N          7.5400    4.8950   -2.1000 N.am  199  SER199     -0.1949
     65  CA         6.4070    5.7960   -1.7740 C.3   199  SER199      0.1924
     66  C          5.7250    6.2470   -3.0760 C.2   199  SER199      0.2314
     67  O          5.0470    7.2780   -3.0770 O.2   199  SER199     -0.2863
     68  CB         6.8840    7.0340   -1.0260 C.3   199  SER199      0.2116
     69  OG         7.5460    7.9200   -1.9140 O.3   199  SER199     -0.2180
     70  N          3.1440    5.0320   -4.8580 N.3   201  SER201     -0.1202
     71  CA         1.7150    5.1340   -4.5790 C.3   201  SER201      0.2020
     72  C          1.6660    5.3720   -3.0540 C.2   201  SER201      0.2619
     73  O          2.0580    4.5090   -2.2590 O.2   201  SER201     -0.2717
     74  CB         0.9830    3.8580   -4.9700 C.3   201  SER201      0.2103
     75  OG        -0.4160    4.0450   -4.8230 O.3   201  SER201     -0.2182
     76  N          1.2570    6.5890   -2.6660 N.am  202  ARG202     -0.1965
     77  CA         1.3200    7.1140   -1.3060 C.3   202  ARG202      0.1729
     78  C          0.2750    6.6170   -0.3020 C.2   202  ARG202      0.2616
     79  O          0.5780    6.6160    0.8880 O.2   202  ARG202     -0.2715
     80  CB         1.2970    8.6450   -1.3580 C.3   202  ARG202      0.0348
     81  CG         2.3560    9.2050   -2.3060 C.3   202  ARG202      0.0492
     82  CD         2.7490   10.6360   -2.0060 C.3   202  ARG202      0.2205
     83  NE         4.0310   10.9580   -2.6330 N.pl3 202  ARG202     -0.0865
     84  CZ         4.3950   12.1710   -3.0360 C.cat 202  ARG202      0.5346
     85  NH1        3.5700   13.2010   -2.8950 N.pl3 202  ARG202      0.1354
     86  NH2        5.5810   12.3620   -3.5960 N.pl3 202  ARG202      0.1354
     87  N         -0.9260    6.2080   -0.7260 N.am  203  VAL203     -0.1963
     88  CA        -1.9550    5.7900    0.2430 C.3   203  VAL203      0.1727
     89  C         -1.5210    4.5590    1.0650 C.2   203  VAL203      0.2616
     90  O         -0.8700    3.6560    0.5220 O.2   203  VAL203     -0.2715
     91  CB        -3.3520    5.6210   -0.4150 C.3   203  VAL203      0.0290
     92  CG1       -3.3550    4.5250   -1.4680 C.3   203  VAL203      0.0023
     93  CG2       -4.4530    5.4000    0.6180 C.3   203  VAL203      0.0023
     94  N         -1.8440    4.5580    2.3890 N.am  204  CYS204     -0.1968
     95  CA        -1.5190    3.4520    3.2970 C.3   204  CYS204      0.1712
     96  C         -2.7620    2.7650    3.8360 C.2   204  CYS204      0.2296
     97  O         -3.7040    3.4510    4.2310 O.2   204  CYS204     -0.2864
     98  CB        -0.6330    3.9320    4.4430 C.3   204  CYS204      0.0983
     99  SG         0.5640    5.2160    3.9940 S.3   204  CYS204     -0.0798
    100  N         -5.0580   -0.6340   -3.1030 N.3   209  LYS209     -0.1231
    101  CA        -3.8060   -0.0060   -3.5180 C.3   209  LYS209      0.1678
    102  C         -2.6510   -0.7610   -2.8350 C.2   209  LYS209      0.2434
    103  O         -2.1720   -0.3270   -1.7760 O.2   209  LYS209     -0.2733
    104  CB        -3.7900    1.5140   -3.2660 C.3   209  LYS209      0.0284
    105  CG        -4.8710    2.3010   -4.0170 C.3   209  LYS209      0.0035
    106  CD        -4.5840    2.4220   -5.5010 C.3   209  LYS209      0.0206
    107  CE        -5.7180    3.1200   -6.2210 C.3   209  LYS209      0.1093
    108  NZ        -6.4190    2.2020   -7.1400 N.3   209  LYS209     -0.1314
    109  N         -2.2550   -1.9580   -3.3630 N.am  210  PRO210     -0.2718
    110  CA        -1.2070   -2.7450   -2.6740 C.3   210  PRO210      0.1535
    111  C          0.1010   -1.9770   -2.5100 C.2   210  PRO210      0.2599
    112  O          0.3670   -1.0420   -3.2500 O.2   210  PRO210     -0.2715
    113  CB        -0.9880   -3.9460   -3.6020 C.3   210  PRO210      0.0310
    114  CG        -2.2900   -4.0720   -4.3300 C.3   210  PRO210      0.0237
    115  CD        -2.7450   -2.6680   -4.5720 C.3   210  PRO210      0.0939
    116  N          0.9110   -2.4160   -1.5760 N.am  211  GLY211     -0.1941
    117  CA         2.2420   -1.8710   -1.3670 C.3   211  GLY211      0.2014
    118  C          3.1140   -2.1940   -2.5580 C.2   211  GLY211      0.2638
    119  O          3.0180   -3.2990   -3.1020 O.2   211  GLY211     -0.2714
    120  N          3.9320   -1.2150   -3.0020 N.am  212  ILE212     -0.1977
    121  CA         4.8250   -1.4180   -4.1620 C.3   212  ILE212      0.1596
    122  C          6.2700   -1.4580   -3.6400 C.2   212  ILE212      0.2287
    123  O          6.6430   -0.6130   -2.8300 O.2   212  ILE212     -0.2864
    124  CB         4.6040   -0.3370   -5.2530 C.3   212  ILE212      0.0276
    125  CG1        3.1290   -0.2730   -5.7170 C.3   212  ILE212      0.0022
    126  CG2        5.5250   -0.5590   -6.4360 C.3   212  ILE212      0.0022
    127  CD1        2.8630    0.8070   -6.8190 C.3   212  ILE212      0.0001
@<TRIPOS>BOND
     1   108   107    1
     2     9    10   ar
     3     9     7   ar
     4   127   125    1
     5    10     8   ar
     6   126   124    1
     7   107   106    1
     8     7     6   ar
     9   125   124    1
    10   106   105    1
    11     8     6   ar
    12   124   121    1
    13     6     5    1
    14    74    75    1
    15    74    71    1
    16    70    71    1
    17    62    61    1
    18    63    61    1
    19    71    72    1
    20   115   114    1
    21   115   109    1
    22   114   113    1
    23   121   122    1
    24   121   120    1
    25    61    58    1
    26   105   104    1
    27     1     2    1
    28   122   123    2
    29     5     2    1
    30     2     3    1
    31   113   110    1
    32    86    84    1
    33   101   104    1
    34   101   100    1
    35   101   102    1
    36   109   102   am
    37   109   110    1
    38   112   111    2
    39   119   118    2
    40    67    66    2
    41    66    65    1
    42    72    76   am
    43    72    73    2
    44    84    85    1
    45    84    83    2
    46   120   118   am
    47   102   103    2
    48   110   111    1
    49    76    77    1
    50    83    82    1
    51    58    59    1
    52    58    57    1
    53   118   117    1
    54   111   116   am
    55    81    82    1
    56    81    80    1
    57     3     4    2
    58    59    64   am
    59    59    60    2
    60    64    65    1
    61    69    68    1
    62    57    52   am
    63    65    68    1
    64   116   117    1
    65    92    91    1
    66    80    77    1
    67    77    78    1
    68    52    53    2
    69    52    51    1
    70    87    78   am
    71    87    88    1
    72    91    88    1
    73    91    93    1
    74    78    79    2
    75    50    51    1
    76    51    54    1
    77    88    89    1
    78    90    89    2
    79    89    94   am
    80    54    55    1
    81    54    56    1
    82    49    48    1
    83    48    45    1
    84    45    46    1
    85    45    44    1
    86    46    47    2
    87    94    95    1
    88    18    16   ar
    89    17    16   ar
    90    24    23    1
    91    16    15    1
    92    95    96    1
    93    95    98    1
    94    96    97    2
    95    22    21    2
    96    99    98    1
    97    99    30    1
    98    23    20    1
    99    39    38    1
   100    15    12    1
   101    21    20    1
   102    21    25   am
   103    19    20    1
   104    19    13   am
   105    28    27    2
   106    26    27    1
   107    26    25    1
   108    26    29    1
   109    27    31   am
   110    32    31    1
   111    32    35    1
   112    32    33    1
   113    36    35    1
   114    36    37    1
   115    12    13    1
   116    12    11    1
   117    37    38    1
   118    30    29    1
   119    13    14    2
   120    40    33   am
   121    40    41    1
   122    33    34    2
   123    42    41    1
   124    42    43    2
