@<TRIPOS>MOLECULE
tmp/6fu1A00.pdb
 145 144 0 0 0
SMALL
GASTEIGER

@<TRIPOS>ATOM
      1  N         53.9930   40.9100   86.9230 N.3    20  PHE20      -0.1241
      2  CA        54.7230   40.1670   87.9420 C.3    20  PHE20       0.1605
      3  C         55.8160   40.9840   88.6120 C.2    20  PHE20       0.2264
      4  O         56.4830   40.4700   89.5220 O.2    20  PHE20      -0.2867
      5  CB        55.2880   38.8780   87.3370 C.3    20  PHE20       0.0534
      6  CG        54.2230   37.8880   87.0090 C.ar   20  PHE20      -0.0203
      7  CD1       53.5980   37.1890   88.0210 C.ar   20  PHE20      -0.0042
      8  CD2       53.8030   37.6960   85.7060 C.ar   20  PHE20      -0.0042
      9  CE1       52.6070   36.2910   87.7430 C.ar   20  PHE20      -0.0003
     10  CE2       52.7980   36.7970   85.4200 C.ar   20  PHE20      -0.0003
     11  CZ        52.1930   36.0990   86.4420 C.ar   20  PHE20      -0.0000
     12  N         44.5210   41.4380   78.7550 N.3    99  ASP99      -0.1239
     13  CA        45.3140   40.8350   79.8280 C.3    99  ASP99       0.1674
     14  C         46.7680   40.5970   79.4390 C.2    99  ASP99       0.2266
     15  O         47.6220   40.4970   80.3260 O.2    99  ASP99      -0.2867
     16  CB        44.7040   39.5050   80.2710 C.3    99  ASP99       0.1410
     17  CG        43.3710   39.6770   80.9530 C.2    99  ASP99       0.3668
     18  OD1       43.2760   40.5120   81.8770 O.co2  99  ASP99      -0.2456
     19  OD2       42.4150   38.9830   80.5510 O.co2  99  ASP99      -0.2456
     20  N         57.5370   28.6300   83.6430 N.3   138  GLY138     -0.1210
     21  CA        56.2640   28.0090   83.9640 C.3   138  GLY138      0.1956
     22  C         55.0400   28.6340   83.3150 C.2   138  GLY138      0.2612
     23  O         53.9500   28.5560   83.8790 O.2   138  GLY138     -0.2717
     24  N         55.1810   29.2010   82.1110 N.am  139  TRP139     -0.1962
     25  CA        54.1080   29.9990   81.4970 C.3   139  TRP139      0.1771
     26  C         53.2140   29.1170   80.6210 C.2   139  TRP139      0.2620
     27  O         53.2040   29.1930   79.3860 O.2   139  TRP139     -0.2715
     28  CB        54.7270   31.1790   80.7520 C.3   139  TRP139      0.0590
     29  CG        55.6000   31.9150   81.7340 C.ar  139  TRP139      0.0006
     30  CD1       56.9700   31.9650   81.7310 C.ar  139  TRP139      0.0946
     31  CD2       55.1730   32.5890   82.9280 C.ar  139  TRP139      0.0152
     32  NE1       57.4140   32.6910   82.8270 N.ar  139  TRP139     -0.2442
     33  CE2       56.3310   33.0670   83.5800 C.ar  139  TRP139      0.0810
     34  CE3       53.9220   32.8590   83.4980 C.ar  139  TRP139      0.0012
     35  CZ2       56.2730   33.8090   84.7610 C.ar  139  TRP139      0.0191
     36  CZ3       53.8710   33.5780   84.6850 C.ar  139  TRP139      0.0001
     37  CH2       55.0450   34.0440   85.3020 C.ar  139  TRP139      0.0015
     38  N         52.3550   28.3440   81.3070 N.am  140  HIS140     -0.1959
     39  CA        51.6690   27.1900   80.7250 C.3   140  HIS140      0.1787
     40  C         50.5020   27.5490   79.8110 C.2   140  HIS140      0.2620
     41  O         49.9840   26.6510   79.1490 O.2   140  HIS140     -0.2715
     42  CB        51.1870   26.2270   81.8390 C.3   140  HIS140      0.0785
     43  CG        50.3100   26.8520   82.8940 C.ar  140  HIS140      0.0821
     44  ND1       49.6630   26.1080   83.8670 N.ar  140  HIS140     -0.2267
     45  CD2       49.9760   28.1420   83.1360 C.ar  140  HIS140      0.1154
     46  CE1       48.9810   26.9130   84.6630 C.ar  140  HIS140      0.1986
     47  NE2       49.1610   28.1520   84.2490 N.ar  140  HIS140     -0.2212
     48  N         50.0820   28.8180   79.7430 N.am  141  HIS141     -0.1973
     49  CA        48.8950   29.1530   78.9540 C.3   141  HIS141      0.1656
     50  C         49.1910   29.5360   77.5080 C.2   141  HIS141      0.2291
     51  O         48.2540   29.5450   76.7020 O.2   141  HIS141     -0.2864
     52  CB        48.1160   30.3190   79.6100 C.3   141  HIS141      0.0771
     53  CG        47.4930   29.9790   80.9300 C.ar  141  HIS141      0.0820
     54  ND1       46.6690   28.8870   81.1070 N.ar  141  HIS141     -0.2267
     55  CD2       47.5690   30.5930   82.1310 C.ar  141  HIS141      0.1154
     56  CE1       46.2740   28.8400   82.3690 C.ar  141  HIS141      0.1986
     57  NE2       46.8010   29.8680   83.0130 N.ar  141  HIS141     -0.2212
     58  N         46.4860   34.4590   79.3540 N.3   149  GLY149     -0.1210
     59  CA        46.7740   34.4530   80.7850 C.3   149  GLY149      0.1956
     60  C         48.1510   34.9470   81.1930 C.2   149  GLY149      0.2612
     61  O         48.8290   34.3030   81.9990 O.2   149  GLY149     -0.2717
     62  N         48.5430   36.1000   80.6370 N.am  150  PHE150     -0.1962
     63  CA        49.8460   36.7110   80.9200 C.3   150  PHE150      0.1771
     64  C         51.0140   35.8390   80.4570 C.2   150  PHE150      0.2619
     65  O         52.1530   36.0580   80.8880 O.2   150  PHE150     -0.2715
     66  CB        50.0100   37.0440   82.4160 C.3   150  PHE150      0.0574
     67  CG        48.7290   37.4670   83.1000 C.ar  150  PHE150     -0.0200
     68  CD1       47.9080   38.4340   82.5440 C.ar  150  PHE150     -0.0042
     69  CD2       48.3470   36.8870   84.2980 C.ar  150  PHE150     -0.0042
     70  CE1       46.7310   38.8120   83.1680 C.ar  150  PHE150     -0.0003
     71  CE2       47.1680   37.2620   84.9260 C.ar  150  PHE150     -0.0003
     72  CZ        46.3630   38.2250   84.3590 C.ar  150  PHE150     -0.0000
     73  N         50.7590   34.8470   79.6140 N.am  151  CYS151     -0.1968
     74  CA        51.7990   34.0000   79.0460 C.3   151  CYS151      0.1712
     75  C         51.9550   34.3460   77.5710 C.2   151  CYS151      0.2296
     76  O         50.9870   34.2780   76.8060 O.2   151  CYS151     -0.2864
     77  CB        51.4460   32.5170   79.1900 C.3   151  CYS151      0.0983
     78  SG        51.1540   31.9920   80.9220 S.3   151  CYS151     -0.0798
     79  N         49.4490   24.4080   89.3600 N.3   176  ASP176     -0.1239
     80  CA        48.8640   25.7400   89.3770 C.3   176  ASP176      0.1674
     81  C         47.3620   25.6780   89.6680 C.2   176  ASP176      0.2266
     82  O         46.6840   24.7040   89.3470 O.2   176  ASP176     -0.2867
     83  CB        49.1060   26.3770   87.9950 C.3   176  ASP176      0.1410
     84  CG        49.0040   27.8840   87.9950 C.2   176  ASP176      0.3668
     85  OD1       47.8740   28.3820   87.9060 O.co2 176  ASP176     -0.2456
     86  OD2       50.0440   28.5820   88.0200 O.co2 176  ASP176     -0.2456
     87  N         45.2790   27.1760   87.9790 N.3   178  HIS178     -0.1241
     88  CA        44.6390   27.1990   86.6660 C.3   178  HIS178      0.1621
     89  C         45.0220   25.9790   85.8400 C.2   178  HIS178      0.2264
     90  O         46.1170   25.4350   85.9720 O.2   178  HIS178     -0.2867
     91  CB        45.0310   28.4690   85.9100 C.3   178  HIS178      0.0745
     92  CG        44.6340   29.7120   86.6250 C.ar  178  HIS178      0.0817
     93  ND1       45.4500   30.3260   87.5560 N.ar  178  HIS178     -0.2268
     94  CD2       43.4710   30.4100   86.6170 C.ar  178  HIS178      0.1154
     95  CE1       44.8010   31.3480   88.0880 C.ar  178  HIS178      0.1986
     96  NE2       43.6200   31.4510   87.5040 N.ar  178  HIS178     -0.2212
     97  N         38.8170   31.2730   84.4380 N.3   206  PHE206     -0.1241
     98  CA        39.8770   31.0990   83.4460 C.3   206  PHE206      0.1605
     99  C         40.6560   29.7830   83.6220 C.2   206  PHE206      0.2264
    100  O         40.9330   29.3850   84.7490 O.2   206  PHE206     -0.2867
    101  CB        40.8300   32.2880   83.5500 C.3   206  PHE206      0.0534
    102  CG        41.9120   32.2790   82.5270 C.ar  206  PHE206     -0.0203
    103  CD1       41.7170   32.8890   81.3060 C.ar  206  PHE206     -0.0042
    104  CD2       43.1230   31.6560   82.7840 C.ar  206  PHE206     -0.0042
    105  CE1       42.7030   32.8770   80.3460 C.ar  206  PHE206     -0.0003
    106  CE2       44.1170   31.6400   81.8280 C.ar  206  PHE206     -0.0003
    107  CZ        43.9100   32.2510   80.6080 C.ar  206  PHE206     -0.0000
    108  N         49.5270   30.0930   93.1450 N.3   266  ASP266     -0.1239
    109  CA        48.2380   30.7370   93.3480 C.3   266  ASP266      0.1674
    110  C         47.2120   29.8280   94.0330 C.2   266  ASP266      0.2266
    111  O         46.0600   30.2520   94.2280 O.2   266  ASP266     -0.2867
    112  CB        47.7020   31.3090   92.0100 C.3   266  ASP266      0.1410
    113  CG        47.9920   30.4240   90.7890 C.2   266  ASP266      0.3668
    114  OD1       48.4180   29.2570   90.9130 O.co2 266  ASP266     -0.2456
    115  OD2       47.7540   30.9330   89.6660 O.co2 266  ASP266     -0.2456
    116  N         43.5420   35.4240   94.6990 N.3   273  HIS273     -0.1241
    117  CA        42.4310   34.6960   94.0850 C.3   273  HIS273      0.1621
    118  C         41.4730   34.1630   95.1400 C.2   273  HIS273      0.2264
    119  O         40.2540   34.1240   94.9200 O.2   273  HIS273     -0.2867
    120  CB        42.9400   33.5430   93.2240 C.3   273  HIS273      0.0745
    121  CG        43.4450   33.9740   91.8810 C.ar  273  HIS273      0.0817
    122  ND1       44.7610   34.3180   91.6560 N.ar  273  HIS273     -0.2268
    123  CD2       42.8070   34.1270   90.6950 C.ar  273  HIS273      0.1154
    124  CE1       44.9110   34.6620   90.3880 C.ar  273  HIS273      0.1986
    125  NE2       43.7400   34.5580   89.7850 N.ar  273  HIS273     -0.2212
    126  N         55.2510   29.7720   87.9190 N.3   306  GLY306     -0.1210
    127  CA        53.9710   29.9740   87.2730 C.3   306  GLY306      0.1956
    128  C         53.2270   31.0910   87.9610 C.2   306  GLY306      0.2612
    129  O         53.8080   32.1500   88.2220 O.2   306  GLY306     -0.2717
    130  N         51.9410   30.8640   88.2530 N.am  307  GLY307     -0.1956
    131  CA        51.1430   31.8710   88.9200 C.3   307  GLY307      0.1869
    132  C         51.6060   32.0960   90.3450 C.2   307  GLY307      0.2309
    133  O         52.4820   31.4120   90.8730 O.2   307  GLY307     -0.2863
    134  N         50.3380   35.5520   92.9510 N.3   309  TYR309     -0.1241
    135  CA        50.1310   36.9890   92.9290 C.3   309  TYR309      0.1605
    136  C         50.2820   37.6350   94.3020 C.2   309  TYR309      0.2264
    137  O         50.1450   38.8520   94.4220 O.2   309  TYR309     -0.2867
    138  CB        48.7590   37.2720   92.2940 C.3   309  TYR309      0.0534
    139  CG        48.7400   36.5770   90.9420 C.ar  309  TYR309     -0.0201
    140  CD1       49.2630   37.2080   89.8170 C.ar  309  TYR309     -0.0009
    141  CD2       48.3250   35.2500   90.8160 C.ar  309  TYR309     -0.0009
    142  CE1       49.3200   36.5540   88.5830 C.ar  309  TYR309      0.0417
    143  CE2       48.3980   34.5750   89.5850 C.ar  309  TYR309      0.0417
    144  CZ        48.8860   35.2440   88.4780 C.ar  309  TYR309      0.1957
    145  OH        48.9560   34.6090   87.2600 O.3   309  TYR309     -0.2866
@<TRIPOS>BOND
     1    51    50    2
     2    76    75    2
     3    50    49    1
     4    75    74    1
     5    12    13    1
     6    49    52    1
     7    49    48    1
     8    74    77    1
     9    74    73    1
    10    41    40    2
    11    77    78    1
    12    58    59    1
    13    27    26    2
    14    14    13    1
    15    14    15    2
    16    52    53    1
    17    73    64   am
    18    48    40   am
    19    40    39    1
    20    13    16    1
    21    16    17    1
    22   105   107   ar
    23   105   103   ar
    24    64    65    2
    25    64    63    1
    26    19    17   ar
    27   107   106   ar
    28    26    38   am
    29    26    25    1
    30    62    63    1
    31    62    60   am
    32    39    38    1
    33    39    42    1
    34    28    25    1
    35    28    29    1
    36    59    60    1
    37    63    66    1
    38    53    54   ar
    39    53    55   ar
    40    17    18   ar
    41    54    56   ar
    42    60    61    2
    43   103   102   ar
    44    25    24    1
    45    30    29   ar
    46    30    32   ar
    47    29    31   ar
    48   106   104   ar
    49    42    43    1
    50    24    22   am
    51    55    57   ar
    52    56    57   ar
    53    66    67    1
    54   102   104   ar
    55   102   101    1
    56    68    67   ar
    57    68    70   ar
    58    32    33   ar
    59    43    45   ar
    60    43    44   ar
    61    31    34   ar
    62    31    33   ar
    63    67    69   ar
    64    45    47   ar
    65    70    72   ar
    66    22    23    2
    67    22    21    1
    68    98   101    1
    69    98    99    1
    70    98    97    1
    71    34    36   ar
    72    33    35   ar
    73    99   100    2
    74    20    21    1
    75    44    46   ar
    76    47    46   ar
    77    69    71   ar
    78    72    71   ar
    79    36    37   ar
    80    35    37   ar
    81    10     8   ar
    82    10    11   ar
    83     8     6   ar
    84    89    90    2
    85    89    88    1
    86    91    92    1
    87    91    88    1
    88    11     9   ar
    89    94    92   ar
    90    94    96   ar
    91    92    93   ar
    92    88    87    1
    93     1     2    1
    94     6     5    1
    95     6     7   ar
    96   145   144    1
    97   127   126    1
    98   127   128    1
    99     5     2    1
   100    96    95   ar
   101    93    95   ar
   102     9     7   ar
   103    85    84   ar
   104     2     3    1
   105   128   129    2
   106   128   130   am
   107    84    83    1
   108    84    86   ar
   109    83    80    1
   110   130   131    1
   111   144   142   ar
   112   144   143   ar
   113   142   140   ar
   114     3     4    2
   115   131   132    1
   116    82    81    2
   117    79    80    1
   118    80    81    1
   119   143   141   ar
   120   115   113   ar
   121   125   124   ar
   122   125   123   ar
   123   140   139   ar
   124   132   133    2
   125   124   122   ar
   126   123   121   ar
   127   113   114   ar
   128   113   112    1
   129   141   139   ar
   130   139   138    1
   131   122   121   ar
   132   121   120    1
   133   112   109    1
   134   138   135    1
   135   135   134    1
   136   135   136    1
   137   108   109    1
   138   120   117    1
   139   109   110    1
   140   110   111    2
   141   117   116    1
   142   117   118    1
   143   136   137    2
   144   119   118    2
