@<TRIPOS>MOLECULE
tmp/6fu1B00.pdb
 131 131 0 0 0
SMALL
GASTEIGER

@<TRIPOS>ATOM
      1  N         89.1630   26.7130   70.1080 N.3    20  PHE20      -0.1241
      2  CA        89.8910   27.4330   69.0720 C.3    20  PHE20       0.1605
      3  C         90.9440   26.5910   68.3780 C.2    20  PHE20       0.2264
      4  O         91.5880   27.0920   67.4520 O.2    20  PHE20      -0.2867
      5  CB        90.4990   28.6980   69.6640 C.3    20  PHE20       0.0534
      6  CG        89.4730   29.7230   69.9190 C.ar   20  PHE20      -0.0203
      7  CD1       88.9000   30.3760   68.8520 C.ar   20  PHE20      -0.0042
      8  CD2       89.0100   29.9700   71.2030 C.ar   20  PHE20      -0.0042
      9  CE1       87.9190   31.2960   69.0520 C.ar   20  PHE20      -0.0003
     10  CE2       88.0240   30.8850   71.4030 C.ar   20  PHE20      -0.0003
     11  CZ        87.4830   31.5470   70.3140 C.ar   20  PHE20      -0.0000
     12  N         96.5640   27.8590   79.2750 N.3   104  TYR104     -0.1241
     13  CA        96.0550   28.4580   78.0430 C.3   104  TYR104      0.1605
     14  C         95.5620   29.8780   78.2800 C.2   104  TYR104      0.2264
     15  O         95.9020   30.8060   77.5330 O.2   104  TYR104     -0.2867
     16  CB        94.9350   27.5820   77.4920 C.3   104  TYR104      0.0534
     17  CG        93.9860   28.2830   76.5550 C.ar  104  TYR104     -0.0201
     18  CD1       94.2940   28.4320   75.2000 C.ar  104  TYR104     -0.0009
     19  CD2       92.7660   28.7820   77.0150 C.ar  104  TYR104     -0.0009
     20  CE1       93.4220   29.0730   74.3330 C.ar  104  TYR104      0.0417
     21  CE2       91.8940   29.4240   76.1510 C.ar  104  TYR104      0.0417
     22  CZ        92.2240   29.5650   74.8170 C.ar  104  TYR104      0.1957
     23  OH        91.3570   30.2020   73.9530 O.3   104  TYR104     -0.2866
     24  N         90.4170   38.4860   74.7450 N.3   134  TRP134     -0.1227
     25  CA        89.3710   37.6840   75.4020 C.3   134  TRP134      0.1737
     26  C         88.4930   38.5920   76.2650 C.2   134  TRP134      0.2595
     27  O         88.5300   38.5990   77.5070 O.2   134  TRP134     -0.2718
     28  CB        90.0200   36.5470   76.1850 C.3   134  TRP134      0.0564
     29  CG        90.8760   35.7700   75.2260 C.ar  134  TRP134      0.0003
     30  CD1       92.2220   35.5660   75.3010 C.ar  134  TRP134      0.0946
     31  CD2       90.4490   35.1670   73.9970 C.ar  134  TRP134      0.0152
     32  NE1       92.6490   34.8480   74.2100 N.ar  134  TRP134     -0.2442
     33  CE2       91.5880   34.6010   73.3880 C.ar  134  TRP134      0.0810
     34  CE3       89.2300   35.0650   73.3450 C.ar  134  TRP134      0.0012
     35  CZ2       91.5300   33.9120   72.1840 C.ar  134  TRP134      0.0191
     36  CZ3       89.1900   34.3900   72.1240 C.ar  134  TRP134      0.0001
     37  CH2       90.3220   33.8100   71.5760 C.ar  134  TRP134      0.0015
     38  N         87.6320   39.3440   75.5510 N.am  135  HIS135     -0.1961
     39  CA        86.9600   40.5020   76.1190 C.3   135  HIS135      0.1787
     40  C         85.7920   40.1740   77.0530 C.2   135  HIS135      0.2620
     41  O         85.3160   41.0850   77.7370 O.2   135  HIS135     -0.2715
     42  CB        86.4580   41.4380   74.9920 C.3   135  HIS135      0.0785
     43  CG        85.5580   40.7890   73.9720 C.ar  135  HIS135      0.0821
     44  ND1       84.8230   41.5280   73.0570 N.ar  135  HIS135     -0.2267
     45  CD2       85.2730   39.4900   73.7120 C.ar  135  HIS135      0.1154
     46  CE1       84.1360   40.7110   72.2800 C.ar  135  HIS135      0.1986
     47  NE2       84.3770   39.4700   72.6620 N.ar  135  HIS135     -0.2212
     48  N         85.3250   38.9270   77.1160 N.am  136  HIS136     -0.1973
     49  CA        84.1500   38.6280   77.9320 C.3   136  HIS136      0.1656
     50  C         84.4680   38.2160   79.3630 C.2   136  HIS136      0.2291
     51  O         83.5500   38.1900   80.1810 O.2   136  HIS136     -0.2864
     52  CB        83.3200   37.5030   77.3170 C.3   136  HIS136      0.0771
     53  CG        82.7430   37.8330   75.9750 C.ar  136  HIS136      0.0820
     54  ND1       81.9570   38.9430   75.7570 N.ar  136  HIS136     -0.2267
     55  CD2       82.8140   37.1800   74.7910 C.ar  136  HIS136      0.1154
     56  CE1       81.5810   38.9700   74.4880 C.ar  136  HIS136      0.1986
     57  NE2       82.0850   37.9080   73.8800 N.ar  136  HIS136     -0.2212
     58  N         81.6780   33.3680   77.6980 N.3   144  GLY144     -0.1210
     59  CA        81.9020   33.3490   76.2630 C.3   144  GLY144      0.1956
     60  C         83.2500   32.8090   75.8310 C.2   144  GLY144      0.2612
     61  O         83.9330   33.4480   75.0320 O.2   144  GLY144     -0.2717
     62  N         83.6400   31.6470   76.3530 N.am  145  PHE145     -0.1962
     63  CA        84.9160   30.9730   76.1220 C.3   145  PHE145      0.1771
     64  C         86.1300   31.8230   76.5210 C.2   145  PHE145      0.2619
     65  O         87.2530   31.5300   76.0800 O.2   145  PHE145     -0.2715
     66  CB        85.0530   30.4950   74.6630 C.3   145  PHE145      0.0574
     67  CG        83.7630   29.9760   74.0470 C.ar  145  PHE145     -0.0200
     68  CD1       83.1790   28.8040   74.4900 C.ar  145  PHE145     -0.0042
     69  CD2       83.1590   30.6530   72.9990 C.ar  145  PHE145     -0.0042
     70  CE1       82.0100   28.3360   73.9090 C.ar  145  PHE145     -0.0003
     71  CE2       81.9990   30.1940   72.4150 C.ar  145  PHE145     -0.0003
     72  CZ        81.4230   29.0330   72.8700 C.ar  145  PHE145     -0.0000
     73  N         85.9400   32.8730   77.3260 N.am  146  CYS146     -0.1968
     74  CA        87.0240   33.6950   77.8710 C.3   146  CYS146      0.1712
     75  C         87.1740   33.3720   79.3540 C.2   146  CYS146      0.2296
     76  O         86.1820   33.3810   80.0860 O.2   146  CYS146     -0.2864
     77  CB        86.7350   35.2010   77.7130 C.3   146  CYS146      0.0983
     78  SG        86.3960   35.7720   76.0010 S.3   146  CYS146     -0.0798
     79  N         84.7830   43.2540   67.4790 N.3   171  ASP171     -0.1239
     80  CA        84.1860   41.9250   67.4680 C.3   171  ASP171      0.1674
     81  C         82.6820   41.9850   67.1750 C.2   171  ASP171      0.2266
     82  O         81.9950   42.9560   67.4940 O.2   171  ASP171     -0.2867
     83  CB        84.3920   41.2910   68.8500 C.3   171  ASP171      0.1410
     84  CG        84.2620   39.8040   68.8580 C.2   171  ASP171      0.3668
     85  OD1       83.1350   39.2940   68.9550 O.co2 171  ASP171     -0.2456
     86  OD2       85.2910   39.1270   68.8810 O.co2 171  ASP171     -0.2456
     87  N         80.5080   40.5110   68.8660 N.3   173  HIS173     -0.1241
     88  CA        79.8610   40.5090   70.1710 C.3   173  HIS173      0.1621
     89  C         80.2470   41.7470   70.9780 C.2   173  HIS173      0.2264
     90  O         81.3410   42.2870   70.8540 O.2   173  HIS173     -0.2867
     91  CB        80.2230   39.2430   70.9650 C.3   173  HIS173      0.0745
     92  CG        79.8410   37.9690   70.2860 C.ar  173  HIS173      0.0817
     93  ND1       80.7130   37.2630   69.4740 N.ar  173  HIS173     -0.2268
     94  CD2       78.6880   37.2620   70.3100 C.ar  173  HIS173      0.1154
     95  CE1       80.1030   36.1770   69.0320 C.ar  173  HIS173      0.1986
     96  NE2       78.8770   36.1530   69.5200 N.ar  173  HIS173     -0.2212
     97  N         74.1000   36.4760   72.5370 N.3   201  PHE201     -0.1241
     98  CA        75.1300   36.6740   73.5460 C.3   201  PHE201      0.1605
     99  C         75.9410   37.9640   73.3290 C.2   201  PHE201      0.2264
    100  O         76.3000   38.2770   72.1970 O.2   201  PHE201     -0.2867
    101  CB        76.0480   35.4520   73.5290 C.3   201  PHE201      0.0534
    102  CG        77.1550   35.5140   74.5370 C.ar  201  PHE201     -0.0203
    103  CD1       76.9670   35.0370   75.8160 C.ar  201  PHE201     -0.0042
    104  CD2       78.3810   36.0660   74.2030 C.ar  201  PHE201     -0.0042
    105  CE1       77.9870   35.1060   76.7490 C.ar  201  PHE201     -0.0003
    106  CE2       79.3890   36.1510   75.1290 C.ar  201  PHE201     -0.0003
    107  CZ        79.1970   35.6650   76.4030 C.ar  201  PHE201     -0.0000
    108  N         84.7210   37.5750   63.7420 N.3   262  ASP262     -0.1239
    109  CA        83.4480   36.9170   63.5550 C.3   262  ASP262      0.1674
    110  C         82.4280   37.8030   62.8440 C.2   262  ASP262      0.2266
    111  O         81.2790   37.3730   62.6700 O.2   262  ASP262     -0.2867
    112  CB        82.8980   36.3790   64.8880 C.3   262  ASP262      0.1410
    113  CG        83.1860   37.2600   66.0820 C.2   262  ASP262      0.3668
    114  OD1       83.6620   38.4120   65.9570 O.co2 262  ASP262     -0.2456
    115  OD2       82.9130   36.7620   67.2020 O.co2 262  ASP262     -0.2456
    116  N         87.1740   36.7910   68.7020 N.3   308  GLY308     -0.1225
    117  CA        86.2990   35.8390   68.0510 C.3   308  GLY308      0.1811
    118  C         86.7420   35.5640   66.6300 C.2   308  GLY308      0.2280
    119  O         87.5840   36.2460   66.0580 O.2   308  GLY308     -0.2866
    120  N         85.5160   32.0530   63.9890 N.3   310  TYR310     -0.1241
    121  CA        85.3000   30.6220   64.0530 C.3   310  TYR310      0.1605
    122  C         85.4560   29.9360   62.7060 C.2   310  TYR310      0.2264
    123  O         85.3940   28.7110   62.6470 O.2   310  TYR310     -0.2867
    124  CB        83.9220   30.3670   64.6880 C.3   310  TYR310      0.0534
    125  CG        83.8850   31.1110   66.0080 C.ar  310  TYR310     -0.0201
    126  CD1       83.4810   32.4460   66.0650 C.ar  310  TYR310     -0.0009
    127  CD2       84.3540   30.5150   67.1780 C.ar  310  TYR310     -0.0009
    128  CE1       83.5000   33.1530   67.2550 C.ar  310  TYR310      0.0417
    129  CE2       84.3680   31.2170   68.3800 C.ar  310  TYR310      0.0417
    130  CZ        83.9410   32.5310   68.3970 C.ar  310  TYR310      0.1957
    131  OH        83.9450   33.2440   69.5600 O.3   310  TYR310     -0.2866
@<TRIPOS>BOND
     1   123   122    2
     2   111   110    2
     3   122   121    1
     4   110   109    1
     5   109   108    1
     6   109   112    1
     7   120   121    1
     8   121   124    1
     9   124   125    1
    10   112   113    1
    11   114   113   ar
    12   125   126   ar
    13   125   127   ar
    14   119   118    2
    15   126   128   ar
    16   113   115   ar
    17   118   117    1
    18    81    80    1
    19    81    82    2
    20   127   129   ar
    21   128   130   ar
    22     4     3    2
    23    80    79    1
    24    80    83    1
    25   117   116    1
    26     3     2    1
    27   129   130   ar
    28   130   131    1
    29    83    84    1
    30     7     9   ar
    31     7     6   ar
    32    84    86   ar
    33    84    85   ar
    34    87    88    1
    35    95    93   ar
    36    95    96   ar
    37     9    11   ar
    38     2     5    1
    39     2     1    1
    40    93    92   ar
    41    96    94   ar
    42     5     6    1
    43     6     8   ar
    44    88    91    1
    45    88    89    1
    46    92    94   ar
    47    92    91    1
    48    11    10   ar
    49    90    89    2
    50     8    10   ar
    51    37    36   ar
    52    37    35   ar
    53    36    34   ar
    54    35    33   ar
    55   100    99    2
    56    46    47   ar
    57    46    44   ar
    58    71    72   ar
    59    71    69   ar
    60    97    98    1
    61    47    45   ar
    62    72    70   ar
    63    69    67   ar
    64    44    43   ar
    65    99    98    1
    66    34    31   ar
    67    33    31   ar
    68    33    32   ar
    69   101    98    1
    70   101   102    1
    71    45    43   ar
    72    57    56   ar
    73    57    55   ar
    74    70    68   ar
    75    23    22    1
    76    43    42    1
    77    31    29   ar
    78    67    68   ar
    79    67    66    1
    80   104   102   ar
    81   104   106   ar
    82    32    30   ar
    83    20    22   ar
    84    20    18   ar
    85    56    54   ar
    86   102   103   ar
    87    66    63    1
    88    24    25    1
    89    55    53   ar
    90    22    21   ar
    91    42    39    1
    92    61    60    2
    93   106   107   ar
    94    18    17   ar
    95    29    30   ar
    96    29    28    1
    97    25    28    1
    98    25    26    1
    99    38    39    1
   100    38    26   am
   101    54    53   ar
   102   103   105   ar
   103    60    59    1
   104    60    62   am
   105    53    52    1
   106    78    77    1
   107    65    64    2
   108    39    40    1
   109    63    62    1
   110    63    64    1
   111    21    19   ar
   112    59    58    1
   113    26    27    2
   114   107   105   ar
   115    64    73   am
   116    17    19   ar
   117    17    16    1
   118    40    48   am
   119    40    41    2
   120    48    49    1
   121    52    49    1
   122    73    74    1
   123    16    13    1
   124    15    14    2
   125    77    74    1
   126    74    75    1
   127    49    50    1
   128    13    14    1
   129    13    12    1
   130    75    76    2
   131    50    51    2
