@<TRIPOS>MOLECULE
tmp/6fu2D01.pdb
 182 174 0 0 0
SMALL
GASTEIGER

@<TRIPOS>ATOM
      1  N        -23.2590    7.2100   34.0100 N.3     9  SER9       -0.1202
      2  CA       -22.5990    6.1510   33.2430 C.3     9  SER9        0.2020
      3  C        -21.2050    5.8990   33.8050 C.2     9  SER9        0.2619
      4  O        -20.5790    6.8050   34.3850 O.2     9  SER9       -0.2717
      5  CB       -22.5690    6.4530   31.7280 C.3     9  SER9        0.2103
      6  OG       -22.9050    7.7950   31.4250 O.3     9  SER9       -0.2182
      7  N        -20.7190    4.6790   33.5860 N.am   10  LYS10      -0.1965
      8  CA       -19.6150    4.1110   34.3770 C.3    10  LYS10       0.1728
      9  C        -18.1990    4.7120   34.3260 C.2    10  LYS10       0.2617
     10  O        -17.6450    4.9390   35.3990 O.2    10  LYS10      -0.2715
     11  CB       -19.5470    2.5790   34.1720 C.3    10  LYS10       0.0311
     12  CG       -18.8130    1.8360   35.2780 C.3    10  LYS10       0.0038
     13  CD       -18.9320    0.3320   35.1070 C.3    10  LYS10       0.0206
     14  CE       -18.5220   -0.3750   36.3840 C.3    10  LYS10       0.1093
     15  NZ       -18.2240   -1.8250   36.1880 N.3    10  LYS10      -0.1314
     16  N        -17.5970    4.9270   33.1540 N.am   11  GLY11      -0.1940
     17  CA       -16.2330    5.4770   33.0790 C.3    11  GLY11       0.2014
     18  C        -16.0790    6.9980   33.1400 C.2    11  GLY11       0.2639
     19  O        -16.0690    7.6050   34.2250 O.2    11  GLY11      -0.2714
     20  N        -15.9510    7.6110   31.9600 N.am   12  ARG12      -0.1963
     21  CA       -15.7410    9.0500   31.7950 C.3    12  ARG12       0.1729
     22  C        -16.7170    9.9400   32.5740 C.2    12  ARG12       0.2616
     23  O        -16.2870   10.8660   33.2520 O.2    12  ARG12      -0.2715
     24  CB       -15.8180    9.3940   30.2980 C.3    12  ARG12       0.0348
     25  CG       -15.5910   10.8560   29.9440 C.3    12  ARG12       0.0492
     26  CD       -15.6750   11.0980   28.4480 C.3    12  ARG12       0.2205
     27  NE       -14.5260   10.5520   27.7120 N.pl3  12  ARG12      -0.0865
     28  CZ       -14.4550    9.3460   27.1330 C.cat  12  ARG12       0.5346
     29  NH1      -15.4700    8.4780   27.1730 N.pl3  12  ARG12       0.1354
     30  NH2      -13.3380    8.9990   26.4970 N.pl3  12  ARG12       0.1354
     31  N        -18.0160    9.6500   32.4640 N.am   13  ILE13      -0.1977
     32  CA       -19.0840   10.4730   33.0660 C.3    13  ILE13       0.1596
     33  C        -19.0240   10.4350   34.5950 C.2    13  ILE13       0.2287
     34  O        -19.1270   11.4800   35.2420 O.2    13  ILE13      -0.2864
     35  CB       -20.4950   10.0300   32.5850 C.3    13  ILE13       0.0276
     36  CG1      -20.6580   10.2600   31.0730 C.3    13  ILE13       0.0022
     37  CG2      -21.6100   10.7410   33.3550 C.3    13  ILE13       0.0022
     38  CD1      -20.8430   11.7010   30.6420 C.3    13  ILE13       0.0001
     39  N        -15.6130   12.4620   35.7850 N.3    16  GLU16      -0.1245
     40  CA       -15.6270   13.9180   35.6120 C.3    16  GLU16       0.1567
     41  C        -16.7150   14.6300   36.4270 C.2    16  GLU16       0.2260
     42  O        -16.5890   15.8290   36.6880 O.2    16  GLU16      -0.2867
     43  CB       -15.7440   14.2720   34.1300 C.3    16  GLU16       0.0388
     44  CG       -14.5650   13.7650   33.3060 C.3    16  GLU16       0.1160
     45  CD       -14.5470   14.2950   31.8830 C.2    16  GLU16       0.3649
     46  OE1      -15.0590   15.4110   31.6380 O.co2  16  GLU16      -0.2457
     47  OE2      -14.0010   13.5990   30.9980 O.co2  16  GLU16      -0.2457
     48  N        -25.2910    2.1990   31.3580 N.3    53  ARG53      -0.1231
     49  CA       -24.6230    2.5160   30.0940 C.3    53  ARG53       0.1694
     50  C        -25.1460    3.8700   29.6540 C.2    53  ARG53       0.2592
     51  O        -26.3270    4.1760   29.8580 O.2    53  ARG53      -0.2718
     52  CB       -24.9190    1.4740   29.0200 C.3    53  ARG53       0.0321
     53  CG       -24.1860    0.1670   29.2170 C.3    53  ARG53       0.0489
     54  CD       -22.7820    0.1800   28.6270 C.3    53  ARG53       0.2205
     55  NE       -22.1780   -1.1550   28.6580 N.pl3  53  ARG53      -0.0865
     56  CZ       -22.4930   -2.1710   27.8470 C.cat  53  ARG53       0.5346
     57  NH1      -23.4250   -2.0470   26.8970 N.pl3  53  ARG53       0.1354
     58  NH2      -21.8640   -3.3380   27.9870 N.pl3  53  ARG53       0.1354
     59  N        -24.2770    4.6860   29.0550 N.am   54  ALA54      -0.1966
     60  CA       -24.6100    6.0660   28.6690 C.3    54  ALA54       0.1728
     61  C        -25.9020    6.2000   27.8540 C.2    54  ALA54       0.2616
     62  O        -26.6130    7.1970   28.0000 O.2    54  ALA54      -0.2715
     63  CB       -23.4510    6.6950   27.9050 C.3    54  ALA54       0.0334
     64  N        -26.1930    5.2080   27.0080 N.am   55  SER55      -0.1950
     65  CA       -27.4040    5.2070   26.1770 C.3    55  SER55       0.1924
     66  C        -28.7010    4.9850   26.9680 C.2    55  SER55       0.2314
     67  O        -29.7650    5.4400   26.5330 O.2    55  SER55      -0.2863
     68  CB       -27.2860    4.1730   25.0490 C.3    55  SER55       0.2116
     69  OG       -26.9840    2.8810   25.5540 O.3    55  SER55      -0.2180
     70  N        -24.6580   12.5980   27.6850 N.3    72  GLY72      -0.1225
     71  CA       -24.0820   13.3470   26.5770 C.3    72  GLY72       0.1811
     72  C        -25.1670   13.8950   25.6590 C.2    72  GLY72       0.2280
     73  O        -26.1950   13.2500   25.4530 O.2    72  GLY72      -0.2866
     74  N        -24.9770   14.1900   22.4730 N.3    74  ASP74      -0.1225
     75  CA       -25.0240   13.2060   21.3810 C.3    74  ASP74       0.1805
     76  C        -26.0650   12.0950   21.6200 C.2    74  ASP74       0.2597
     77  O        -26.8220   11.7380   20.7100 O.2    74  ASP74      -0.2718
     78  CB       -23.6310   12.5930   21.1380 C.3    74  ASP74       0.1424
     79  CG       -23.0870   11.8550   22.3540 C.2    74  ASP74       0.3668
     80  OD1      -23.2400   12.3800   23.4710 O.co2  74  ASP74      -0.2456
     81  OD2      -22.5110   10.7590   22.2060 O.co2  74  ASP74      -0.2456
     82  N        -26.1110   11.5820   22.8500 N.am   75  VAL75      -0.1980
     83  CA       -27.0510   10.5260   23.2290 C.3    75  VAL75       0.1595
     84  C        -28.4560   11.1050   23.2700 C.2    75  VAL75       0.2287
     85  O        -29.3910   10.4790   22.7930 O.2    75  VAL75      -0.2864
     86  CB       -26.7050    9.9030   24.6020 C.3    75  VAL75       0.0276
     87  CG1      -27.7640    8.8890   25.0260 C.3    75  VAL75       0.0022
     88  CG2      -25.3270    9.2520   24.5640 C.3    75  VAL75       0.0022
     89  N        -17.0540   16.1260   29.6630 N.3    93  ALA93      -0.1231
     90  CA       -17.0510   15.1480   28.5730 C.3    93  ALA93       0.1694
     91  C        -17.2410   15.8350   27.2160 C.2    93  ALA93       0.2592
     92  O        -18.0770   15.4230   26.4020 O.2    93  ALA93      -0.2718
     93  CB       -18.1150   14.0870   28.8080 C.3    93  ALA93       0.0304
     94  N        -16.4610   16.8940   26.9960 N.am   94  GLN94      -0.1966
     95  CA       -16.5860   17.7040   25.7960 C.3    94  GLN94       0.1733
     96  C        -15.9180   16.9920   24.6250 C.2    94  GLN94       0.2616
     97  O        -14.8010   16.4890   24.7390 O.2    94  GLN94      -0.2715
     98  CB       -16.0090   19.1020   26.0130 C.3    94  GLN94       0.0408
     99  CG       -16.7380   19.8580   27.1080 C.3    94  GLN94       0.0908
    100  CD       -16.4130   21.3370   27.1680 C.2    94  GLN94       0.2608
    101  OE1      -15.3040   21.7550   26.8470 O.2    94  GLN94      -0.2717
    102  NE2      -17.3850   22.1400   27.5980 N.am   94  GLN94      -0.0878
    103  N        -16.6470   16.9210   23.5180 N.am   95  CYS95      -0.1968
    104  CA       -16.1940   16.2630   22.2940 C.3    95  CYS95       0.1712
    105  C        -17.0920   16.8010   21.1910 C.2    95  CYS95       0.2296
    106  O        -17.8470   17.7370   21.4370 O.2    95  CYS95      -0.2864
    107  CB       -16.3090   14.7400   22.4270 C.3    95  CYS95       0.0983
    108  SG       -17.9790   14.1470   22.7920 S.3    95  CYS95      -0.0798
    109  N        -23.2790    4.5210   14.9520 N.3   117  LYS117     -0.1231
    110  CA       -24.1160    4.3380   16.1310 C.3   117  LYS117      0.1693
    111  C        -25.2840    5.3370   16.1400 C.2   117  LYS117      0.2592
    112  O        -26.3920    4.9950   16.5380 O.2   117  LYS117     -0.2718
    113  CB       -23.2490    4.5190   17.3750 C.3   117  LYS117      0.0285
    114  CG       -23.9250    4.2080   18.6990 C.3   117  LYS117      0.0035
    115  CD       -22.9370    4.2060   19.8470 C.3   117  LYS117      0.0206
    116  CE       -22.2860    5.5590   20.0690 C.3   117  LYS117      0.1093
    117  NZ       -21.3640    5.5550   21.2350 N.3   117  LYS117     -0.1314
    118  N        -25.0220    6.5560   15.6770 N.am  118  TYR118     -0.1976
    119  CA       -25.9520    7.6710   15.7880 C.3   118  TYR118      0.1639
    120  C        -26.7910    7.7460   14.5200 C.2   118  TYR118      0.2290
    121  O        -26.5840    8.6230   13.6650 O.2   118  TYR118     -0.2864
    122  CB       -25.1690    8.9700   15.9890 C.3   118  TYR118      0.0560
    123  CG       -24.2660    8.9500   17.1950 C.ar  118  TYR118     -0.0198
    124  CD1      -22.9640    8.4240   17.1230 C.ar  118  TYR118     -0.0009
    125  CD2      -24.7030    9.4520   18.4100 C.ar  118  TYR118     -0.0009
    126  CE1      -22.1390    8.4040   18.2340 C.ar  118  TYR118      0.0417
    127  CE2      -23.8830    9.4310   19.5230 C.ar  118  TYR118      0.0417
    128  CZ       -22.6050    8.9090   19.4280 C.ar  118  TYR118      0.1957
    129  OH       -21.7990    8.8910   20.5340 O.3   118  TYR118     -0.2866
    130  N        -22.6180   -0.4840   16.8090 N.3   139  TYR139     -0.1241
    131  CA       -22.6300   -0.1490   18.2500 C.3   139  TYR139      0.1605
    132  C        -21.3290    0.4430   18.7770 C.2   139  TYR139      0.2264
    133  O        -21.3560    1.2100   19.7340 O.2   139  TYR139     -0.2867
    134  CB       -23.0580   -1.3630   19.0820 C.3   139  TYR139      0.0534
    135  CG       -24.4920   -1.7300   18.8030 C.ar  139  TYR139     -0.0201
    136  CD1      -25.5410   -1.0040   19.3740 C.ar  139  TYR139     -0.0009
    137  CD2      -24.8090   -2.7600   17.9130 C.ar  139  TYR139     -0.0009
    138  CE1      -26.8600   -1.3190   19.0960 C.ar  139  TYR139      0.0417
    139  CE2      -26.1270   -3.0760   17.6250 C.ar  139  TYR139      0.0417
    140  CZ       -27.1480   -2.3500   18.2150 C.ar  139  TYR139      0.1957
    141  OH       -28.4550   -2.6640   17.9360 O.3   139  TYR139     -0.2866
    142  N        -18.3750   10.5280   17.6090 N.3   157  VAL157     -0.1231
    143  CA       -17.7580   11.5690   18.4330 C.3   157  VAL157      0.1692
    144  C        -16.2390   11.5180   18.2630 C.2   157  VAL157      0.2592
    145  O        -15.6580   10.4420   18.1230 O.2   157  VAL157     -0.2718
    146  CB       -18.1710   11.5070   19.9300 C.3   157  VAL157      0.0266
    147  CG1      -19.6890   11.5840   20.0760 C.3   157  VAL157      0.0020
    148  CG2      -17.6070   10.2820   20.6500 C.3   157  VAL157      0.0020
    149  N        -15.6180   12.6940   18.2340 N.am  158  VAL158     -0.1966
    150  CA       -14.1530   12.8270   18.2110 C.3   158  VAL158      0.1727
    151  C        -13.7560   14.0360   19.0540 C.2   158  VAL158      0.2616
    152  O        -14.3880   15.0920   18.9780 O.2   158  VAL158     -0.2715
    153  CB       -13.5730   12.8960   16.7650 C.3   158  VAL158      0.0290
    154  CG1      -14.5080   13.6300   15.8280 C.3   158  VAL158      0.0023
    155  CG2      -12.1710   13.5080   16.7330 C.3   158  VAL158      0.0023
    156  N        -12.7200   13.8400   19.8710 N.am  159  ASP159     -0.1971
    157  CA       -12.1750   14.8630   20.7510 C.3   159  ASP159      0.1709
    158  C        -10.7990   15.2650   20.1960 C.2   159  ASP159      0.2293
    159  O        -10.6830   16.2910   19.5270 O.2   159  ASP159     -0.2864
    160  CB       -12.1280   14.3190   22.1880 C.3   159  ASP159      0.1436
    161  CG       -11.6360   15.3390   23.2080 C.2   159  ASP159      0.3671
    162  OD1      -11.4610   16.5310   22.8690 O.co2 159  ASP159     -0.2456
    163  OD2      -11.4440   14.9370   24.3770 O.co2 159  ASP159     -0.2456
    164  N        -20.6270   18.7810   21.4980 N.3   178  VAL178     -0.1231
    165  CA       -21.2350   17.8140   22.4030 C.3   178  VAL178      0.1692
    166  C        -20.5950   17.9430   23.7800 C.2   178  VAL178      0.2593
    167  O        -19.3730   17.8950   23.9150 O.2   178  VAL178     -0.2718
    168  CB       -21.0340   16.3750   21.8660 C.3   178  VAL178      0.0266
    169  CG1      -21.3230   15.3190   22.9280 C.3   178  VAL178      0.0020
    170  CG2      -21.9160   16.1510   20.6520 C.3   178  VAL178      0.0020
    171  N        -21.4350   18.1030   24.7960 N.am  179  SER179     -0.1938
    172  CA       -21.0150   18.0380   26.1980 C.3   179  SER179      0.2055
    173  C        -22.1520   17.4470   27.0200 C.2   179  SER179      0.2643
    174  O        -23.3140   17.4580   26.5900 O.2   179  SER179     -0.2714
    175  CB       -20.6460   19.4230   26.7270 C.3   179  SER179      0.2130
    176  OG       -21.7480   20.3040   26.6530 O.3   179  SER179     -0.2179
    177  N        -21.8180   16.9420   28.2020 N.am  180  SER180     -0.1949
    178  CA       -22.8120   16.3160   29.0610 C.3   180  SER180      0.1924
    179  C        -23.7460   17.3520   29.6680 C.2   180  SER180      0.2314
    180  O        -23.3160   18.4350   30.0670 O.2   180  SER180     -0.2863
    181  CB       -22.1380   15.4960   30.1470 C.3   180  SER180      0.2116
    182  OG       -21.3780   14.4680   29.5440 O.3   180  SER180     -0.2180
@<TRIPOS>BOND
     1   121   120    2
     2   120   119    1
     3   109   110    1
     4   118   119    1
     5   118   111   am
     6   119   122    1
     7   154   153    1
     8   122   123    1
     9   110   111    1
    10   110   113    1
    11   111   112    2
    12   155   153    1
    13   153   150    1
    14   130   131    1
    15   124   123   ar
    16   124   126   ar
    17   123   125   ar
    18   113   114    1
    19   142   143    1
    20   139   137   ar
    21   139   140   ar
    22   137   135   ar
    23   141   140    1
    24   145   144    2
    25   150   149    1
    26   150   151    1
    27   140   138   ar
    28   149   144   am
    29   126   128   ar
    30   131   132    1
    31   131   134    1
    32   144   143    1
    33   125   127   ar
    34   143   146    1
    35   114   115    1
    36   132   133    2
    37   135   134    1
    38   135   136   ar
    39   152   151    2
    40   151   156   am
    41   138   136   ar
    42   128   127   ar
    43   128   129    1
    44   159   158    2
    45   115   116    1
    46   156   157    1
    47   146   147    1
    48   146   148    1
    49   116   117    1
    50   158   157    1
    51   170   168    1
    52    77    76    2
    53   157   160    1
    54    78    75    1
    55    78    79    1
    56   105   106    2
    57   105   104    1
    58    75    76    1
    59    75    74    1
    60   164   165    1
    61    76    82   am
    62   168   165    1
    63   168   169    1
    64   160   161    1
    65    81    79   ar
    66   104   107    1
    67   104   103    1
    68    79    80   ar
    69   165   166    1
    70   107   108    1
    71    85    84    2
    72    82    83    1
    73   162   161   ar
    74   161   163   ar
    75    83    84    1
    76    83    86    1
    77   103    96   am
    78   166   167    2
    79   166   171   am
    80    88    86    1
    81    86    87    1
    82    96    97    2
    83    96    95    1
    84   171   172    1
    85    68    69    1
    86    68    65    1
    87    73    72    2
    88    72    71    1
    89    95    98    1
    90    95    94    1
    91    98    99    1
    92    65    66    1
    93    65    64    1
    94   172   175    1
    95   172   173    1
    96    92    91    2
    97    30    28    1
    98    67    66    2
    99    71    70    1
   100   174   173    2
   101   176   175    1
   102   101   100    2
   103    57    56    1
   104    94    91   am
   105    64    61   am
   106   173   177   am
   107    99   100    1
   108    28    29    1
   109    28    27    2
   110   100   102   am
   111    91    90    1
   112    27    26    1
   113    56    58    1
   114    56    55    2
   115    61    62    2
   116    61    60    1
   117    63    60    1
   118   177   178    1
   119    26    25    1
   120    90    93    1
   121    90    89    1
   122    54    55    1
   123    54    53    1
   124    60    59    1
   125    52    53    1
   126    52    49    1
   127    59    50   am
   128   178   179    1
   129   178   181    1
   130   182   181    1
   131    50    51    2
   132    50    49    1
   133   179   180    2
   134    25    24    1
   135    49    48    1
   136    24    21    1
   137    38    36    1
   138    47    45   ar
   139    36    35    1
   140     6     5    1
   141    46    45   ar
   142     5     2    1
   143    21    20    1
   144    21    22    1
   145    45    44    1
   146    20    18   am
   147    31    22   am
   148    31    32    1
   149    22    23    2
   150    35    32    1
   151    35    37    1
   152    32    33    1
   153    17    18    1
   154    17    16    1
   155    18    19    2
   156    16     9   am
   157     2     3    1
   158     2     1    1
   159    44    43    1
   160     7     3   am
   161     7     8    1
   162     3     4    2
   163    43    40    1
   164    11     8    1
   165    11    12    1
   166     9     8    1
   167     9    10    2
   168    33    34    2
   169    13    12    1
   170    13    14    1
   171    40    39    1
   172    40    41    1
   173    15    14    1
   174    41    42    2
