@<TRIPOS>MOLECULE
tmp/6fu4A00.pdb
 105 102 0 0 0
SMALL
GASTEIGER

@<TRIPOS>ATOM
      1  N         44.3070   17.5360   95.4710 N.3    77  TYR77      -0.1241
      2  CA        44.7550   18.4260   96.5290 C.3    77  TYR77       0.1605
      3  C         43.5730   18.9060   97.3580 C.2    77  TYR77       0.2264
      4  O         42.4490   19.0130   96.8600 O.2    77  TYR77      -0.2867
      5  CB        45.5170   19.6370   95.9730 C.3    77  TYR77       0.0534
      6  CG        44.7280   20.5320   95.0380 C.ar   77  TYR77      -0.0201
      7  CD1       44.6210   20.2240   93.6830 C.ar   77  TYR77      -0.0009
      8  CD2       44.1230   21.7030   95.4970 C.ar   77  TYR77      -0.0009
      9  CE1       43.9260   21.0360   92.8110 C.ar   77  TYR77       0.0417
     10  CE2       43.4140   22.5280   94.6290 C.ar   77  TYR77       0.0417
     11  CZ        43.3250   22.1900   93.2820 C.ar   77  TYR77       0.1957
     12  OH        42.6300   22.9900   92.3900 O.3    77  TYR77      -0.2866
     13  N         48.3580   17.1810   99.1180 N.3   109  TYR109     -0.1241
     14  CA        48.3920   16.8100   97.7090 C.3   109  TYR109      0.1605
     15  C         48.8600   15.3700   97.5790 C.2   109  TYR109      0.2264
     16  O         49.8800   14.9900   98.1620 O.2   109  TYR109     -0.2867
     17  CB        49.3330   17.7370   96.9280 C.3   109  TYR109      0.0534
     18  CG        49.3010   17.6020   95.4190 C.ar  109  TYR109     -0.0201
     19  CD1       48.0970   17.5470   94.7280 C.ar  109  TYR109     -0.0009
     20  CD2       50.4850   17.5710   94.6790 C.ar  109  TYR109     -0.0009
     21  CE1       48.0680   17.4420   93.3450 C.ar  109  TYR109      0.0417
     22  CE2       50.4700   17.4740   93.2990 C.ar  109  TYR109      0.0417
     23  CZ        49.2600   17.4090   92.6300 C.ar  109  TYR109      0.1957
     24  OH        49.2440   17.3080   91.2450 O.3   109  TYR109     -0.2866
     25  N         52.6040   15.5380   98.9530 N.3   121  GLU121     -0.1245
     26  CA        53.2030   16.8150   99.2920 C.3   121  GLU121      0.1567
     27  C         52.2300   17.5740  100.1830 C.2   121  GLU121      0.2260
     28  O         51.0100   17.4540  100.0370 O.2   121  GLU121     -0.2867
     29  CB        53.5380   17.6240   98.0250 C.3   121  GLU121      0.0388
     30  CG        53.8320   19.0940   98.2800 C.3   121  GLU121      0.1160
     31  CD        53.6390   19.9600   97.0520 C.2   121  GLU121      0.3649
     32  OE1       53.2580   19.4210   95.9960 O.co2 121  GLU121     -0.2457
     33  OE2       53.8660   21.1820   97.1410 O.co2 121  GLU121     -0.2457
     34  N         53.7680   28.6820   98.6300 N.3   126  GLU126     -0.1245
     35  CA        53.2440   28.1110   97.3920 C.3   126  GLU126      0.1567
     36  C         51.7590   28.4180   97.2180 C.2   126  GLU126      0.2260
     37  O         51.3140   28.7470   96.1130 O.2   126  GLU126     -0.2867
     38  CB        53.4830   26.6040   97.3600 C.3   126  GLU126      0.0388
     39  CG        53.0410   25.9550   96.0690 C.3   126  GLU126      0.1160
     40  CD        53.3320   24.4750   96.0260 C.2   126  GLU126      0.3649
     41  OE1       53.1650   23.8020   97.0570 O.co2 126  GLU126     -0.2457
     42  OE2       53.7420   23.9810   94.9600 O.co2 126  GLU126     -0.2457
     43  N         49.5330   31.5190   89.1270 N.3   139  TYR139     -0.1241
     44  CA        49.8610   30.1220   89.3870 C.3   139  TYR139      0.1605
     45  C         48.8730   29.5030   90.3700 C.2   139  TYR139      0.2264
     46  O         48.3660   28.3980   90.1430 O.2   139  TYR139     -0.2867
     47  CB        51.2930   30.0070   89.9140 C.3   139  TYR139      0.0534
     48  CG        51.5620   28.6940   90.6050 C.ar  139  TYR139     -0.0201
     49  CD1       51.9070   27.5600   89.8720 C.ar  139  TYR139     -0.0009
     50  CD2       51.4530   28.5770   91.9930 C.ar  139  TYR139     -0.0009
     51  CE1       52.1460   26.3520   90.5000 C.ar  139  TYR139      0.0417
     52  CE2       51.6840   27.3750   92.6250 C.ar  139  TYR139      0.0417
     53  CZ        52.0290   26.2630   91.8780 C.ar  139  TYR139      0.1957
     54  OH        52.2700   25.0580   92.5140 O.3   139  TYR139     -0.2866
     55  N         44.4410   27.6130   91.1110 N.3   142  TRP142     -0.1241
     56  CA        43.8480   26.3610   91.5650 C.3   142  TRP142      0.1605
     57  C         43.4100   26.4250   93.0210 C.2   142  TRP142      0.2264
     58  O         42.6960   25.5270   93.4810 O.2   142  TRP142     -0.2867
     59  CB        44.8220   25.1990   91.3530 C.3   142  TRP142      0.0550
     60  CG        46.2000   25.4170   91.9150 C.ar  142  TRP142      0.0003
     61  CD1       47.3080   25.8200   91.2290 C.ar  142  TRP142      0.0946
     62  CD2       46.6210   25.2180   93.2750 C.ar  142  TRP142      0.0152
     63  NE1       48.3890   25.8920   92.0750 N.ar  142  TRP142     -0.2442
     64  CE2       47.9950   25.5260   93.3350 C.ar  142  TRP142      0.0810
     65  CE3       45.9720   24.8110   94.4410 C.ar  142  TRP142      0.0012
     66  CZ2       48.7300   25.4450   94.5200 C.ar  142  TRP142      0.0191
     67  CZ3       46.7040   24.7260   95.6160 C.ar  142  TRP142      0.0001
     68  CH2       48.0690   25.0450   95.6430 C.ar  142  TRP142      0.0015
     69  N         48.3590   25.2010   82.6670 N.3   158  TYR158     -0.1241
     70  CA        49.4310   25.8210   83.4310 C.3   158  TYR158      0.1605
     71  C         50.4020   24.7320   83.8660 C.2   158  TYR158      0.2264
     72  O         50.0560   23.5480   83.9110 O.2   158  TYR158     -0.2867
     73  CB        48.8820   26.5920   84.6420 C.3   158  TYR158      0.0534
     74  CG        48.3540   25.7080   85.7530 C.ar  158  TYR158     -0.0201
     75  CD1       47.1130   25.0930   85.6440 C.ar  158  TYR158     -0.0009
     76  CD2       49.0990   25.4800   86.9010 C.ar  158  TYR158     -0.0009
     77  CE1       46.6270   24.2800   86.6420 C.ar  158  TYR158      0.0417
     78  CE2       48.6170   24.6660   87.9180 C.ar  158  TYR158      0.0417
     79  CZ        47.3780   24.0680   87.7820 C.ar  158  TYR158      0.1957
     80  OH        46.8870   23.2530   88.7830 O.3   158  TYR158     -0.2866
     81  N         52.7520   22.9370   86.7060 N.3   160  ASP160     -0.1225
     82  CA        52.8720   22.7310   88.1420 C.3   160  ASP160      0.1805
     83  C         53.7730   21.5270   88.3980 C.2   160  ASP160      0.2597
     84  O         54.1160   20.7730   87.4810 O.2   160  ASP160     -0.2718
     85  CB        51.5030   22.5420   88.8100 C.3   160  ASP160      0.1424
     86  CG        51.4650   23.1090   90.2240 C.2   160  ASP160      0.3668
     87  OD1       52.5170   23.1160   90.8970 O.co2 160  ASP160     -0.2456
     88  OD2       50.3840   23.5390   90.6670 O.co2 160  ASP160     -0.2456
     89  N         54.1450   21.3440   89.6640 N.am  161  LYS161     -0.1979
     90  CA        55.1420   20.3480   90.0390 C.3   161  LYS161      0.1596
     91  C         54.4760   19.0470   90.4690 C.2   161  LYS161      0.2287
     92  O         53.5790   19.0520   91.3190 O.2   161  LYS161     -0.2864
     93  CB        56.0420   20.8710   91.1570 C.3   161  LYS161      0.0298
     94  CG        56.9170   19.8000   91.7800 C.3   161  LYS161      0.0038
     95  CD        58.3400   20.3020   92.0170 C.3   161  LYS161      0.0206
     96  CE        58.7780   20.0610   93.4630 C.3   161  LYS161      0.1093
     97  NZ        60.2580   20.1680   93.6260 N.3   161  LYS161     -0.1314
     98  N         43.5740   17.4830   89.4560 N.3   187  ASP187     -0.1239
     99  CA        44.5210   17.8410   88.4080 C.3   187  ASP187      0.1674
    100  C         44.4050   16.8590   87.2540 C.2   187  ASP187      0.2266
    101  O         44.3630   15.6390   87.4580 O.2   187  ASP187     -0.2867
    102  CB        45.9640   17.8380   88.9160 C.3   187  ASP187      0.1410
    103  CG        46.2700   18.9940   89.8410 C.2   187  ASP187      0.3668
    104  OD1       45.5740   20.0270   89.7800 O.co2 187  ASP187     -0.2456
    105  OD2       47.2270   18.8640   90.6310 O.co2 187  ASP187     -0.2456
@<TRIPOS>BOND
     1    69    70    1
     2    70    71    1
     3    70    73    1
     4    71    72    2
     5    73    74    1
     6    75    74   ar
     7    75    77   ar
     8    74    76   ar
     9    77    79   ar
    10    81    82    1
    11    76    78   ar
    12   100   101    2
    13   100    99    1
    14    84    83    2
    15    79    78   ar
    16    79    80    1
    17    82    83    1
    18    82    85    1
    19    83    89   am
    20    99   102    1
    21    99    98    1
    22    85    86    1
    23   102   103    1
    24    43    44    1
    25    44    47    1
    26    44    45    1
    27    89    90    1
    28   104   103   ar
    29   103   105   ar
    30    49    51   ar
    31    49    48   ar
    32    47    48    1
    33    90    91    1
    34    90    93    1
    35    46    45    2
    36    86    88   ar
    37    86    87   ar
    38    91    92    2
    39    51    53   ar
    40    48    50   ar
    41    55    56    1
    42    93    94    1
    43    61    60   ar
    44    61    63   ar
    45    24    23    1
    46    59    56    1
    47    59    60    1
    48    56    57    1
    49    94    95    1
    50    53    54    1
    51    53    52   ar
    52    60    62   ar
    53    50    52   ar
    54    95    96    1
    55    63    64   ar
    56    12    11    1
    57    23    22   ar
    58    23    21   ar
    59     9    11   ar
    60     9     7   ar
    61    57    58    2
    62    62    64   ar
    63    62    65   ar
    64    11    10   ar
    65    22    20   ar
    66    64    66   ar
    67    21    19   ar
    68    96    97    1
    69     7     6   ar
    70    65    67   ar
    71    66    68   ar
    72    10     8   ar
    73    20    18   ar
    74    19    18   ar
    75    42    40   ar
    76     6     8   ar
    77     6     5    1
    78    18    17    1
    79     1     2    1
    80    67    68   ar
    81     5     2    1
    82    32    31   ar
    83    40    39    1
    84    40    41   ar
    85    39    38    1
    86    37    36    2
    87     2     3    1
    88     4     3    2
    89    17    14    1
    90    31    33   ar
    91    31    30    1
    92    36    35    1
    93    38    35    1
    94    35    34    1
    95    15    14    1
    96    15    16    2
    97    14    13    1
    98    29    30    1
    99    29    26    1
   100    25    26    1
   101    26    27    1
   102    28    27    2
