@<TRIPOS>MOLECULE
tmp/6fu5A00.pdb
 205 193 0 0 0
SMALL
GASTEIGER

@<TRIPOS>ATOM
      1  N          7.7120  -38.3280   28.8180 N.3    19  TYR19      -0.1227
      2  CA         7.5040  -38.7040   27.4240 C.3    19  TYR19       0.1736
      3  C          6.0580  -38.4850   27.0070 C.2    19  TYR19       0.2595
      4  O          5.1560  -39.1800   27.4870 O.2    19  TYR19      -0.2718
      5  CB         7.9000  -40.1680   27.1990 C.3    19  TYR19       0.0548
      6  CG         7.3710  -40.7660   25.9080 C.ar   19  TYR19      -0.0200
      7  CD1        6.1490  -41.4300   25.8740 C.ar   19  TYR19      -0.0009
      8  CD2        8.0960  -40.6730   24.7260 C.ar   19  TYR19      -0.0009
      9  CE1        5.6630  -41.9760   24.7000 C.ar   19  TYR19       0.0417
     10  CE2        7.6170  -41.2190   23.5470 C.ar   19  TYR19       0.0417
     11  CZ         6.4000  -41.8690   23.5400 C.ar   19  TYR19       0.1957
     12  OH         5.9200  -42.4130   22.3710 O.3    19  TYR19      -0.2866
     13  N          5.8210  -37.5090   26.1320 N.am   20  LEU20      -0.1966
     14  CA         4.4680  -37.2630   25.6510 C.3    20  LEU20       0.1728
     15  C          4.1580  -38.0520   24.3840 C.2    20  LEU20       0.2617
     16  O          3.1130  -38.7030   24.2980 O.2    20  LEU20      -0.2715
     17  CB         4.2510  -35.7680   25.4060 C.3    20  LEU20       0.0311
     18  CG         4.3470  -34.8650   26.6360 C.3    20  LEU20       0.0022
     19  CD1        3.7720  -33.4920   26.3270 C.3    20  LEU20       0.0001
     20  CD2        3.6520  -35.4950   27.8330 C.3    20  LEU20       0.0001
     21  N          5.0520  -38.0130   23.3980 N.am   21  SER21      -0.1936
     22  CA         4.8100  -38.7800   22.1820 C.3    21  SER21       0.2055
     23  C          6.0680  -38.8240   21.3280 C.2    21  SER21       0.2643
     24  O          6.7130  -37.7970   21.1160 O.2    21  SER21      -0.2714
     25  CB         3.6500  -38.1790   21.3780 C.3    21  SER21       0.2130
     26  OG         4.0350  -36.9660   20.7570 O.3    21  SER21      -0.2179
     27  N          6.3840  -40.0090   20.8150 N.am   22  ARG22      -0.1963
     28  CA         7.5070  -40.1950   19.9090 C.3    22  ARG22       0.1729
     29  C          7.0140  -40.2650   18.4690 C.2    22  ARG22       0.2616
     30  O          5.8890  -40.6930   18.1980 O.2    22  ARG22      -0.2715
     31  CB         8.2870  -41.4660   20.2580 C.3    22  ARG22       0.0348
     32  CG         9.4960  -41.7500   19.3520 C.3    22  ARG22       0.0492
     33  CD        10.2120  -43.0250   19.7380 C.3    22  ARG22       0.2205
     34  NE        10.6500  -42.9020   21.1280 N.pl3  22  ARG22      -0.0865
     35  CZ        10.7010  -43.9250   21.9790 C.cat  22  ARG22       0.5346
     36  NH1       10.2780  -45.1400   21.6260 N.pl3  22  ARG22       0.1354
     37  NH2       11.0200  -43.6810   23.2410 N.pl3  22  ARG22       0.1354
     38  N          7.8700  -39.8390   17.5470 N.am   23  GLY23      -0.1955
     39  CA         7.5180  -39.8170   16.1410 C.3    23  GLY23       0.1869
     40  C          8.7610  -39.6110   15.3060 C.2    23  GLY23       0.2309
     41  O          9.8730  -39.4740   15.8250 O.2    23  GLY23      -0.2863
     42  N          9.8470  -37.0770   13.4830 N.3    25  SER25      -0.1202
     43  CA        10.5570  -35.8260   13.7290 C.3    25  SER25       0.2020
     44  C         11.2350  -35.7830   15.0910 C.2    25  SER25       0.2619
     45  O         11.8990  -34.7860   15.3940 O.2    25  SER25      -0.2717
     46  CB         9.6000  -34.6380   13.5970 C.3    25  SER25       0.2103
     47  OG         9.1470  -34.4760   12.2640 O.3    25  SER25      -0.2182
     48  N         11.0990  -36.8250   15.9110 N.am   26  GLY26      -0.1956
     49  CA        11.7240  -36.8680   17.2120 C.3    26  GLY26       0.1869
     50  C         10.7210  -37.1740   18.3000 C.2    26  GLY26       0.2309
     51  O          9.5880  -37.5930   18.0440 O.2    26  GLY26      -0.2863
     52  N          8.6870  -35.8720   21.8770 N.3    28  VAL28      -0.1245
     53  CA         8.1570  -34.6950   22.5470 C.3    28  VAL28       0.1561
     54  C          7.8090  -35.0770   23.9740 C.2    28  VAL28       0.2260
     55  O          7.0970  -36.0650   24.2040 O.2    28  VAL28      -0.2867
     56  CB         6.9250  -34.1260   21.8210 C.3    28  VAL28       0.0252
     57  CG1        6.1940  -33.1330   22.7150 C.3    28  VAL28       0.0019
     58  CG2        7.3420  -33.4700   20.5190 C.3    28  VAL28       0.0019
     59  N          6.1800  -27.6650   26.3630 N.3    41  ALA41      -0.1245
     60  CA         6.5150  -28.8770   25.6330 C.3    41  ALA41       0.1562
     61  C          7.9150  -28.7430   25.0470 C.2    41  ALA41       0.2260
     62  O          8.3560  -27.6420   24.7020 O.2    41  ALA41      -0.2867
     63  CB         5.4960  -29.1520   24.5200 C.3    41  ALA41       0.0290
     64  N         10.5620  -30.6060   22.2120 N.3    43  LYS43      -0.1245
     65  CA        10.8320  -31.5450   21.1300 C.3    43  LYS43       0.1561
     66  C         12.3320  -31.7580   20.9900 C.2    43  LYS43       0.2260
     67  O         13.0780  -30.7970   20.7760 O.2    43  LYS43      -0.2867
     68  CB        10.2610  -31.0320   19.8110 C.3    43  LYS43       0.0271
     69  CG        10.6300  -31.8820   18.6080 C.3    43  LYS43       0.0035
     70  CD         9.9230  -31.4180   17.3500 C.3    43  LYS43       0.0206
     71  CE        10.4540  -32.1440   16.1270 C.3    43  LYS43       0.1093
     72  NZ         9.6290  -31.8850   14.9170 N.3    43  LYS43      -0.1314
     73  N         14.4420  -25.5390   12.1560 N.3    59  GLU59      -0.1245
     74  CA        13.0630  -25.6490   12.6180 C.3    59  GLU59       0.1567
     75  C         12.7440  -24.5990   13.6790 C.2    59  GLU59       0.2260
     76  O         11.6800  -23.9670   13.6420 O.2    59  GLU59      -0.2867
     77  CB        12.8100  -27.0550   13.1550 C.3    59  GLU59       0.0388
     78  CG        11.4520  -27.2420   13.7750 C.3    59  GLU59       0.1160
     79  CD        11.1700  -28.6910   14.0700 C.2    59  GLU59       0.3649
     80  OE1       10.0210  -29.1260   13.8470 O.co2  59  GLU59      -0.2457
     81  OE2       12.1060  -29.4060   14.4850 O.co2  59  GLU59      -0.2457
     82  N          9.9760  -21.5760   13.3660 N.3    63  LEU63      -0.1245
     83  CA         8.9050  -21.3060   14.3210 C.3    63  LEU63       0.1561
     84  C          8.9730  -19.8690   14.8270 C.2    63  LEU63       0.2260
     85  O          7.9410  -19.2030   14.9740 O.2    63  LEU63      -0.2867
     86  CB         8.9740  -22.2890   15.4900 C.3    63  LEU63       0.0270
     87  CG         8.4630  -23.7100   15.2520 C.3    63  LEU63       0.0019
     88  CD1        8.6280  -24.5360   16.5130 C.3    63  LEU63       0.0001
     89  CD2        7.0140  -23.7010   14.7990 C.3    63  LEU63       0.0001
     90  N          2.1940  -22.5360   16.2580 N.3    72  LEU72      -0.1245
     91  CA         2.7290  -22.9930   17.5320 C.3    72  LEU72       0.1561
     92  C          3.7220  -21.9780   18.0980 C.2    72  LEU72       0.2260
     93  O          4.7780  -21.7450   17.4880 O.2    72  LEU72      -0.2867
     94  CB         3.4090  -24.3490   17.3620 C.3    72  LEU72       0.0270
     95  CG         4.0320  -24.9960   18.6040 C.3    72  LEU72       0.0019
     96  CD1        2.9760  -25.3110   19.6510 C.3    72  LEU72       0.0001
     97  CD2        4.7980  -26.2510   18.2190 C.3    72  LEU72       0.0001
     98  N         13.7480  -28.0440   21.3440 N.3    86  ILE86      -0.1245
     99  CA        12.9270  -26.8660   21.0790 C.3    86  ILE86       0.1561
    100  C         11.8480  -26.7880   22.1490 C.2    86  ILE86       0.2260
    101  O         11.2100  -27.7970   22.4640 O.2    86  ILE86      -0.2867
    102  CB        12.2950  -26.9250   19.6780 C.3    86  ILE86       0.0252
    103  CG1       13.3680  -26.9660   18.5900 C.3    86  ILE86       0.0019
    104  CG2       11.3630  -25.7450   19.4620 C.3    86  ILE86       0.0019
    105  CD1       12.7940  -27.0170   17.1850 C.3    86  ILE86       0.0001
    106  N          8.2790  -25.0400   23.4270 N.3    88  THR88      -0.1203
    107  CA         7.0840  -24.3670   22.9400 C.3    88  THR88       0.1994
    108  C          5.9970  -24.4330   24.0050 C.2    88  THR88       0.2618
    109  O          6.1440  -25.0970   25.0340 O.2    88  THR88      -0.2717
    110  CB         6.5850  -24.9910   21.6290 C.3    88  THR88       0.1784
    111  OG1        6.0010  -26.2700   21.9000 O.3    88  THR88      -0.2211
    112  CG2        7.7320  -25.1660   20.6480 C.3    88  THR88       0.0376
    113  N          4.8940  -23.7310   23.7530 N.am   89  GLU89      -0.1965
    114  CA         3.7420  -23.8280   24.6390 C.3    89  GLU89       0.1733
    115  C          3.2070  -25.2540   24.6340 C.2    89  GLU89       0.2616
    116  O          3.1960  -25.9270   23.6010 O.2    89  GLU89      -0.2715
    117  CB         2.6420  -22.8580   24.2080 C.3    89  GLU89       0.0429
    118  CG         3.0330  -21.3950   24.2460 C.3    89  GLU89       0.1163
    119  CD         1.8520  -20.4740   23.9960 C.2    89  GLU89       0.3649
    120  OE1        0.7060  -20.9740   23.9450 O.co2  89  GLU89      -0.2457
    121  OE2        2.0700  -19.2520   23.8450 O.co2  89  GLU89      -0.2457
    122  N          2.7460  -25.7100   25.7930 N.am   90  TYR90      -0.1960
    123  CA         2.1870  -27.0500   25.9050 C.3    90  TYR90       0.1771
    124  C          0.7480  -27.0430   25.4040 C.2    90  TYR90       0.2619
    125  O         -0.0900  -26.2990   25.9240 O.2    90  TYR90      -0.2715
    126  CB         2.2610  -27.5420   27.3480 C.3    90  TYR90       0.0574
    127  CG         1.5860  -28.8740   27.5690 C.ar   90  TYR90      -0.0198
    128  CD1        2.0030  -30.0070   26.8820 C.ar   90  TYR90      -0.0009
    129  CD2        0.5380  -29.0040   28.4720 C.ar   90  TYR90      -0.0009
    130  CE1        1.3910  -31.2310   27.0830 C.ar   90  TYR90       0.0417
    131  CE2       -0.0810  -30.2260   28.6810 C.ar   90  TYR90       0.0417
    132  CZ         0.3500  -31.3330   27.9840 C.ar   90  TYR90       0.1957
    133  OH        -0.2610  -32.5470   28.1890 O.3    90  TYR90      -0.2866
    134  N          0.4670  -27.8570   24.3850 N.am   91  MET91      -0.1964
    135  CA        -0.8800  -27.9850   23.8490 C.3    91  MET91       0.1722
    136  C         -1.5500  -29.2130   24.4550 C.2    91  MET91       0.2458
    137  O         -1.3360  -30.3330   23.9690 O.2    91  MET91      -0.2730
    138  CB        -0.8450  -28.0820   22.3230 C.3    91  MET91       0.0427
    139  CG        -0.1310  -26.9100   21.6760 C.3    91  MET91       0.0599
    140  SD        -1.0070  -25.3580   21.9570 S.3    91  MET91      -0.1393
    141  CE         0.2820  -24.1640   21.6080 C.3    91  MET91       0.0692
    142  N         -2.3730  -29.0600   25.4960 N.am   92  PRO92      -0.2727
    143  CA        -2.8460  -30.2440   26.2360 C.3    92  PRO92       0.1402
    144  C         -3.6780  -31.2030   25.4030 C.2    92  PRO92       0.2269
    145  O         -3.4920  -32.4220   25.5030 O.2    92  PRO92      -0.2865
    146  CB        -3.6680  -29.6340   27.3830 C.3    92  PRO92       0.0296
    147  CG        -3.2730  -28.1890   27.4390 C.3    92  PRO92       0.0237
    148  CD        -2.9180  -27.8090   26.0420 C.3    92  PRO92       0.0939
    149  N         -3.5280  -32.1850   22.5310 N.3    94  GLY94      -0.1210
    150  CA        -2.8430  -33.0050   21.5530 C.3    94  GLY94       0.1956
    151  C         -3.1670  -32.6110   20.1220 C.2    94  GLY94       0.2612
    152  O         -3.4510  -31.4520   19.8100 O.2    94  GLY94      -0.2717
    153  N         -3.1170  -33.6030   19.2380 N.am   95  SER95      -0.1952
    154  CA        -3.2770  -33.3800   17.8100 C.3    95  SER95       0.1924
    155  C         -4.7350  -33.5440   17.3850 C.2    95  SER95       0.2314
    156  O         -5.5490  -34.1700   18.0700 O.2    95  SER95      -0.2863
    157  CB        -2.3930  -34.3400   17.0100 C.3    95  SER95       0.2116
    158  OG        -2.8130  -35.6850   17.1680 O.3    95  SER95      -0.2180
    159  N         -6.1860  -37.2750   17.1900 N.3    98  GLU98      -0.1245
    160  CA        -6.8390  -37.8630   18.3550 C.3    98  GLU98       0.1567
    161  C         -8.2730  -37.3690   18.4830 C.2    98  GLU98       0.2260
    162  O         -9.2040  -38.1620   18.6660 O.2    98  GLU98      -0.2867
    163  CB        -6.0500  -37.5480   19.6250 C.3    98  GLU98       0.0388
    164  CG        -4.8180  -38.4050   19.8100 C.3    98  GLU98       0.1160
    165  CD        -4.4030  -38.5090   21.2630 C.2    98  GLU98       0.3649
    166  OE1       -4.4200  -37.4750   21.9650 O.co2  98  GLU98      -0.2457
    167  OE2       -4.0650  -39.6300   21.7030 O.co2  98  GLU98      -0.2457
    168  N         -2.1140  -34.5640   12.2360 N.3   143  GLN143     -0.1231
    169  CA        -1.2210  -34.7260   13.3740 C.3   143  GLN143      0.1698
    170  C         -0.3830  -33.4870   13.6620 C.2   143  GLN143      0.2592
    171  O          0.0970  -33.3330   14.7900 O.2   143  GLN143     -0.2718
    172  CB        -0.2930  -35.9240   13.1390 C.3   143  GLN143      0.0381
    173  CG        -1.0200  -37.2610   12.9660 C.3   143  GLN143      0.0905
    174  CD        -1.4950  -37.5040   11.5380 C.2   143  GLN143      0.2608
    175  OE1       -1.5880  -36.5780   10.7320 O.2   143  GLN143     -0.2717
    176  NE2       -1.8030  -38.7570   11.2250 N.am  143  GLN143     -0.0878
    177  N         -0.1960  -32.6080   12.6730 N.am  144  ASN144     -0.1974
    178  CA         0.5190  -31.3510   12.8800 C.3   144  ASN144      0.1688
    179  C         -0.3050  -30.3190   13.6330 C.2   144  ASN144      0.2292
    180  O          0.2690  -29.4050   14.2330 O.2   144  ASN144     -0.2864
    181  CB         0.9430  -30.7540   11.5390 C.3   144  ASN144      0.1181
    182  CG         1.9020  -31.6390   10.7870 C.2   144  ASN144      0.2629
    183  OD1        1.6670  -31.9860    9.6300 O.2   144  ASN144     -0.2716
    184  ND2        3.0000  -32.0050   11.4370 N.am  144  ASN144     -0.0877
    185  N         -2.1430  -28.8880   16.4980 N.3   146  LEU146     -0.1245
    186  CA        -2.3290  -29.0260   17.9330 C.3   146  LEU146      0.1561
    187  C         -3.4820  -28.1390   18.3980 C.2   146  LEU146      0.2260
    188  O         -3.8670  -27.1790   17.7270 O.2   146  LEU146     -0.2867
    189  CB        -1.0450  -28.6590   18.6790 C.3   146  LEU146      0.0270
    190  CG         0.2480  -29.2780   18.1360 C.3   146  LEU146      0.0019
    191  CD1        1.4680  -28.8000   18.9220 C.3   146  LEU146      0.0001
    192  CD2        0.1640  -30.7910   18.1380 C.3   146  LEU146      0.0001
    193  N          2.1900  -26.6590   13.3830 N.3   156  ALA156     -0.1231
    194  CA         3.5930  -26.9170   13.6720 C.3   156  ALA156      0.1694
    195  C          4.1890  -27.7140   12.5190 C.2   156  ALA156      0.2592
    196  O          3.4740  -28.2070   11.6450 O.2   156  ALA156     -0.2718
    197  CB         3.7650  -27.6600   15.0020 C.3   156  ALA156      0.0304
    198  N          5.5200  -27.8210   12.5190 N.am  157  ASP157     -0.1974
    199  CA         6.2440  -28.6600   11.5650 C.3   157  ASP157      0.1709
    200  C          6.2720  -28.0760   10.1530 C.2   157  ASP157      0.2293
    201  O          5.8810  -28.7490    9.1930 O.2   157  ASP157     -0.2864
    202  CB         5.6280  -30.0600   11.5280 C.3   157  ASP157      0.1436
    203  CG         6.5640  -31.1230   12.0710 C.2   157  ASP157      0.3671
    204  OD1        6.8810  -31.0790   13.2810 O.co2 157  ASP157     -0.2456
    205  OD2        6.9850  -32.0030   11.2880 O.co2 157  ASP157     -0.2456
@<TRIPOS>BOND
     1   201   200    2
     2   183   182    2
     3   200   199    1
     4   175   174    2
     5   182   184   am
     6   182   181    1
     7   176   174   am
     8   205   203   ar
     9   202   199    1
    10   202   203    1
    11   174   173    1
    12   181   178    1
    13   199   198    1
    14   196   195    2
    15   203   204   ar
    16    73    74    1
    17   168   169    1
    18    47    46    1
    19   198   195   am
    20   195   194    1
    21    74    77    1
    22    74    75    1
    23   177   178    1
    24   177   170   am
    25   178   179    1
    26   173   172    1
    27   172   169    1
    28    77    78    1
    29    82    83    1
    30   169   170    1
    31   193   194    1
    32    42    43    1
    33    46    43    1
    34   179   180    2
    35    76    75    2
    36   170   171    2
    37   194   197    1
    38    43    44    1
    39    78    79    1
    40    80    79   ar
    41    79    81   ar
    42    83    84    1
    43    83    86    1
    44    89    87    1
    45    84    85    2
    46    72    71    1
    47    44    45    2
    48    44    48   am
    49    87    86    1
    50    87    88    1
    51    40    41    2
    52    40    39    1
    53    48    49    1
    54    71    70    1
    55    39    38    1
    56    90    91    1
    57   185   186    1
    58   157   158    1
    59   157   154    1
    60   105   103    1
    61   159   160    1
    62    49    50    1
    63    70    69    1
    64    94    91    1
    65    94    95    1
    66   155   154    1
    67   155   156    2
    68    93    92    2
    69    91    92    1
    70    38    29   am
    71   188   187    2
    72   154   153    1
    73   186   187    1
    74   186   189    1
    75    51    50    2
    76   190   192    1
    77   190   189    1
    78   190   191    1
    79    30    29    2
    80    97    95    1
    81   160   161    1
    82   160   163    1
    83    29    28    1
    84   161   162    2
    85   103   102    1
    86    95    96    1
    87    69    68    1
    88   153   151   am
    89    32    33    1
    90    32    31    1
    91   104   102    1
    92   163   164    1
    93   102    99    1
    94    33    34    1
    95   164   165    1
    96   152   151    2
    97    68    65    1
    98    28    31    1
    99    28    27    1
   100   151   150    1
   101    58    56    1
   102   112   110    1
   103    26    25    1
   104    67    66    2
   105    27    23   am
   106    66    65    1
   107    99    98    1
   108    99   100    1
   109    24    23    2
   110    34    35    2
   111    65    64    1
   112   165   167   ar
   113   165   166   ar
   114    23    22    1
   115    25    22    1
   116   150   149    1
   117   141   140    1
   118    36    35    1
   119   110   111    1
   120   110   107    1
   121   139   140    1
   122   139   138    1
   123    56    53    1
   124    56    57    1
   125    52    53    1
   126    35    37    1
   127   100   101    2
   128    22    21    1
   129   138   135    1
   130    12    11    1
   131    53    54    1
   132   107   106    1
   133   107   108    1
   134    21    15   am
   135    11    10   ar
   136    11     9   ar
   137    10     8   ar
   138   116   115    2
   139   113   108   am
   140   113   114    1
   141   121   119   ar
   142   135   134    1
   143   135   136    1
   144   120   119   ar
   145   137   136    2
   146    54    55    2
   147   119   118    1
   148   108   109    2
   149   117   118    1
   150   117   114    1
   151    16    15    2
   152    15    14    1
   153   134   124   am
   154   136   142   am
   155    63    60    1
   156   115   114    1
   157   115   122   am
   158     9     7   ar
   159    62    61    2
   160     8     6   ar
   161    61    60    1
   162   144   145    2
   163   144   143    1
   164   124   123    1
   165   124   125    2
   166    17    14    1
   167    17    18    1
   168   142   148    1
   169   142   143    1
   170    60    59    1
   171    14    13    1
   172   122   123    1
   173     7     6   ar
   174   123   126    1
   175     6     5    1
   176   148   147    1
   177    13     3   am
   178   143   146    1
   179    19    18    1
   180    18    20    1
   181   128   130   ar
   182   128   127   ar
   183     3     2    1
   184     3     4    2
   185   130   132   ar
   186     5     2    1
   187   126   127    1
   188   146   147    1
   189     2     1    1
   190   127   129   ar
   191   132   133    1
   192   132   131   ar
   193   129   131   ar
