@<TRIPOS>MOLECULE
tmp/6fu7D00.pdb
 200 192 0 0 0
SMALL
GASTEIGER

@<TRIPOS>ATOM
      1  N        -19.6090    6.9580   33.4430 N.3    10  LYS10      -0.1231
      2  CA       -18.3560    6.3380   33.9300 C.3    10  LYS10       0.1693
      3  C        -16.9910    6.9630   33.6030 C.2    10  LYS10       0.2593
      4  O        -16.1880    7.1340   34.5180 O.2    10  LYS10      -0.2718
      5  CB       -18.2920    4.8390   33.4940 C.3    10  LYS10       0.0285
      6  CG       -19.1550    3.8360   34.2660 C.3    10  LYS10       0.0035
      7  CD       -18.3820    2.7260   34.9900 C.3    10  LYS10       0.0206
      8  CE       -17.8930    1.6680   34.0200 C.3    10  LYS10       0.1093
      9  NZ       -16.9490    0.7220   34.6840 N.3    10  LYS10      -0.1314
     10  N        -16.7060    7.2600   32.3380 N.am   11  GLY11      -0.1942
     11  CA       -15.3090    7.4390   31.8900 C.3    11  GLY11       0.2014
     12  C        -14.7600    8.8580   31.8560 C.2    11  GLY11       0.2639
     13  O        -14.4440    9.4600   32.9000 O.2    11  GLY11      -0.2714
     14  N        -14.6460    9.4070   30.6400 N.am   12  ARG12      -0.1963
     15  CA       -14.1270   10.7570   30.4150 C.3    12  ARG12       0.1729
     16  C        -14.9300   11.8550   31.1170 C.2    12  ARG12       0.2616
     17  O        -14.3540   12.8230   31.6050 O.2    12  ARG12      -0.2715
     18  CB       -14.0590   11.0580   28.9080 C.3    12  ARG12       0.0348
     19  CG       -13.2800   12.3340   28.5760 C.3    12  ARG12       0.0492
     20  CD       -12.4300   12.2120   27.3210 C.3    12  ARG12       0.2205
     21  NE       -11.4060   11.1720   27.4480 N.pl3  12  ARG12      -0.0865
     22  CZ       -10.5520   10.8150   26.4890 C.cat  12  ARG12       0.5346
     23  NH1      -10.5600   11.4150   25.3050 N.pl3  12  ARG12       0.1354
     24  NH2       -9.6650    9.8470   26.7160 N.pl3  12  ARG12       0.1354
     25  N        -16.2490   11.6850   31.1630 N.am   13  ILE13      -0.1977
     26  CA       -17.1660   12.6630   31.7490 C.3    13  ILE13       0.1596
     27  C        -17.0240   12.7570   33.2750 C.2    13  ILE13       0.2287
     28  O        -17.0570   13.8580   33.8220 O.2    13  ILE13      -0.2864
     29  CB       -18.6390   12.3530   31.3520 C.3    13  ILE13       0.0276
     30  CG1      -18.8130   12.4970   29.8290 C.3    13  ILE13       0.0022
     31  CG2      -19.6150   13.2660   32.1010 C.3    13  ILE13       0.0022
     32  CD1      -20.1360   12.0170   29.2800 C.3    13  ILE13       0.0001
     33  N        -22.5260    3.3360   32.5280 N.3    53  ARG53      -0.1231
     34  CA       -22.1110    3.5460   31.1400 C.3    53  ARG53       0.1694
     35  C        -22.7150    4.8640   30.6540 C.2    53  ARG53       0.2591
     36  O        -23.8630    5.1860   30.9860 O.2    53  ARG53      -0.2718
     37  CB       -22.6250    2.4190   30.2410 C.3    53  ARG53       0.0321
     38  CG       -21.5880    1.7670   29.3620 C.3    53  ARG53       0.0489
     39  CD       -20.9760    0.5550   30.0360 C.3    53  ARG53       0.2205
     40  NE       -20.6670   -0.4650   29.0320 N.pl3  53  ARG53      -0.0865
     41  CZ       -20.1060   -1.6530   29.2780 C.cat  53  ARG53       0.5346
     42  NH1      -19.7510   -2.0100   30.5140 N.pl3  53  ARG53       0.1354
     43  NH2      -19.8870   -2.4890   28.2640 N.pl3  53  ARG53       0.1354
     44  N        -21.9560    5.6220   29.8720 N.am   54  ALA54      -0.1980
     45  CA       -22.4320    6.9010   29.3510 C.3    54  ALA54       0.1597
     46  C        -23.7330    6.7400   28.5440 C.2    54  ALA54       0.2287
     47  O        -24.6280    7.5940   28.6210 O.2    54  ALA54      -0.2864
     48  CB       -21.3570    7.5600   28.5030 C.3    54  ALA54       0.0319
     49  N        -23.4650   12.9240   28.0300 N.3    72  GLY72      -0.1225
     50  CA       -22.9290   13.5840   26.8390 C.3    72  GLY72       0.1811
     51  C        -24.0440   13.9550   25.8840 C.2    72  GLY72       0.2280
     52  O        -25.0320   13.2210   25.7650 O.2    72  GLY72      -0.2866
     53  N        -23.7860   14.0030   22.6620 N.3    74  ASP74      -0.1225
     54  CA       -23.7220   12.9550   21.6410 C.3    74  ASP74       0.1805
     55  C        -24.6320   11.7790   21.9960 C.2    74  ASP74       0.2597
     56  O        -25.3210   11.2490   21.1260 O.2    74  ASP74      -0.2718
     57  CB       -22.2720   12.4780   21.4120 C.3    74  ASP74       0.1424
     58  CG       -21.6150   11.9250   22.6700 C.2    74  ASP74       0.3668
     59  OD1      -21.7650   12.5400   23.7330 O.co2  74  ASP74      -0.2456
     60  OD2      -20.9390   10.8820   22.6050 O.co2  74  ASP74      -0.2456
     61  N        -24.6540   11.4030   23.2710 N.am   75  VAL75      -0.1980
     62  CA       -25.5010   10.3020   23.7370 C.3    75  VAL75       0.1595
     63  C        -26.9840   10.7020   23.7050 C.2    75  VAL75       0.2287
     64  O        -27.8170    9.8960   23.3070 O.2    75  VAL75      -0.2864
     65  CB       -25.1040    9.8160   25.1490 C.3    75  VAL75       0.0276
     66  CG1      -26.0010    8.6780   25.6100 C.3    75  VAL75       0.0022
     67  CG2      -23.6570    9.3410   25.1570 C.3    75  VAL75       0.0022
     68  N        -16.3280   18.1650   29.3030 N.3    93  ALA93      -0.1231
     69  CA       -16.0990   17.0260   28.4150 C.3    93  ALA93       0.1694
     70  C        -16.4270   17.3940   26.9680 C.2    93  ALA93       0.2592
     71  O        -17.1420   16.6780   26.2660 O.2    93  ALA93      -0.2718
     72  CB       -16.8870   15.8170   28.8840 C.3    93  ALA93       0.0304
     73  N        -15.8830   18.5290   26.5370 N.am   94  GLN94      -0.1966
     74  CA       -16.2070   19.1050   25.2440 C.3    94  GLN94       0.1733
     75  C        -15.4870   18.3780   24.1220 C.2    94  GLN94       0.2616
     76  O        -14.3380   17.9700   24.2670 O.2    94  GLN94      -0.2715
     77  CB       -15.8850   20.6060   25.2090 C.3    94  GLN94       0.0408
     78  CG       -16.5660   21.3960   26.3200 C.3    94  GLN94       0.0908
     79  CD       -16.8350   22.8410   25.9620 C.2    94  GLN94       0.2608
     80  OE1      -17.6850   23.1300   25.1130 O.2    94  GLN94      -0.2717
     81  NE2      -16.1160   23.7520   26.6030 N.am   94  GLN94      -0.0878
     82  N        -16.1950   18.2140   23.0110 N.am   95  CYS95      -0.1968
     83  CA       -15.6810   17.5330   21.8270 C.3    95  CYS95       0.1712
     84  C        -16.6180   17.8550   20.6520 C.2    95  CYS95       0.2296
     85  O        -17.5130   18.6890   20.7900 O.2    95  CYS95      -0.2864
     86  CB       -15.5650   16.0230   22.0880 C.3    95  CYS95       0.0983
     87  SG       -17.0620   15.2470   22.7480 S.3    95  CYS95      -0.0798
     88  N        -21.2330    4.2130   15.9200 N.3   117  LYS117     -0.1231
     89  CA       -22.0750    3.9970   17.1000 C.3   117  LYS117      0.1693
     90  C        -23.3170    4.8800   16.9940 C.2   117  LYS117      0.2592
     91  O        -24.3940    4.4940   17.4370 O.2   117  LYS117     -0.2718
     92  CB       -21.3000    4.3170   18.3920 C.3   117  LYS117      0.0285
     93  CG       -22.1100    4.1900   19.6930 C.3   117  LYS117      0.0035
     94  CD       -21.4490    4.8800   20.8810 C.3   117  LYS117      0.0206
     95  CE       -20.0680    4.3170   21.1880 C.3   117  LYS117      0.1093
     96  NZ       -19.5670    4.7430   22.5230 N.3   117  LYS117     -0.1314
     97  N        -23.1550    6.0470   16.3810 N.am  118  TYR118     -0.1976
     98  CA       -24.1800    7.0750   16.3470 C.3   118  TYR118      0.1639
     99  C        -25.0110    6.9490   15.0610 C.2   118  TYR118      0.2290
    100  O        -24.9100    7.7850   14.1620 O.2   118  TYR118     -0.2864
    101  CB       -23.5150    8.4570   16.4750 C.3   118  TYR118      0.0560
    102  CG       -22.5730    8.5930   17.6670 C.ar  118  TYR118     -0.0198
    103  CD1      -23.0590    8.9400   18.9330 C.ar  118  TYR118     -0.0009
    104  CD2      -21.2010    8.3660   17.5330 C.ar  118  TYR118     -0.0009
    105  CE1      -22.2070    9.0640   20.0230 C.ar  118  TYR118      0.0417
    106  CE2      -20.3380    8.4900   18.6210 C.ar  118  TYR118      0.0417
    107  CZ       -20.8490    8.8430   19.8630 C.ar  118  TYR118      0.1957
    108  OH       -20.0120    8.9630   20.9460 O.3   118  TYR118     -0.2866
    109  N        -12.2630    3.9790   14.3440 N.3   143  GLU143     -0.1245
    110  CA       -11.0160    4.1220   13.5710 C.3   143  GLU143      0.1567
    111  C        -10.6580    2.9430   12.6550 C.2   143  GLU143      0.2260
    112  O        -10.1760    3.1470   11.5460 O.2   143  GLU143     -0.2867
    113  CB        -9.8300    4.4190   14.5030 C.3   143  GLU143      0.0388
    114  CG        -9.6350    3.4580   15.6820 C.3   143  GLU143      0.1160
    115  CD       -10.2440    3.9290   17.0060 C.2   143  GLU143      0.3649
    116  OE1       -9.5180    3.8840   18.0170 O.co2 143  GLU143     -0.2457
    117  OE2      -11.4310    4.3220   17.0780 O.co2 143  GLU143     -0.2457
    118  N        -17.9050    9.7630   14.5930 N.3   156  ASP156     -0.1225
    119  CA       -17.4060    9.5530   15.9530 C.3   156  ASP156      0.1805
    120  C        -17.0830   10.8810   16.6390 C.2   156  ASP156      0.2598
    121  O        -17.0000   11.9200   15.9850 O.2   156  ASP156     -0.2718
    122  CB       -16.1700    8.6340   15.9280 C.3   156  ASP156      0.1424
    123  CG       -15.8480    8.0180   17.2870 C.2   156  ASP156      0.3668
    124  OD1      -16.7550    7.9050   18.1450 O.co2 156  ASP156     -0.2456
    125  OD2      -14.6760    7.6450   17.4980 O.co2 156  ASP156     -0.2456
    126  N        -16.9500   10.8470   17.9640 N.am  157  VAL157     -0.1966
    127  CA       -16.5200   12.0310   18.7200 C.3   157  VAL157      0.1727
    128  C        -15.0160   12.2770   18.5500 C.2   157  VAL157      0.2616
    129  O        -14.2080   11.3610   18.6720 O.2   157  VAL157     -0.2715
    130  CB       -16.9270   12.0040   20.2200 C.3   157  VAL157      0.0290
    131  CG1      -18.4430   11.9640   20.3500 C.3   157  VAL157      0.0023
    132  CG2      -16.2870   10.8530   20.9850 C.3   157  VAL157      0.0023
    133  N        -14.6750   13.5250   18.2460 N.am  158  VAL158     -0.1963
    134  CA       -13.3130   13.9550   17.9980 C.3   158  VAL158      0.1727
    135  C        -13.0470   15.1780   18.8760 C.2   158  VAL158      0.2616
    136  O        -13.8680   16.0940   18.9270 O.2   158  VAL158     -0.2715
    137  CB       -13.1090   14.3200   16.5100 C.3   158  VAL158      0.0290
    138  CG1      -11.6870   14.8170   16.2570 C.3   158  VAL158      0.0023
    139  CG2      -13.4160   13.1250   15.6140 C.3   158  VAL158      0.0023
    140  N        -11.9070   15.1690   19.5710 N.am  159  ASP159     -0.1957
    141  CA       -11.4430   16.3140   20.3490 C.3   159  ASP159      0.1840
    142  C        -10.1950   16.9110   19.6840 C.2   159  ASP159      0.2623
    143  O        -10.3080   17.9110   18.9770 O.2   159  ASP159     -0.2715
    144  CB       -11.2150   15.9110   21.8180 C.3   159  ASP159      0.1450
    145  CG       -10.6460   17.0380   22.6630 C.2   159  ASP159      0.3671
    146  OD1      -10.9910   18.2140   22.4280 O.co2 159  ASP159     -0.2456
    147  OD2       -9.8430   16.7400   23.5710 O.co2 159  ASP159     -0.2456
    148  N         -9.0240   16.3060   19.8910 N.am  160  THR160     -0.1937
    149  CA        -7.7700   16.8040   19.2900 C.3   160  THR160      0.2028
    150  C         -7.5620   16.3610   17.8380 C.2   160  THR160      0.2643
    151  O         -6.8360   17.0090   17.0940 O.2   160  THR160     -0.2714
    152  CB        -6.5260   16.3730   20.0980 C.3   160  THR160      0.1808
    153  OG1       -6.3540   14.9540   20.0170 O.3   160  THR160     -0.2208
    154  CG2       -6.6580   16.8000   21.5630 C.3   160  THR160      0.0379
    155  N         -8.1900   15.2540   17.4460 N.am  161  GLY161     -0.1939
    156  CA        -7.9730   14.6370   16.1390 C.3   161  GLY161      0.2014
    157  C         -6.7790   13.6920   16.0450 C.2   161  GLY161      0.2639
    158  O         -6.4930   13.1780   14.9600 O.2   161  GLY161     -0.2714
    159  N         -6.0990   13.4340   17.1650 N.am  162  ASN162     -0.1958
    160  CA        -4.8860   12.5910   17.1720 C.3   162  ASN162      0.1819
    161  C         -5.1740   11.1120   16.9190 C.2   162  ASN162      0.2622
    162  O         -4.3660   10.4390   16.2840 O.2   162  ASN162     -0.2715
    163  CB        -4.1120   12.7240   18.4960 C.3   162  ASN162      0.1195
    164  CG        -3.4260   14.0720   18.6550 C.2   162  ASN162      0.2630
    165  OD1       -3.2450   14.8160   17.6950 O.2   162  ASN162     -0.2716
    166  ND2       -3.0260   14.3820   19.8820 N.am  162  ASN162     -0.0877
    167  N         -6.3010   10.6030   17.4210 N.am  163  THR163     -0.1937
    168  CA        -6.6780    9.1990   17.2070 C.3   163  THR163      0.2028
    169  C         -6.9590    8.9340   15.7290 C.2   163  THR163      0.2642
    170  O         -6.5630    7.8950   15.1990 O.2   163  THR163     -0.2714
    171  CB        -7.9010    8.7930   18.0530 C.3   163  THR163      0.1808
    172  OG1       -7.7270    9.2650   19.3910 O.3   163  THR163     -0.2208
    173  CG2       -8.0680    7.2810   18.0970 C.3   163  THR163      0.0379
    174  N         -7.6360    9.8790   15.0730 N.am  164  LEU164     -0.1977
    175  CA        -7.8660    9.8090   13.6310 C.3   164  LEU164      0.1596
    176  C         -6.5470    9.8570   12.8480 C.2   164  LEU164      0.2287
    177  O         -6.3040    9.0050   11.9860 O.2   164  LEU164     -0.2864
    178  CB        -8.7760   10.9480   13.1670 C.3   164  LEU164      0.0297
    179  CG       -10.2250   10.9970   13.6790 C.3   164  LEU164      0.0022
    180  CD1      -10.9220   12.2090   13.0810 C.3   164  LEU164      0.0001
    181  CD2      -10.9940    9.7230   13.3680 C.3   164  LEU164      0.0001
    182  N        -20.3070   19.1490   21.0600 N.3   178  VAL178     -0.1231
    183  CA       -20.7780   18.2470   22.1050 C.3   178  VAL178      0.1692
    184  C        -20.2170   18.6850   23.4570 C.2   178  VAL178      0.2593
    185  O        -19.0610   19.0940   23.5590 O.2   178  VAL178     -0.2718
    186  CB       -20.3270   16.8040   21.8130 C.3   178  VAL178      0.0266
    187  CG1      -20.6690   15.8600   22.9660 C.3   178  VAL178      0.0020
    188  CG2      -20.9360   16.3210   20.4990 C.3   178  VAL178      0.0020
    189  N        -21.0570   18.6010   24.4820 N.am  179  SER179     -0.1938
    190  CA       -20.6280   18.7520   25.8720 C.3   179  SER179      0.2055
    191  C        -21.5780   17.9640   26.7600 C.2   179  SER179      0.2643
    192  O        -22.6840   17.6260   26.3400 O.2   179  SER179     -0.2714
    193  CB       -20.6000   20.2280   26.2910 C.3   179  SER179      0.2130
    194  OG       -21.8480   20.8610   26.0750 O.3   179  SER179     -0.2179
    195  N        -21.1410   17.6610   27.9780 N.am  180  SER180     -0.1949
    196  CA       -22.0090   16.9920   28.9430 C.3   180  SER180      0.1924
    197  C        -23.1240   17.9350   29.3890 C.2   180  SER180      0.2314
    198  O        -22.9060   19.1410   29.5570 O.2   180  SER180     -0.2863
    199  CB       -21.2210   16.5040   30.1510 C.3   180  SER180      0.2116
    200  OG       -20.2570   15.5460   29.7630 O.3   180  SER180     -0.2180
@<TRIPOS>BOND
     1   112   111    2
     2   177   176    2
     3   111   110    1
     4   176   175    1
     5   180   179    1
     6   178   175    1
     7   178   179    1
     8   181   179    1
     9   110   109    1
    10   110   113    1
    11   175   174    1
    12   100    99    2
    13   113   114    1
    14   118   119    1
    15   158   157    2
    16    99    98    1
    17   174   169   am
    18   170   169    2
    19   139   137    1
    20   114   115    1
    21   169   168    1
    22    88    89    1
    23   122   119    1
    24   122   123    1
    25   119   120    1
    26   121   120    2
    27   157   156    1
    28   157   159   am
    29   156   155    1
    30   138   137    1
    31   162   161    2
    32    98    97    1
    33    98   101    1
    34    97    90   am
    35   101   102    1
    36   137   134    1
    37   120   126   am
    38   161   160    1
    39   161   167   am
    40    90    89    1
    41    90    91    2
    42   115   117   ar
    43   115   116   ar
    44   151   150    2
    45    89    92    1
    46   159   160    1
    47   160   163    1
    48   168   167    1
    49   168   171    1
    50   123   125   ar
    51   123   124   ar
    52   155   150   am
    53   104   102   ar
    54   104   106   ar
    55   102   103   ar
    56   165   164    2
    57   150   149    1
    58   126   127    1
    59   134   133    1
    60   134   135    1
    61   171   173    1
    62   171   172    1
    63   133   128   am
    64    92    93    1
    65   163   164    1
    66   128   129    2
    67   128   127    1
    68   106   107   ar
    69   164   166   am
    70   127   130    1
    71   135   136    2
    72   135   140   am
    73   103   105   ar
    74   143   142    2
    75   149   148    1
    76   149   152    1
    77   140   141    1
    78   142   148   am
    79   142   141    1
    80    93    94    1
    81   107   105   ar
    82   107   108    1
    83   153   152    1
    84   152   154    1
    85   130   131    1
    86   130   132    1
    87   141   144    1
    88   188   186    1
    89    84    85    2
    90    84    83    1
    91    94    95    1
    92   182   183    1
    93    56    55    2
    94    95    96    1
    95    57    54    1
    96    57    58    1
    97    54    55    1
    98    54    53    1
    99   186   183    1
   100   186   187    1
   101   144   145    1
   102    83    86    1
   103    83    82    1
   104    55    61   am
   105    86    87    1
   106   183   184    1
   107   146   145   ar
   108    60    58   ar
   109   145   147   ar
   110    58    59   ar
   111    82    75   am
   112    61    62    1
   113    64    63    2
   114   184   185    2
   115   184   189   am
   116    63    62    1
   117    62    65    1
   118    75    76    2
   119    75    74    1
   120   189   190    1
   121    80    79    2
   122    65    67    1
   123    65    66    1
   124    77    74    1
   125    77    78    1
   126    74    73    1
   127    23    22    1
   128    52    51    2
   129   190   193    1
   130   190   191    1
   131    51    50    1
   132    79    78    1
   133    79    81   am
   134   194   193    1
   135    71    70    2
   136   192   191    2
   137    22    24    1
   138    22    21    2
   139    73    70   am
   140   191   195   am
   141    50    49    1
   142    70    69    1
   143    20    21    1
   144    20    19    1
   145   195   196    1
   146    43    41    1
   147    69    72    1
   148    69    68    1
   149    48    45    1
   150    46    47    2
   151    46    45    1
   152    19    18    1
   153    18    15    1
   154   196   197    1
   155   196   199    1
   156    40    41    2
   157    40    39    1
   158    41    42    1
   159    32    30    1
   160    45    44    1
   161    38    39    1
   162    38    37    1
   163   197   198    2
   164   200   199    1
   165    30    29    1
   166    44    35   am
   167    37    34    1
   168    15    14    1
   169    15    16    1
   170    14    12   am
   171    35    36    2
   172    35    34    1
   173    16    25   am
   174    16    17    2
   175    34    33    1
   176    25    26    1
   177    29    26    1
   178    29    31    1
   179    26    27    1
   180    12    11    1
   181    12    13    2
   182    11    10    1
   183    10     3   am
   184    27    28    2
   185     1     2    1
   186     5     2    1
   187     5     6    1
   188     3     2    1
   189     3     4    2
   190     8     9    1
   191     8     7    1
   192     6     7    1
