@<TRIPOS>MOLECULE
tmp/6fuaD00.pdb
 90 86 0 0 0
SMALL
GASTEIGER

@<TRIPOS>ATOM
      1  N         36.2280   11.7680   32.3180 N.3    13  ARG13      -0.1245
      2  CA        36.3000   13.1710   31.8640 C.3    13  ARG13       0.1563
      3  C         35.2160   14.0950   32.4310 C.2    13  ARG13       0.2260
      4  O         35.4820   15.2760   32.6640 O.2    13  ARG13      -0.2867
      5  CB        36.2630   13.2500   30.3220 C.3    13  ARG13       0.0307
      6  CG        37.0640   14.4010   29.7210 C.3    13  ARG13       0.0489
      7  CD        36.9160   14.4800   28.2070 C.3    13  ARG13       0.2205
      8  NE        38.2160   14.5230   27.5320 N.pl3  13  ARG13      -0.0865
      9  CZ        38.7970   13.5130   26.8740 C.cat  13  ARG13       0.5346
     10  NH1       38.2090   12.3210   26.7240 N.pl3  13  ARG13       0.1354
     11  NH2       39.9900   13.7080   26.3120 N.pl3  13  ARG13       0.1354
     12  N         35.4940    1.3010   19.4790 N.3   137  SER137     -0.1217
     13  CA        36.2820    2.3930   18.9000 C.3   137  SER137      0.1889
     14  C         36.2810    2.3350   17.3710 C.2   137  SER137      0.2288
     15  O         36.4410    1.2610   16.7790 O.2   137  SER137     -0.2866
     16  CB        37.7200    2.3660   19.4350 C.3   137  SER137      0.2089
     17  OG        37.7470    2.5590   20.8390 O.3   137  SER137     -0.2183
     18  N         38.0980    4.1630   14.9360 N.3   139  GLU139     -0.1245
     19  CA        39.2570    4.5940   14.1370 C.3   139  GLU139      0.1567
     20  C         39.6870    3.4990   13.1570 C.2   139  GLU139      0.2260
     21  O         40.1270    3.7910   12.0530 O.2   139  GLU139     -0.2867
     22  CB        40.4300    4.9970   15.0430 C.3   139  GLU139      0.0388
     23  CG        40.2010    6.2550   15.8950 C.3   139  GLU139      0.1160
     24  CD        39.6750    6.0000   17.3110 C.2   139  GLU139      0.3649
     25  OE1       39.6670    4.8430   17.7840 O.co2 139  GLU139     -0.2457
     26  OE2       39.2570    6.9790   17.9680 O.co2 139  GLU139     -0.2457
     27  N         32.7250   10.7950   14.9970 N.3   152  ASP152     -0.1225
     28  CA        33.2780   10.6200   16.3370 C.3   152  ASP152      0.1805
     29  C         33.4760   12.0020   16.9620 C.2   152  ASP152      0.2598
     30  O         33.3650   13.0460   16.2950 O.2   152  ASP152     -0.2718
     31  CB        34.6080    9.8360   16.2820 C.3   152  ASP152      0.1424
     32  CG        34.9840    9.1550   17.6220 C.2   152  ASP152      0.3668
     33  OD1       34.3930    9.4620   18.6860 O.co2 152  ASP152     -0.2456
     34  OD2       35.8780    8.2790   17.6050 O.co2 152  ASP152     -0.2456
     35  N         33.7060   11.9900   18.2650 N.am  153  VAL153     -0.1966
     36  CA        34.0870   13.1870   18.9950 C.3   153  VAL153      0.1727
     37  C         35.6010   13.3790   18.9600 C.2   153  VAL153      0.2616
     38  O         36.3600   12.4150   19.0590 O.2   153  VAL153     -0.2715
     39  CB        33.5410   13.1960   20.4390 C.3   153  VAL153      0.0290
     40  CG1       32.0280   13.2600   20.3960 C.3   153  VAL153      0.0023
     41  CG2       34.0600   12.0280   21.2690 C.3   153  VAL153      0.0023
     42  N         36.0070   14.6310   18.8010 N.am  154  VAL154     -0.1963
     43  CA        37.4090   15.0040   18.6600 C.3   154  VAL154      0.1727
     44  C         37.6430   16.3370   19.3440 C.2   154  VAL154      0.2616
     45  O         36.8980   17.2830   19.1200 O.2   154  VAL154     -0.2715
     46  CB        37.8450   15.0950   17.1750 C.3   154  VAL154      0.0290
     47  CG1       37.8860   13.7030   16.5630 C.3   154  VAL154      0.0023
     48  CG2       36.9620   16.0210   16.3250 C.3   154  VAL154      0.0023
     49  N         38.6540   16.3950   20.2090 N.am  155  ASP155     -0.1957
     50  CA        39.0720   17.6450   20.8290 C.3   155  ASP155      0.1840
     51  C         40.2600   18.1880   20.0500 C.2   155  ASP155      0.2623
     52  O         40.1370   19.2080   19.3870 O.2   155  ASP155     -0.2715
     53  CB        39.4030   17.4340   22.3120 C.3   155  ASP155      0.1450
     54  CG        39.8090   18.7170   23.0230 C.2   155  ASP155      0.3671
     55  OD1       39.5250   19.8300   22.5250 O.co2 155  ASP155     -0.2456
     56  OD2       40.3980   18.6040   24.1130 O.co2 155  ASP155     -0.2456
     57  N         41.3890   17.4890   20.1210 N.am  156  THR156     -0.1937
     58  CA        42.6390   17.9360   19.5240 C.3   156  THR156      0.2028
     59  C         42.8730   17.3660   18.1300 C.2   156  THR156      0.2643
     60  O         43.3600   18.0800   17.2570 O.2   156  THR156     -0.2714
     61  CB        43.8220   17.5650   20.4320 C.3   156  THR156      0.1808
     62  OG1       43.7450   16.1760   20.7670 O.3   156  THR156     -0.2208
     63  CG2       43.7840   18.3980   21.7070 C.3   156  THR156      0.0379
     64  N         42.5180   16.0990   17.9220 N.am  157  GLY157     -0.1939
     65  CA        42.7920   15.3900   16.6520 C.3   157  GLY157      0.2014
     66  C         43.9370   14.3990   16.7290 C.2   157  GLY157      0.2639
     67  O         44.3220   13.8150   15.7130 O.2   157  GLY157     -0.2714
     68  N         44.5300   14.2520   17.9110 N.am  158  ASN158     -0.1958
     69  CA        45.7200   13.4190   18.0750 C.3   158  ASN158      0.1819
     70  C         45.3960   11.9480   17.9020 C.2   158  ASN158      0.2622
     71  O         46.1430   11.2350   17.2410 O.2   158  ASN158     -0.2715
     72  CB        46.3890   13.6670   19.4290 C.3   158  ASN158      0.1195
     73  CG        46.9620   15.0730   19.5420 C.2   158  ASN158      0.2630
     74  OD1       46.7050   15.7830   20.5100 O.2   158  ASN158     -0.2716
     75  ND2       47.7190   15.4910   18.5340 N.am  158  ASN158     -0.0877
     76  N         44.2860   11.4940   18.4810 N.am  159  THR159     -0.1937
     77  CA        43.8220   10.1170   18.2800 C.3   159  THR159      0.2028
     78  C         43.5460    9.8450   16.8010 C.2   159  THR159      0.2642
     79  O         43.8450    8.7590   16.3070 O.2   159  THR159     -0.2714
     80  CB        42.5540    9.8190   19.1020 C.3   159  THR159      0.1808
     81  OG1       42.6930   10.3770   20.4120 O.3   159  THR159     -0.2208
     82  CG2       42.3100    8.3120   19.2060 C.3   159  THR159      0.0379
     83  N         43.0090   10.8470   16.1030 N.am  160  LEU160     -0.1977
     84  CA        42.7220   10.7440   14.6700 C.3   160  LEU160      0.1596
     85  C         43.9860   10.6080   13.8100 C.2   160  LEU160      0.2287
     86  O         44.0720    9.7260   12.9370 O.2   160  LEU160     -0.2864
     87  CB        41.9000   11.9560   14.1970 C.3   160  LEU160      0.0297
     88  CG        40.3850   11.9780   14.4270 C.3   160  LEU160      0.0022
     89  CD1       39.7790   13.1140   13.6120 C.3   160  LEU160      0.0001
     90  CD2       39.7150   10.6560   14.0680 C.3   160  LEU160      0.0001
@<TRIPOS>BOND
     1    21    20    2
     2    86    85    2
     3    20    19    1
     4    89    88    1
     5    85    84    1
     6    90    88    1
     7    19    18    1
     8    19    22    1
     9    87    88    1
    10    87    84    1
    11    84    83    1
    12    27    28    1
    13    22    23    1
    14    67    66    2
    15    23    24    1
    16    83    78   am
    17    31    28    1
    18    31    32    1
    19    30    29    2
    20    79    78    2
    21    48    46    1
    22    28    29    1
    23    47    46    1
    24    65    66    1
    25    65    64    1
    26    66    68   am
    27    15    14    2
    28    78    77    1
    29    29    35   am
    30    46    43    1
    31    71    70    2
    32    60    59    2
    33    24    25   ar
    34    24    26   ar
    35    14    13    1
    36    34    32   ar
    37    32    33   ar
    38    70    69    1
    39    70    76   am
    40    68    69    1
    41    64    59   am
    42    69    72    1
    43    59    58    1
    44    35    36    1
    45    77    76    1
    46    77    80    1
    47    75    73   am
    48    43    42    1
    49    43    44    1
    50    42    37   am
    51    13    16    1
    52    13    12    1
    53    37    36    1
    54    37    38    2
    55    36    39    1
    56    80    82    1
    57    80    81    1
    58    45    44    2
    59    44    49   am
    60    52    51    2
    61    72    73    1
    62    16    17    1
    63    58    57    1
    64    58    61    1
    65    73    74    2
    66    51    57   am
    67    51    50    1
    68    49    50    1
    69    40    39    1
    70    61    62    1
    71    61    63    1
    72    39    41    1
    73    50    53    1
    74    53    54    1
    75    55    54   ar
    76    54    56   ar
    77    11     9    1
    78    10     9    1
    79     9     8    2
    80     8     7    1
    81     7     6    1
    82     6     5    1
    83     5     2    1
    84     2     1    1
    85     2     3    1
    86     3     4    2
