@<TRIPOS>MOLECULE
tmp/6fuaD01.pdb
 164 155 0 0 0
SMALL
GASTEIGER

@<TRIPOS>ATOM
      1  N         28.9610   10.2230   34.5070 N.3    10  SER10      -0.1202
      2  CA        29.8520    9.4120   33.6700 C.3    10  SER10       0.2020
      3  C         31.2560    9.4240   34.2770 C.2    10  SER10       0.2619
      4  O         31.7950   10.5080   34.5510 O.2    10  SER10      -0.2717
      5  CB        29.9160    9.9610   32.2330 C.3    10  SER10       0.2103
      6  OG        28.7980   10.7840   31.9140 O.3    10  SER10      -0.2182
      7  N         31.8400    8.2390   34.4800 N.am   11  LYS11      -0.1965
      8  CA        33.1900    8.1140   35.0540 C.3    11  LYS11       0.1728
      9  C         34.2620    8.6740   34.1010 C.2    11  LYS11       0.2617
     10  O         34.2070    8.4110   32.8920 O.2    11  LYS11      -0.2715
     11  CB        33.5180    6.6450   35.3540 C.3    11  LYS11       0.0311
     12  CG        34.8000    6.4670   36.1300 C.3    11  LYS11       0.0038
     13  CD        35.5020    5.1510   35.8030 C.3    11  LYS11       0.0206
     14  CE        36.9590    5.1720   36.2360 C.3    11  LYS11       0.1093
     15  NZ        37.8580    5.8260   35.2380 N.3    11  LYS11      -0.1314
     16  N         35.2560    9.3650   34.6580 N.am   12  GLY12      -0.1940
     17  CA        36.3610    9.9260   33.8870 C.3    12  GLY12       0.2014
     18  C         36.2100   11.4130   33.6010 C.2    12  GLY12       0.2639
     19  O         36.0610   12.2220   34.5210 O.2    12  GLY12      -0.2714
     20  N         36.2280   11.7680   32.3180 N.am   13  ARG13      -0.1963
     21  CA        36.3000   13.1710   31.8640 C.3    13  ARG13       0.1729
     22  C         35.2160   14.0950   32.4310 C.2    13  ARG13       0.2616
     23  O         35.4820   15.2760   32.6640 O.2    13  ARG13      -0.2715
     24  CB        36.2630   13.2500   30.3220 C.3    13  ARG13       0.0348
     25  CG        37.0640   14.4010   29.7210 C.3    13  ARG13       0.0492
     26  CD        36.9160   14.4800   28.2070 C.3    13  ARG13       0.2205
     27  NE        38.2160   14.5230   27.5320 N.pl3  13  ARG13      -0.0865
     28  CZ        38.7970   13.5130   26.8740 C.cat  13  ARG13       0.5346
     29  NH1       38.2090   12.3210   26.7240 N.pl3  13  ARG13       0.1354
     30  NH2       39.9900   13.7080   26.3120 N.pl3  13  ARG13       0.1354
     31  N         34.0110   13.5690   32.6340 N.am   14  ILE14      -0.1977
     32  CA        32.8680   14.3770   33.0720 C.3    14  ILE14       0.1596
     33  C         32.9450   14.6020   34.5820 C.2    14  ILE14       0.2287
     34  O         32.8820   15.7370   35.0460 O.2    14  ILE14      -0.2864
     35  CB        31.5150   13.7130   32.6830 C.3    14  ILE14       0.0276
     36  CG1       31.4740   13.4190   31.1760 C.3    14  ILE14       0.0022
     37  CG2       30.3310   14.5980   33.1010 C.3    14  ILE14       0.0022
     38  CD1       31.2040   14.6230   30.3190 C.3    14  ILE14       0.0001
     39  N         35.6660   17.0910   35.5440 N.3    17  GLU17      -0.1245
     40  CA        35.3630   18.4750   35.1570 C.3    17  GLU17       0.1567
     41  C         34.1080   19.0740   35.8100 C.2    17  GLU17       0.2260
     42  O         33.8930   20.2850   35.7060 O.2    17  GLU17      -0.2867
     43  CB        35.2840   18.6030   33.6290 C.3    17  GLU17       0.0388
     44  CG        36.6410   18.3980   32.9510 C.3    17  GLU17       0.1160
     45  CD        36.6640   18.8020   31.4970 C.2    17  GLU17       0.3649
     46  OE1       36.1340   19.8920   31.1680 O.co2  17  GLU17      -0.2457
     47  OE2       37.2100   18.0410   30.6740 O.co2  17  GLU17      -0.2457
     48  N         27.8600    4.4310   32.3140 N.3    49  ARG49      -0.1231
     49  CA        28.3590    4.7810   30.9910 C.3    49  ARG49       0.1694
     50  C         27.6540    6.0520   30.5450 C.2    49  ARG49       0.2592
     51  O         26.4710    6.2170   30.8200 O.2    49  ARG49      -0.2718
     52  CB        28.0960    3.6540   29.9820 C.3    49  ARG49       0.0321
     53  CG        29.2510    2.6650   29.7540 C.3    49  ARG49       0.0489
     54  CD        29.1710    2.0540   28.3510 C.3    49  ARG49       0.2205
     55  NE        30.4510    1.5610   27.8190 N.pl3  49  ARG49      -0.0865
     56  CZ        30.8550    0.2860   27.7750 C.cat  49  ARG49       0.5346
     57  NH1       30.1070   -0.7040   28.2620 N.pl3  49  ARG49       0.1354
     58  NH2       32.0440   -0.0010   27.2450 N.pl3  49  ARG49       0.1354
     59  N         28.3780    6.9280   29.8570 N.am   50  ALA50      -0.1966
     60  CA        27.8480    8.2350   29.4480 C.3    50  ALA50       0.1728
     61  C         26.6130    8.1850   28.5460 C.2    50  ALA50       0.2616
     62  O         25.8510    9.1490   28.5050 O.2    50  ALA50      -0.2715
     63  CB        28.9350    9.0590   28.7680 C.3    50  ALA50       0.0334
     64  N         26.4320    7.0780   27.8240 N.am   51  SER51      -0.1950
     65  CA        25.2730    6.8740   26.9490 C.3    51  SER51       0.1924
     66  C         24.0300    6.3930   27.6960 C.2    51  SER51       0.2314
     67  O         22.9440    6.3260   27.1310 O.2    51  SER51      -0.2863
     68  CB        25.6350    5.8820   25.8500 C.3    51  SER51       0.2116
     69  OG        26.3140    4.7750   26.4050 O.3    51  SER51      -0.2180
     70  N         27.0800   14.5560   27.7480 N.3    68  GLY68      -0.1225
     71  CA        27.4580   15.3350   26.5760 C.3    68  GLY68       0.1811
     72  C         26.3350   15.5030   25.5730 C.2    68  GLY68       0.2280
     73  O         25.5160   14.6070   25.4070 O.2    68  GLY68      -0.2866
     74  N         26.6000   15.3100   22.5170 N.3    70  ASP70      -0.1225
     75  CA        26.7320   14.2050   21.5750 C.3    70  ASP70       0.1805
     76  C         25.7680   13.0610   21.9280 C.2    70  ASP70       0.2597
     77  O         25.0820   12.5480   21.0480 O.2    70  ASP70      -0.2718
     78  CB        28.1850   13.7250   21.4670 C.3    70  ASP70       0.1424
     79  CG        28.7810   13.3210   22.8040 C.2    70  ASP70       0.3668
     80  OD1       28.6730   14.1190   23.7510 O.co2  70  ASP70      -0.2456
     81  OD2       29.3690   12.2270   22.8900 O.co2  70  ASP70      -0.2456
     82  N         25.6700   12.7120   23.2110 N.am   71  VAL71      -0.1980
     83  CA        24.7630   11.6450   23.6440 C.3    71  VAL71       0.1595
     84  C         23.3050   12.0950   23.5270 C.2    71  VAL71       0.2287
     85  O         22.4760   11.3330   23.0500 O.2    71  VAL71      -0.2864
     86  CB        25.0330   11.1630   25.0870 C.3    71  VAL71       0.0276
     87  CG1       24.1360    9.9790   25.4270 C.3    71  VAL71       0.0022
     88  CG2       26.4920   10.7630   25.2680 C.3    71  VAL71       0.0022
     89  N         33.9070   19.6910   29.4040 N.3    89  ALA89      -0.1231
     90  CA        34.0690   18.4860   28.5840 C.3    89  ALA89       0.1694
     91  C         33.6690   18.7810   27.1420 C.2    89  ALA89       0.2592
     92  O         32.7410   18.1760   26.5920 O.2    89  ALA89      -0.2718
     93  CB        33.2760   17.3290   29.1710 C.3    89  ALA89       0.0304
     94  N         34.3700   19.7530   26.5570 N.am   90  GLN90      -0.1966
     95  CA        34.0390   20.2690   25.2370 C.3    90  GLN90       0.1733
     96  C         34.7810   19.5030   24.1570 C.2    90  GLN90       0.2616
     97  O         35.9280   19.0910   24.3350 O.2    90  GLN90      -0.2715
     98  CB        34.3670   21.7580   25.1270 C.3    90  GLN90       0.0408
     99  CG        33.7250   22.6070   26.2030 C.3    90  GLN90       0.0908
    100  CD        33.9490   24.0870   26.0020 C.2    90  GLN90       0.2608
    101  OE1       34.9960   24.6240   26.3640 O.2    90  GLN90      -0.2717
    102  NE2       32.9520   24.7610   25.4460 N.am   90  GLN90      -0.0878
    103  N         34.1070   19.3330   23.0260 N.am   91  CYS91      -0.1968
    104  CA        34.6510   18.6130   21.8830 C.3    91  CYS91       0.1712
    105  C         33.7510   18.9230   20.6870 C.2    91  CYS91       0.2296
    106  O         32.9610   19.8730   20.7400 O.2    91  CYS91      -0.2864
    107  CB        34.7470   17.1070   22.1970 C.3    91  CYS91       0.0983
    108  SG        33.2720   16.3940   22.9480 S.3    91  CYS91      -0.0798
    109  N         29.2910    5.0720   16.0360 N.3   113  LYS113     -0.1231
    110  CA        28.3930    5.0430   17.1950 C.3   113  LYS113      0.1693
    111  C         27.1800    5.9400   16.9680 C.2   113  LYS113      0.2592
    112  O         26.0440    5.5500   17.2740 O.2   113  LYS113     -0.2718
    113  CB        29.1010    5.5250   18.4650 C.3   113  LYS113      0.0285
    114  CG        30.0510    4.5160   19.0900 C.3   113  LYS113      0.0035
    115  CD        30.6440    5.0050   20.4040 C.3   113  LYS113      0.0206
    116  CE        29.6470    4.9260   21.5530 C.3   113  LYS113      0.1093
    117  NZ        30.2640    5.3330   22.8440 N.3   113  LYS113     -0.1314
    118  N         27.4250    7.1240   16.4080 N.am  114  TYR114     -0.1976
    119  CA        26.4210    8.1840   16.3310 C.3   114  TYR114      0.1639
    120  C         25.5650    8.0770   15.0560 C.2   114  TYR114      0.2290
    121  O         25.5730    8.9610   14.1920 O.2   114  TYR114     -0.2864
    122  CB        27.1020    9.5560   16.4310 C.3   114  TYR114      0.0560
    123  CG        27.9950    9.7340   17.6490 C.ar  114  TYR114     -0.0198
    124  CD1       27.4810   10.2340   18.8490 C.ar  114  TYR114     -0.0009
    125  CD2       29.3590    9.4200   17.5990 C.ar  114  TYR114     -0.0009
    126  CE1       28.2970   10.4090   19.9630 C.ar  114  TYR114      0.0417
    127  CE2       30.1780    9.5910   18.7090 C.ar  114  TYR114      0.0417
    128  CZ        29.6440   10.0820   19.8890 C.ar  114  TYR114      0.1957
    129  OH        30.4720   10.2600   20.9780 O.3   114  TYR114     -0.2866
    130  N         33.7060   11.9900   18.2650 N.3   153  VAL153     -0.1231
    131  CA        34.0870   13.1870   18.9950 C.3   153  VAL153      0.1692
    132  C         35.6010   13.3790   18.9600 C.2   153  VAL153      0.2592
    133  O         36.3600   12.4150   19.0590 O.2   153  VAL153     -0.2718
    134  CB        33.5410   13.1960   20.4390 C.3   153  VAL153      0.0266
    135  CG1       32.0280   13.2600   20.3960 C.3   153  VAL153      0.0020
    136  CG2       34.0600   12.0280   21.2690 C.3   153  VAL153      0.0020
    137  N         36.0070   14.6310   18.8010 N.am  154  VAL154     -0.1966
    138  CA        37.4090   15.0040   18.6600 C.3   154  VAL154      0.1727
    139  C         37.6430   16.3370   19.3440 C.2   154  VAL154      0.2616
    140  O         36.8980   17.2830   19.1200 O.2   154  VAL154     -0.2715
    141  CB        37.8450   15.0950   17.1750 C.3   154  VAL154      0.0290
    142  CG1       37.8860   13.7030   16.5630 C.3   154  VAL154      0.0023
    143  CG2       36.9620   16.0210   16.3250 C.3   154  VAL154      0.0023
    144  N         38.6540   16.3950   20.2090 N.am  155  ASP155     -0.1971
    145  CA        39.0720   17.6450   20.8290 C.3   155  ASP155      0.1709
    146  C         40.2600   18.1880   20.0500 C.2   155  ASP155      0.2293
    147  O         40.1370   19.2080   19.3870 O.2   155  ASP155     -0.2864
    148  CB        39.4030   17.4340   22.3120 C.3   155  ASP155      0.1436
    149  CG        39.8090   18.7170   23.0230 C.2   155  ASP155      0.3671
    150  OD1       39.5250   19.8300   22.5250 O.co2 155  ASP155     -0.2456
    151  OD2       40.3980   18.6040   24.1130 O.co2 155  ASP155     -0.2456
    152  N         30.1820   20.5050   20.8750 N.3   174  VAL174     -0.1245
    153  CA        29.7160   19.6590   21.9730 C.3   174  VAL174      0.1561
    154  C         30.2890   20.1190   23.3050 C.2   174  VAL174      0.2260
    155  O         31.4680   20.4700   23.4130 O.2   174  VAL174     -0.2867
    156  CB        30.0820   18.1790   21.7400 C.3   174  VAL174      0.0252
    157  CG1       29.8510   17.3300   22.9910 C.3   174  VAL174      0.0019
    158  CG2       29.3020   17.6360   20.5550 C.3   174  VAL174      0.0019
    159  N         29.1590   19.1250   27.7120 N.3   176  SER176     -0.1217
    160  CA        28.2370   18.4350   28.6060 C.3   176  SER176      0.1889
    161  C         27.1480   19.3730   29.1140 C.2   176  SER176      0.2288
    162  O         27.3840   20.5630   29.3210 O.2   176  SER176     -0.2866
    163  CB        28.9930   17.7570   29.7400 C.3   176  SER176      0.2089
    164  OG        29.7800   16.7200   29.1960 O.3   176  SER176     -0.2183
@<TRIPOS>BOND
     1   121   120    2
     2   120   119    1
     3   109   110    1
     4   143   141    1
     5   119   118    1
     6   119   122    1
     7   118   111   am
     8   122   123    1
     9   142   141    1
    10   111   110    1
    11   111   112    2
    12   141   138    1
    13   110   113    1
    14   125   123   ar
    15   125   127   ar
    16   123   124   ar
    17   130   131    1
    18   113   114    1
    19   138   137    1
    20   138   139    1
    21   127   128   ar
    22   137   132   am
    23   124   126   ar
    24   132   131    1
    25   132   133    2
    26   131   134    1
    27   114   115    1
    28   140   139    2
    29   139   144   am
    30   147   146    2
    31   128   126   ar
    32   128   129    1
    33   146   145    1
    34   144   145    1
    35   135   134    1
    36   115   116    1
    37   134   136    1
    38   158   156    1
    39   105   106    2
    40   105   104    1
    41   145   148    1
    42   152   153    1
    43    77    76    2
    44    78    75    1
    45    78    79    1
    46   116   117    1
    47    75    76    1
    48    75    74    1
    49   156   153    1
    50   156   157    1
    51   104   107    1
    52   104   103    1
    53    76    82   am
    54   153   154    1
    55   107   108    1
    56   148   149    1
    57   150   149   ar
    58    79    81   ar
    59    79    80   ar
    60   149   151   ar
    61   103    96   am
    62    85    84    2
    63    82    83    1
    64   154   155    2
    65    84    83    1
    66    83    86    1
    67    96    97    2
    68    96    95    1
    69    86    88    1
    70    86    87    1
    71    98    95    1
    72    98    99    1
    73    95    94    1
    74    73    72    2
    75   102   100   am
    76    72    71    1
    77    68    69    1
    78    68    65    1
    79   100    99    1
    80   100   101    2
    81    30    28    1
    82    94    91   am
    83    71    70    1
    84    92    91    2
    85    29    28    1
    86    28    27    2
    87    65    66    1
    88    65    64    1
    89    67    66    2
    90    91    90    1
    91    58    56    1
    92    27    26    1
    93   159   160    1
    94    56    55    2
    95    56    57    1
    96    55    54    1
    97    64    61   am
    98    26    25    1
    99    54    53    1
   100    62    61    2
   101    61    60    1
   102    90    93    1
   103    90    89    1
   104   160   161    1
   105   160   163    1
   106    63    60    1
   107   161   162    2
   108   164   163    1
   109    60    59    1
   110    25    24    1
   111    53    52    1
   112    59    50   am
   113    52    49    1
   114    38    36    1
   115    24    21    1
   116    50    51    2
   117    50    49    1
   118    47    45   ar
   119    49    48    1
   120    46    45   ar
   121    36    35    1
   122    45    44    1
   123    21    20    1
   124    21    22    1
   125     6     5    1
   126     5     2    1
   127    20    18   am
   128    22    31   am
   129    22    23    2
   130    31    32    1
   131    35    32    1
   132    35    37    1
   133    10     9    2
   134    44    43    1
   135    32    33    1
   136    18    17    1
   137    18    19    2
   138    43    40    1
   139     2     3    1
   140     2     1    1
   141    17    16    1
   142     9    16   am
   143     9     8    1
   144     3     7   am
   145     3     4    2
   146     7     8    1
   147    33    34    2
   148     8    11    1
   149    40    39    1
   150    40    41    1
   151    15    14    1
   152    11    12    1
   153    42    41    2
   154    13    12    1
   155    13    14    1
