@<TRIPOS>MOLECULE
tmp/6fugE00.pdb
 120 114 0 0 0
SMALL
GASTEIGER

@<TRIPOS>ATOM
      1  N         11.3530  -17.5070   29.6560 N.3     2  LEU2       -0.1245
      2  CA        12.6410  -16.8520   29.9110 C.3     2  LEU2        0.1561
      3  C         13.5230  -17.8080   30.6510 C.2     2  LEU2        0.2260
      4  O         13.0680  -18.4800   31.5620 O.2     2  LEU2       -0.2867
      5  CB        12.4990  -15.5780   30.7570 C.3     2  LEU2        0.0270
      6  CG        11.5870  -14.4580   30.2870 C.3     2  LEU2        0.0019
      7  CD1       11.7450  -13.2300   31.2070 C.3     2  LEU2        0.0001
      8  CD2       11.8970  -14.0590   28.8760 C.3     2  LEU2        0.0001
      9  N          7.4390  -15.4770   24.7250 N.3   126  ILE126     -0.1245
     10  CA         8.6690  -14.7070   24.4640 C.3   126  ILE126      0.1561
     11  C          9.8600  -15.1780   25.3120 C.2   126  ILE126      0.2260
     12  O          9.6860  -15.5800   26.4810 O.2   126  ILE126     -0.2867
     13  CB         8.4790  -13.1560   24.6310 C.3   126  ILE126      0.0252
     14  CG1        8.1800  -12.7630   26.0880 C.3   126  ILE126      0.0019
     15  CG2        7.3940  -12.6620   23.6800 C.3   126  ILE126      0.0019
     16  CD1        8.0790  -11.2660   26.3030 C.3   126  ILE126      0.0001
     17  N         13.3610  -10.0930   27.2660 N.3   129  HIS129     -0.1241
     18  CA        12.5750   -8.8910   27.5940 C.3   129  HIS129      0.1621
     19  C         12.3260   -8.0000   26.3700 C.2   129  HIS129      0.2264
     20  O         11.4010   -7.1930   26.3800 O.2   129  HIS129     -0.2867
     21  CB        13.2110   -8.0950   28.7400 C.3   129  HIS129      0.0745
     22  CG        13.4160   -8.8960   29.9880 C.ar  129  HIS129      0.0817
     23  ND1       12.4890   -8.9750   31.0070 N.ar  129  HIS129     -0.2268
     24  CD2       14.4400   -9.6980   30.3560 C.ar  129  HIS129      0.1154
     25  CE1       12.9490   -9.7800   31.9470 C.ar  129  HIS129      0.1986
     26  NE2       14.1340  -10.2210   31.5850 N.ar  129  HIS129     -0.2212
     27  N         10.9990   -9.1950   23.7410 N.3   131  GLY131     -0.1225
     28  CA         9.8120   -9.7430   23.0840 C.3   131  GLY131      0.1811
     29  C         10.0900  -10.6680   21.9140 C.2   131  GLY131      0.2280
     30  O          9.1920  -10.9560   21.0980 O.2   131  GLY131     -0.2866
     31  N         11.5020  -18.2470   34.0250 N.3   164  ASP164     -0.1225
     32  CA        10.0870  -17.8910   34.2200 C.3   164  ASP164      0.1805
     33  C          9.2360  -18.0780   32.9740 C.2   164  ASP164      0.2598
     34  O          9.7450  -18.1180   31.8710 O.2   164  ASP164     -0.2718
     35  CB         9.9790  -16.4300   34.6790 C.3   164  ASP164      0.1424
     36  CG         8.6500  -16.0960   35.3870 C.2   164  ASP164      0.3668
     37  OD1        7.8850  -16.9860   35.8030 O.co2 164  ASP164     -0.2456
     38  OD2        8.3730  -14.8800   35.5350 O.co2 164  ASP164     -0.2456
     39  N          7.9300  -18.1900   33.1740 N.am  165  SER165     -0.1938
     40  CA         6.9370  -18.0840   32.1110 C.3   165  SER165      0.2055
     41  C          6.7440  -16.6030   31.7570 C.2   165  SER165      0.2643
     42  O          7.0530  -15.7220   32.5750 O.2   165  SER165     -0.2714
     43  CB         5.6140  -18.7330   32.5240 C.3   165  SER165      0.2130
     44  OG         5.1190  -18.1330   33.7040 O.3   165  SER165     -0.2179
     45  N          6.2740  -16.3360   30.5420 N.am  166  CYS166     -0.1953
     46  CA         6.0800  -14.9500   30.1050 C.3   166  CYS166      0.1843
     47  C          5.0230  -14.8940   28.9750 C.2   166  CYS166      0.2625
     48  O          4.3830  -15.8990   28.6610 O.2   166  CYS166     -0.2714
     49  CB         7.4270  -14.3430   29.6480 C.3   166  CYS166      0.0997
     50  SG         7.4640  -12.5220   29.6570 S.3   166  CYS166     -0.0797
     51  N          4.8480  -13.7110   28.3980 N.am  167  LYS167     -0.1977
     52  CA         3.8630  -13.4580   27.3520 C.3   167  LYS167      0.1596
     53  C          3.8640  -14.4900   26.2360 C.2   167  LYS167      0.2287
     54  O          4.9080  -14.7570   25.6310 O.2   167  LYS167     -0.2864
     55  CB         4.0780  -12.0650   26.7380 C.3   167  LYS167      0.0298
     56  CG         3.0040  -11.6520   25.7450 C.3   167  LYS167      0.0038
     57  CD         3.4400  -10.6450   24.7000 C.3   167  LYS167      0.0206
     58  CE         2.3400  -10.5370   23.6460 C.3   167  LYS167      0.1093
     59  NZ         1.1000   -9.7770   24.0510 N.3   167  LYS167     -0.1314
     60  N          0.8990  -18.0930   28.5000 N.3   170  SER170     -0.1217
     61  CA        -0.3850  -18.2010   29.1570 C.3   170  SER170      0.1889
     62  C         -1.2110  -19.3110   28.5740 C.2   170  SER170      0.2288
     63  O         -1.2590  -19.4840   27.3290 O.2   170  SER170     -0.2866
     64  CB        -1.1620  -16.8760   29.0040 C.3   170  SER170      0.2089
     65  OG        -0.4630  -15.8620   29.7200 O.3   170  SER170     -0.2183
     66  N         -0.7080  -21.8140   33.2360 N.3   184  VAL184     -0.1231
     67  CA        -0.0850  -20.4900   33.3130 C.3   184  VAL184      0.1692
     68  C         -1.2190  -19.4080   33.1630 C.2   184  VAL184      0.2592
     69  O         -2.0440  -19.5060   32.2280 O.2   184  VAL184     -0.2718
     70  CB         0.9360  -20.2580   32.1900 C.3   184  VAL184      0.0266
     71  CG1        1.5860  -18.8760   32.3260 C.3   184  VAL184      0.0020
     72  CG2        2.0500  -21.3140   32.2160 C.3   184  VAL184      0.0020
     73  N         -1.2690  -18.4340   34.0800 N.am  185  THR185     -0.1953
     74  CA        -2.1770  -17.3030   33.9430 C.3   185  THR185      0.1897
     75  C         -1.4420  -16.0890   33.3890 C.2   185  THR185      0.2313
     76  O         -0.4810  -15.6750   33.9980 O.2   185  THR185     -0.2863
     77  CB        -2.7930  -16.8450   35.2780 C.3   185  THR185      0.1794
     78  OG1       -1.7260  -16.3650   36.0920 O.3   185  THR185     -0.2208
     79  CG2       -3.4500  -17.9290   35.9970 C.3   185  THR185      0.0378
     80  N          4.8770   -9.2470   35.1600 N.3   186  VAL186     -0.1231
     81  CA         6.3220   -9.2050   35.0970 C.3   186  VAL186      0.1692
     82  C          6.8750  -10.6130   34.8160 C.2   186  VAL186      0.2592
     83  O          6.2570  -11.6310   35.1510 O.2   186  VAL186     -0.2718
     84  CB         6.8850   -8.6250   36.4110 C.3   186  VAL186      0.0266
     85  CG1        8.4150   -8.6280   36.4790 C.3   186  VAL186      0.0020
     86  CG2        6.3750   -7.1970   36.5720 C.3   186  VAL186      0.0020
     87  N          8.0540  -10.6530   34.1990 N.am  187  CYS187     -0.1970
     88  CA         8.7440  -11.9100   33.8950 C.3   187  CYS187      0.1712
     89  C         10.1920  -11.8690   34.3720 C.2   187  CYS187      0.2296
     90  O         10.8610  -10.8470   34.2370 O.2   187  CYS187     -0.2864
     91  CB         8.7380  -12.1810   32.3890 C.3   187  CYS187      0.0983
     92  SG         7.1100  -12.0710   31.6040 S.3   187  CYS187     -0.0798
     93  N          8.3950  -11.4250   42.1400 N.3   192  LYS192     -0.1231
     94  CA         7.0450  -11.7760   41.6460 C.3   192  LYS192      0.1678
     95  C          6.9940  -13.1680   40.9840 C.2   192  LYS192      0.2434
     96  O          7.0930  -13.2940   39.7650 O.2   192  LYS192     -0.2733
     97  CB         6.5010  -10.7140   40.6720 C.3   192  LYS192      0.0284
     98  CG         6.2900   -9.3330   41.2630 C.3   192  LYS192      0.0035
     99  CD         7.5570   -8.5410   40.8690 C.3   192  LYS192      0.0206
    100  CE         7.6860   -7.1290   41.3400 C.3   192  LYS192      0.1093
    101  NZ         8.1990   -6.2010   40.2380 N.3   192  LYS192     -0.1314
    102  N          6.8360  -14.2320   41.8050 N.am  193  PRO193     -0.2718
    103  CA         6.6840  -15.6110   41.3370 C.3   193  PRO193      0.1535
    104  C          5.6260  -15.7860   40.2530 C.2   193  PRO193      0.2599
    105  O          4.6220  -15.0810   40.2640 O.2   193  PRO193     -0.2715
    106  CB         6.2420  -16.3510   42.5910 C.3   193  PRO193      0.0310
    107  CG         6.8440  -15.5820   43.7030 C.3   193  PRO193      0.0237
    108  CD         6.7530  -14.1530   43.2750 C.3   193  PRO193      0.0939
    109  N          5.8580  -16.7190   39.3320 N.am  194  GLY194     -0.1941
    110  CA         4.8360  -17.0740   38.3440 C.3   194  GLY194      0.2014
    111  C          3.6360  -17.5900   39.0650 C.2   194  GLY194      0.2638
    112  O          3.7910  -18.3040   40.0370 O.2   194  GLY194     -0.2714
    113  N          2.4710  -17.1790   38.6230 N.am  195  ILE195     -0.1977
    114  CA         1.2100  -17.6270   39.1630 C.3   195  ILE195      0.1596
    115  C          0.5490  -18.6120   38.1950 C.2   195  ILE195      0.2287
    116  O          0.4700  -18.3760   36.9750 O.2   195  ILE195     -0.2864
    117  CB         0.2750  -16.4230   39.4300 C.3   195  ILE195      0.0276
    118  CG1        0.9480  -15.4720   40.4310 C.3   195  ILE195      0.0022
    119  CG2       -1.0570  -16.8830   40.0280 C.3   195  ILE195      0.0022
    120  CD1        0.2520  -14.1180   40.5480 C.3   195  ILE195      0.0001
@<TRIPOS>BOND
     1    30    29    2
     2    29    28    1
     3    28    27    1
     4    58    59    1
     5    58    57    1
     6    15    13    1
     7    10    13    1
     8    10     9    1
     9    10    11    1
    10    13    14    1
    11    57    56    1
    12    11    12    2
    13    54    53    2
    14    56    55    1
    15    14    16    1
    16    53    52    1
    17    19    20    2
    18    19    18    1
    19    55    52    1
    20    17    18    1
    21    63    62    2
    22    52    51    1
    23    18    21    1
    24    51    47   am
    25    60    61    1
    26    62    61    1
    27    48    47    2
    28    21    22    1
    29     8     6    1
    30    47    46    1
    31    64    61    1
    32    64    65    1
    33    49    50    1
    34    49    46    1
    35     1     2    1
    36    50    92    1
    37     2     3    1
    38     2     5    1
    39    22    24   ar
    40    22    23   ar
    41    46    45    1
    42     6     5    1
    43     6     7    1
    44    24    26   ar
    45    45    41   am
    46     3     4    2
    47    23    25   ar
    48    26    25   ar
    49    92    91    1
    50    41    40    1
    51    41    42    2
    52    34    33    2
    53    40    43    1
    54    40    39    1
    55    70    72    1
    56    70    71    1
    57    70    67    1
    58    69    68    2
    59    91    88    1
    60    43    44    1
    61    33    39   am
    62    33    32    1
    63    68    67    1
    64    68    73   am
    65    66    67    1
    66    75    74    1
    67    75    76    2
    68    88    87    1
    69    88    89    1
    70    74    73    1
    71    74    77    1
    72    31    32    1
    73    87    82   am
    74    32    35    1
    75    90    89    2
    76    35    36    1
    77    82    81    1
    78    82    83    2
    79    81    80    1
    80    81    84    1
    81    77    79    1
    82    77    78    1
    83    36    38   ar
    84    36    37   ar
    85    84    85    1
    86    84    86    1
    87   116   115    2
    88   115   114    1
    89   110   111    1
    90   110   109    1
    91   113   111   am
    92   113   114    1
    93   111   112    2
    94   114   117    1
    95   109   104   am
    96   117   119    1
    97   117   118    1
    98    96    95    2
    99   101   100    1
   100   104   105    2
   101   104   103    1
   102   118   120    1
   103    97    98    1
   104    97    94    1
   105    99    98    1
   106    99   100    1
   107    95    94    1
   108    95   102   am
   109   103   102    1
   110   103   106    1
   111    94    93    1
   112   102   108    1
   113   106   107    1
   114   108   107    1
