@<TRIPOS>MOLECULE
tmp/6fuhA00.pdb
 164 159 0 0 0
SMALL
GASTEIGER

@<TRIPOS>ATOM
      1  N         14.2590    9.7200    8.4460 N.3    25  LEU25      -0.1231
      2  CA        13.6060   10.0000    7.2020 C.3    25  LEU25       0.1693
      3  C         13.0600    8.7550    6.5060 C.2    25  LEU25       0.2592
      4  O         11.8890    8.7500    6.0790 O.2    25  LEU25      -0.2718
      5  CB        14.6260   10.8190    6.3020 C.3    25  LEU25       0.0284
      6  CG        14.1070   11.1130    4.9370 C.3    25  LEU25       0.0019
      7  CD1       12.8860   12.0480    4.9700 C.3    25  LEU25       0.0001
      8  CD2       15.2610   11.6960    4.1540 C.3    25  LEU25       0.0001
      9  N         13.9390    7.7950    6.2810 N.am   26  CYS26      -0.1970
     10  CA        13.6170    6.5740    5.5470 C.3    26  CYS26       0.1712
     11  C         14.2080    5.3840    6.1360 C.2    26  CYS26       0.2296
     12  O         15.1700    5.4680    6.8770 O.2    26  CYS26      -0.2864
     13  CB        14.1510    6.7070    4.0080 C.3    26  CYS26       0.0983
     14  SG        12.9960    7.6790    2.9980 S.3    26  CYS26      -0.0798
     15  N         13.8000    8.3010   -3.9090 N.3    41  HIS41      -0.1226
     16  CA        12.8750    9.3750   -3.5740 C.3    41  HIS41       0.1752
     17  C         13.1800    9.9340   -2.1680 C.2    41  HIS41       0.2596
     18  O         12.8650   11.0820   -1.9130 O.2    41  HIS41      -0.2718
     19  CB        11.4330    8.9450   -3.5880 C.3    41  HIS41       0.0759
     20  CG        10.8210    8.6140   -4.9200 C.ar   41  HIS41       0.0818
     21  ND1       10.7820    9.4920   -5.9890 N.ar   41  HIS41      -0.2268
     22  CD2       10.1340    7.5070   -5.3200 C.ar   41  HIS41       0.1154
     23  CE1       10.1360    8.9340   -7.0160 C.ar   41  HIS41       0.1986
     24  NE2        9.7580    7.7080   -6.6400 N.ar   41  HIS41      -0.2212
     25  N         13.8150    9.1660   -1.2850 N.am   42  CYS42      -0.1970
     26  CA        14.1580    9.6640    0.0550 C.3    42  CYS42       0.1712
     27  C         14.9610   10.9310   -0.0210 C.2    42  CYS42       0.2296
     28  O         14.7480   11.8160    0.8860 O.2    42  CYS42      -0.2864
     29  CB        14.8010    8.6320    0.8360 C.3    42  CYS42       0.0983
     30  SG        13.7620    7.2040    1.1680 S.3    42  CYS42      -0.0798
     31  N         15.3810   13.0040   -2.7380 N.3    44  GLU44      -0.1245
     32  CA        14.9620   13.8690   -3.8560 C.3    44  GLU44       0.1567
     33  C         15.1300   15.2670   -3.5390 C.2    44  GLU44       0.2260
     34  O         15.6150   16.0790   -4.3850 O.2    44  GLU44      -0.2867
     35  CB        13.4200   13.7580   -4.0270 C.3    44  GLU44       0.0388
     36  CG        13.3280   12.9640   -5.1510 C.3    44  GLU44       0.1160
     37  CD        11.9020   12.5630   -5.4160 C.2    44  GLU44       0.3649
     38  OE1       10.8530   13.2240   -5.1400 O.co2  44  GLU44      -0.2457
     39  OE2       11.9060   11.5430   -5.9800 O.co2  44  GLU44      -0.2457
     40  N          5.2510    5.9600   10.0810 N.3   130  ILE130     -0.1245
     41  CA         4.1130    6.2550   10.8840 C.3   130  ILE130      0.1561
     42  C          3.2710    5.0210   11.1660 C.2   130  ILE130      0.2260
     43  O          3.2080    4.1180   10.3480 O.2   130  ILE130     -0.2867
     44  CB         3.2660    7.3690   10.2890 C.3   130  ILE130      0.0252
     45  CG1        2.6300    7.0030    8.9480 C.3   130  ILE130      0.0019
     46  CG2        4.0860    8.6460   10.1190 C.3   130  ILE130      0.0019
     47  CD1        1.6790    8.0990    8.3820 C.3   130  ILE130      0.0001
     48  N          0.4010   -2.5050    6.3740 N.3   177  ASP177     -0.1225
     49  CA         1.1190   -1.8970    5.2170 C.3   177  ASP177      0.1805
     50  C          2.3890   -1.0720    5.6530 C.2   177  ASP177      0.2598
     51  O          2.4910   -0.7000    6.8550 O.2   177  ASP177     -0.2718
     52  CB         0.1810   -0.9790    4.4380 C.3   177  ASP177      0.1424
     53  CG         0.5740   -0.7120    2.9700 C.2   177  ASP177      0.3668
     54  OD1        1.5710   -1.2760    2.4860 O.co2 177  ASP177     -0.2456
     55  OD2       -0.1090    0.1720    2.3750 O.co2 177  ASP177     -0.2456
     56  N          3.2690   -0.9510    4.7360 N.am  178  SER178     -0.1938
     57  CA         4.3010    0.0820    4.8480 C.3   178  SER178      0.2055
     58  C          3.6900    1.4300    4.6690 C.2   178  SER178      0.2643
     59  O          2.7080    1.5500    3.9450 O.2   178  SER178     -0.2714
     60  CB         5.4350   -0.1410    3.8530 C.3   178  SER178      0.2130
     61  OG         4.8970   -0.2410    2.5190 O.3   178  SER178     -0.2179
     62  N          4.2940    2.4960    5.2440 N.am  179  CYS179     -0.1953
     63  CA         3.7890    3.8210    5.1400 C.3   179  CYS179      0.1843
     64  C          4.8900    4.8400    5.2220 C.2   179  CYS179      0.2625
     65  O          6.0790    4.5640    5.1150 O.2   179  CYS179     -0.2714
     66  CB         2.6920    4.0050    6.1600 C.3   179  CYS179      0.0997
     67  SG         1.5320    5.4300    5.8610 S.3   179  CYS179     -0.0797
     68  N          4.4530    6.1240    5.3280 N.am  180  LYS180     -0.1963
     69  CA         5.3620    7.2070    5.2340 C.3   180  LYS180      0.1728
     70  C          6.4420    7.0380    6.3210 C.2   180  LYS180      0.2616
     71  O          6.1620    6.7560    7.5110 O.2   180  LYS180     -0.2715
     72  CB         4.5880    8.4860    5.5730 C.3   180  LYS180      0.0311
     73  CG         5.4250    9.7520    5.4910 C.3   180  LYS180      0.0038
     74  CD         4.6490   10.9670    5.7690 C.3   180  LYS180      0.0206
     75  CE         5.3680   12.3320    5.5480 C.3   180  LYS180      0.1093
     76  NZ         6.4410   12.5560    6.4120 N.3   180  LYS180     -0.1314
     77  N          7.6890    7.1910    5.9570 N.am  181  GLY181     -0.1955
     78  CA         8.8640    6.8730    6.7680 C.3   181  GLY181      0.1869
     79  C          9.4310    5.4990    6.6610 C.2   181  GLY181      0.2309
     80  O         10.5190    5.2210    7.2220 O.2   181  GLY181     -0.2863
     81  N          9.6910    3.9870    3.4480 N.3   183  SER183     -0.1217
     82  CA        10.2590    3.7690    2.1330 C.3   183  SER183      0.1889
     83  C         11.7910    3.5510    2.2580 C.2   183  SER183      0.2288
     84  O         12.4700    4.0910    3.1900 O.2   183  SER183     -0.2866
     85  CB         9.4140    4.7150    1.0540 C.3   183  SER183      0.2089
     86  OG        10.3700    5.4990    0.8890 O.3   183  SER183     -0.2183
     87  N         11.1350   -1.0440   -0.1580 N.3   197  VAL197     -0.1231
     88  CA         9.8640   -0.3020   -0.1490 C.3   197  VAL197      0.1692
     89  C          9.9760    0.9040   -1.0560 C.2   197  VAL197      0.2593
     90  O         10.9810    1.6810   -0.9600 O.2   197  VAL197     -0.2718
     91  CB         9.5510    0.1510    1.2520 C.3   197  VAL197      0.0266
     92  CG1        8.2650    0.9620    1.3630 C.3   197  VAL197      0.0020
     93  CG2        9.5070   -1.0060    2.2910 C.3   197  VAL197      0.0020
     94  N          8.9820    1.1740   -1.9200 N.am  198  THR198     -0.1939
     95  CA         8.8920    2.3960   -2.5710 C.3   198  THR198      0.2028
     96  C          7.5500    3.1080   -2.1830 C.2   198  THR198      0.2642
     97  O          6.5510    2.4940   -1.9010 O.2   198  THR198     -0.2714
     98  CB         9.0710    2.2700   -4.0930 C.3   198  THR198      0.1808
     99  OG1        9.1590    3.5810   -4.6710 O.3   198  THR198     -0.2208
    100  CG2        7.8970    1.5340   -4.7320 C.3   198  THR198      0.0379
    101  N          7.5800    4.4190   -2.2080 N.am  199  SER199     -0.1949
    102  CA         6.4020    5.3400   -1.9830 C.3   199  SER199      0.1924
    103  C          5.7820    5.7150   -3.2010 C.2   199  SER199      0.2314
    104  O          4.9270    6.6350   -3.1720 O.2   199  SER199     -0.2863
    105  CB         6.8540    6.5900   -1.3010 C.3   199  SER199      0.2116
    106  OG         7.9140    7.2450   -2.0100 O.3   199  SER199     -0.2180
    107  N          3.4140    4.7820   -4.9690 N.3   201  SER201     -0.1202
    108  CA         2.0040    4.9550   -4.7150 C.3   201  SER201      0.2020
    109  C          1.9310    5.2500   -3.1810 C.2   201  SER201      0.2619
    110  O          2.2850    4.4220   -2.2610 O.2   201  SER201     -0.2717
    111  CB         1.2360    3.7330   -5.0910 C.3   201  SER201      0.2103
    112  OG        -0.1480    3.7820   -4.5280 O.3   201  SER201     -0.2182
    113  N          1.5010    6.4630   -2.8490 N.am  202  ARG202     -0.1965
    114  CA         1.7040    6.9990   -1.5030 C.3   202  ARG202      0.1729
    115  C          0.6460    6.4970   -0.4980 C.2   202  ARG202      0.2616
    116  O          0.9130    6.5610    0.7240 O.2   202  ARG202     -0.2715
    117  CB         1.6060    8.5750   -1.4930 C.3   202  ARG202      0.0348
    118  CG         2.7900    9.2600   -2.3360 C.3   202  ARG202      0.0492
    119  CD         3.2440   10.5400   -1.7260 C.3   202  ARG202      0.2205
    120  NE         4.6720   10.7120   -1.7600 N.pl3 202  ARG202     -0.0865
    121  CZ         5.3130   11.6920   -2.3540 C.cat 202  ARG202      0.5346
    122  NH1        4.6890   12.6630   -3.0740 N.pl3 202  ARG202      0.1354
    123  NH2        6.6230   11.6940   -2.2530 N.pl3 202  ARG202      0.1354
    124  N         -0.5830    6.0610   -0.8950 N.am  203  VAL203     -0.1963
    125  CA        -1.5790    5.6670    0.0980 C.3   203  VAL203      0.1727
    126  C         -1.2110    4.4190    0.9240 C.2   203  VAL203      0.2616
    127  O         -0.5520    3.5170    0.3790 O.2   203  VAL203     -0.2715
    128  CB        -3.0060    5.4750   -0.5770 C.3   203  VAL203      0.0290
    129  CG1       -2.9980    4.3220   -1.5460 C.3   203  VAL203      0.0023
    130  CG2       -4.0710    5.2740    0.4680 C.3   203  VAL203      0.0023
    131  N         -1.6010    4.3840    2.1670 N.am  204  CYS204     -0.1968
    132  CA        -1.2160    3.3680    3.1180 C.3   204  CYS204      0.1712
    133  C         -2.4780    2.6490    3.6310 C.2   204  CYS204      0.2296
    134  O         -3.4790    3.2850    4.0120 O.2   204  CYS204     -0.2864
    135  CB        -0.5330    3.9680    4.3600 C.3   204  CYS204      0.0983
    136  SG         0.8530    5.0560    3.9420 S.3   204  CYS204     -0.0798
    137  N         -4.7640   -0.6490   -3.3500 N.3   209  LYS209     -0.1231
    138  CA        -3.5020    0.0280   -3.7690 C.3   209  LYS209      0.1678
    139  C         -2.3400   -0.6720   -3.0200 C.2   209  LYS209      0.2434
    140  O         -1.8250   -0.1670   -2.0520 O.2   209  LYS209     -0.2733
    141  CB        -3.5070    1.5530   -3.5800 C.3   209  LYS209      0.0284
    142  CG        -4.5580    2.2670   -4.3730 C.3   209  LYS209      0.0035
    143  CD        -4.2290    2.2570   -5.9030 C.3   209  LYS209      0.0206
    144  CE        -5.3130    2.8470   -6.8100 C.3   209  LYS209      0.1093
    145  NZ        -6.4250    1.9510   -6.7470 N.3   209  LYS209     -0.1314
    146  N         -2.0380   -1.8860   -3.4440 N.am  210  PRO210     -0.2718
    147  CA        -0.9980   -2.7290   -2.7800 C.3   210  PRO210      0.1535
    148  C          0.3190   -1.9630   -2.6420 C.2   210  PRO210      0.2599
    149  O          0.6740   -1.1580   -3.5360 O.2   210  PRO210     -0.2715
    150  CB        -0.8590   -3.9300   -3.7950 C.3   210  PRO210      0.0310
    151  CG        -2.2060   -4.0500   -4.3750 C.3   210  PRO210      0.0237
    152  CD        -2.5930   -2.6070   -4.6090 C.3   210  PRO210      0.0939
    153  N          1.0360   -2.4340   -1.6250 N.am  211  GLY211     -0.1941
    154  CA         2.4300   -2.0570   -1.5400 C.3   211  GLY211      0.2014
    155  C          3.2240   -2.4230   -2.7620 C.2   211  GLY211      0.2638
    156  O          3.1000   -3.5230   -3.2160 O.2   211  GLY211     -0.2714
    157  N          4.1010   -1.4600   -3.1800 N.am  212  ILE212     -0.1977
    158  CA         5.0140   -1.6430   -4.2670 C.3   212  ILE212      0.1596
    159  C          6.4260   -1.7050   -3.7190 C.2   212  ILE212      0.2287
    160  O          6.7830   -0.8590   -2.8770 O.2   212  ILE212     -0.2864
    161  CB         4.8780   -0.5340   -5.3900 C.3   212  ILE212      0.0276
    162  CG1        3.4350   -0.5330   -5.8820 C.3   212  ILE212      0.0022
    163  CG2        5.8240   -0.8810   -6.4780 C.3   212  ILE212      0.0022
    164  CD1        3.1930    0.6390   -6.8760 C.3   212  ILE212      0.0001
@<TRIPOS>BOND
     1    23    24   ar
     2    23    21   ar
     3   164   162    1
     4   144   145    1
     5   144   143    1
     6    24    22   ar
     7   163   161    1
     8    21    20   ar
     9    39    37   ar
    10   143   142    1
    11   162   161    1
    12    37    36    1
    13    37    38   ar
    14   161   158    1
    15    22    20   ar
    16    36    35    1
    17   111   108    1
    18   111   112    1
    19   107   108    1
    20    20    19    1
    21   100    98    1
    22   108   109    1
    23    99    98    1
    24   152   151    1
    25   152   146    1
    26    34    33    2
    27   151   150    1
    28   142   141    1
    29   158   159    1
    30   158   157    1
    31    98    95    1
    32    35    32    1
    33    15    16    1
    34    32    33    1
    35    32    31    1
    36   150   147    1
    37   138   141    1
    38   138   137    1
    39   138   139    1
    40   159   160    2
    41    19    16    1
    42    16    17    1
    43   149   148    2
    44   146   139   am
    45   146   147    1
    46   156   155    2
    47   103   104    2
    48   103   102    1
    49   109   113   am
    50   109   110    2
    51   157   155   am
    52   122   121    1
    53   139   140    2
    54   113   114    1
    55   147   148    1
    56   155   154    1
    57   148   153   am
    58    95    96    1
    59    95    94    1
    60   121   123    1
    61   121   120    2
    62   118   119    1
    63   118   117    1
    64   101    96   am
    65   101   102    1
    66    96    97    2
    67    17    18    2
    68    17    25   am
    69   106   105    1
    70   102   105    1
    71    94    89   am
    72   120   119    1
    73   153   154    1
    74   129   128    1
    75   114   117    1
    76   114   115    1
    77    25    26    1
    78    89    90    2
    79    89    88    1
    80   124   115   am
    81   124   125    1
    82   128   125    1
    83   128   130    1
    84   115   116    2
    85    87    88    1
    86    88    91    1
    87    27    26    1
    88    27    28    2
    89    26    29    1
    90   125   126    1
    91   127   126    2
    92    29    30    1
    93    86    85    1
    94   126   131   am
    95    85    82    1
    96    30    14    1
    97    91    92    1
    98    91    93    1
    99    82    83    1
   100    82    81    1
   101   131   132    1
   102    83    84    2
   103    55    53   ar
   104    54    53   ar
   105    61    60    1
   106    53    52    1
   107    14    13    1
   108   132   133    1
   109   132   135    1
   110   133   134    2
   111    60    57    1
   112   136   135    1
   113   136    67    1
   114    59    58    2
   115    13    10    1
   116     8     6    1
   117    52    49    1
   118    58    57    1
   119    58    62   am
   120    56    57    1
   121    56    50   am
   122     6     7    1
   123     6     5    1
   124    65    64    2
   125    63    64    1
   126    63    62    1
   127    63    66    1
   128    49    50    1
   129    49    48    1
   130    64    68   am
   131    69    68    1
   132    69    72    1
   133    69    70    1
   134    73    72    1
   135    73    74    1
   136    10    11    1
   137    10     9    1
   138    75    74    1
   139    75    76    1
   140    50    51    2
   141    67    66    1
   142    77    70   am
   143    77    78    1
   144     4     3    2
   145    11    12    2
   146     9     3   am
   147     5     2    1
   148    70    71    2
   149     3     2    1
   150    79    78    1
   151    79    80    2
   152     2     1    1
   153    47    45    1
   154    45    44    1
   155    40    41    1
   156    46    44    1
   157    44    41    1
   158    43    42    2
   159    41    42    1
