@<TRIPOS>MOLECULE
tmp/6fuiA00.pdb
 164 159 0 0 0
SMALL
GASTEIGER

@<TRIPOS>ATOM
      1  N         14.1510    9.7280    8.2640 N.3    25  LEU25      -0.1231
      2  CA        13.4510   10.0200    7.0370 C.3    25  LEU25       0.1693
      3  C         12.9780    8.7780    6.3490 C.2    25  LEU25       0.2592
      4  O         11.8280    8.6920    5.9460 O.2    25  LEU25      -0.2718
      5  CB        14.4190   10.7960    6.1440 C.3    25  LEU25       0.0284
      6  CG        13.9670   11.0730    4.7230 C.3    25  LEU25       0.0019
      7  CD1       12.7460   12.0020    4.6430 C.3    25  LEU25       0.0001
      8  CD2       15.0900   11.6790    3.8860 C.3    25  LEU25       0.0001
      9  N         13.8530    7.7920    6.1610 N.am   26  CYS26      -0.1970
     10  CA        13.4910    6.6340    5.4080 C.3    26  CYS26       0.1712
     11  C         14.2090    5.4120    6.0280 C.2    26  CYS26       0.2296
     12  O         15.1780    5.5360    6.7720 O.2    26  CYS26      -0.2864
     13  CB        13.9980    6.7500    3.9240 C.3    26  CYS26       0.0983
     14  SG        12.8590    7.7050    2.9350 S.3    26  CYS26      -0.0798
     15  N         13.7390    8.2720   -4.0000 N.3    41  HIS41      -0.1226
     16  CA        12.8380    9.4200   -3.7390 C.3    41  HIS41       0.1752
     17  C         13.1070   10.0250   -2.3290 C.2    41  HIS41       0.2596
     18  O         12.7960   11.1730   -2.1080 O.2    41  HIS41      -0.2718
     19  CB        11.3710    8.9740   -3.6950 C.3    41  HIS41       0.0759
     20  CG        10.7950    8.6040   -5.0280 C.ar   41  HIS41       0.0818
     21  ND1       10.7540    9.5080   -6.0620 N.ar   41  HIS41      -0.2268
     22  CD2       10.1270    7.4750   -5.4240 C.ar   41  HIS41       0.1154
     23  CE1       10.1640    8.8950   -7.0910 C.ar   41  HIS41       0.1986
     24  NE2        9.7450    7.6870   -6.7280 N.ar   41  HIS41      -0.2212
     25  N         13.7560    9.2440   -1.4280 N.am   42  CYS42      -0.1970
     26  CA        14.0660    9.8080   -0.0930 C.3    42  CYS42       0.1712
     27  C         14.9150   11.0250   -0.1900 C.2    42  CYS42       0.2296
     28  O         14.7090   11.9350    0.6550 O.2    42  CYS42      -0.2864
     29  CB        14.7110    8.7730    0.7300 C.3    42  CYS42       0.0983
     30  SG        13.6190    7.3110    1.0470 S.3    42  CYS42      -0.0798
     31  N         15.4660   12.8960   -3.0380 N.3    44  GLU44      -0.1245
     32  CA        15.1270   13.6860   -4.2590 C.3    44  GLU44       0.1567
     33  C         15.3530   15.1640   -4.0220 C.2    44  GLU44       0.2260
     34  O         15.9120   15.8790   -4.8840 O.2    44  GLU44      -0.2867
     35  CB        13.5460   13.6230   -4.3810 C.3    44  GLU44       0.0388
     36  CG        13.0610   13.4120   -5.6080 C.3    44  GLU44       0.1160
     37  CD        11.8570   12.6990   -5.5540 C.2    44  GLU44       0.3649
     38  OE1       10.7960   13.1330   -5.1100 O.co2  44  GLU44      -0.2457
     39  OE2       12.0000   11.6640   -6.1110 O.co2  44  GLU44      -0.2457
     40  N          5.1990    5.9220    9.8670 N.3   130  ILE130     -0.1245
     41  CA         3.9470    6.1720   10.6680 C.3   130  ILE130      0.1561
     42  C          3.1780    4.9290   10.9180 C.2   130  ILE130      0.2260
     43  O          3.2030    3.9110   10.1450 O.2   130  ILE130     -0.2867
     44  CB         3.1340    7.2950   10.0560 C.3   130  ILE130      0.0252
     45  CG1        2.3980    6.9380    8.6930 C.3   130  ILE130      0.0019
     46  CG2        3.9170    8.5970    9.9050 C.3   130  ILE130      0.0019
     47  CD1        1.3960    7.9020    8.1490 C.3   130  ILE130      0.0001
     48  N          0.5910   -2.7130    6.3470 N.3   177  ASP177     -0.1225
     49  CA         1.1510   -2.0550    5.1160 C.3   177  ASP177      0.1805
     50  C          2.3780   -1.1810    5.5080 C.2   177  ASP177      0.2598
     51  O          2.5100   -0.7070    6.5990 O.2   177  ASP177     -0.2718
     52  CB         0.1660   -1.1470    4.3340 C.3   177  ASP177      0.1424
     53  CG         0.4530   -0.9110    2.9060 C.2   177  ASP177      0.3668
     54  OD1        1.5520   -1.5160    2.4130 O.co2 177  ASP177     -0.2456
     55  OD2       -0.1670    0.0160    2.2760 O.co2 177  ASP177     -0.2456
     56  N          3.3080   -0.9750    4.5770 N.am  178  SER178     -0.1938
     57  CA         4.3140    0.0130    4.7630 C.3   178  SER178      0.2055
     58  C          3.6390    1.3790    4.5180 C.2   178  SER178      0.2643
     59  O          2.5990    1.4440    3.8290 O.2   178  SER178     -0.2714
     60  CB         5.4150   -0.3330    3.6960 C.3   178  SER178      0.2130
     61  OG         4.8240   -0.3510    2.4270 O.3   178  SER178     -0.2179
     62  N          4.1450    2.4860    5.1140 N.am  179  CYS179     -0.1953
     63  CA         3.6330    3.8040    4.9480 C.3   179  CYS179      0.1843
     64  C          4.7890    4.7850    5.0170 C.2   179  CYS179      0.2625
     65  O          5.9960    4.3990    4.9030 O.2   179  CYS179     -0.2714
     66  CB         2.2970    4.0940    5.9630 C.3   179  CYS179      0.0997
     67  SG         1.4280    5.4480    5.5600 S.3   179  CYS179     -0.0797
     68  N          4.4920    6.0710    4.9900 N.am  180  LYS180     -0.1963
     69  CA         5.4290    7.1970    5.0180 C.3   180  LYS180      0.1728
     70  C          6.3940    6.9400    6.0950 C.2   180  LYS180      0.2616
     71  O          6.0920    6.6840    7.2490 O.2   180  LYS180     -0.2715
     72  CB         4.7050    8.4970    5.3570 C.3   180  LYS180      0.0311
     73  CG         5.4920    9.7520    5.1730 C.3   180  LYS180      0.0038
     74  CD         4.6290   11.0360    5.4100 C.3   180  LYS180      0.0206
     75  CE         5.4140   12.2710    5.2280 C.3   180  LYS180      0.1093
     76  NZ         6.2450   12.5050    6.4140 N.3   180  LYS180     -0.1314
     77  N          7.6480    7.0640    5.7180 N.am  181  GLY181     -0.1955
     78  CA         8.7570    6.7860    6.6180 C.3   181  GLY181      0.1869
     79  C          9.3740    5.4600    6.4890 C.2   181  GLY181      0.2309
     80  O         10.4340    5.1540    7.0720 O.2   181  GLY181     -0.2863
     81  N          9.7730    3.9200    3.2620 N.3   183  SER183     -0.1217
     82  CA        10.4440    3.8030    2.0220 C.3   183  SER183      0.1889
     83  C         11.8850    3.5250    2.2050 C.2   183  SER183      0.2288
     84  O         12.5430    4.0610    3.0980 O.2   183  SER183     -0.2866
     85  CB        10.3720    5.0440    1.0990 C.3   183  SER183      0.2089
     86  OG         9.1510    5.2340    0.4650 O.3   183  SER183     -0.2183
     87  N         11.2090   -1.1440   -0.0840 N.3   197  VAL197     -0.1231
     88  CA         9.9500   -0.4420   -0.1130 C.3   197  VAL197      0.1692
     89  C          9.9680    0.7900   -1.0010 C.2   197  VAL197      0.2593
     90  O         10.9570    1.5680   -0.9640 O.2   197  VAL197     -0.2718
     91  CB         9.5920    0.0630    1.2890 C.3   197  VAL197      0.0266
     92  CG1        8.2870    0.8720    1.2980 C.3   197  VAL197      0.0020
     93  CG2        9.5810   -1.0830    2.3340 C.3   197  VAL197      0.0020
     94  N          8.9370    0.9690   -1.8480 N.am  198  THR198     -0.1939
     95  CA         8.7670    2.1740   -2.5740 C.3   198  THR198      0.2028
     96  C          7.3170    2.7490   -2.3400 C.2   198  THR198      0.2642
     97  O          6.5110    1.9980   -1.8210 O.2   198  THR198     -0.2714
     98  CB         9.1290    1.9990   -4.0670 C.3   198  THR198      0.1808
     99  OG1        9.1640    3.2930   -4.6950 O.3   198  THR198     -0.2208
    100  CG2        8.1610    1.0790   -4.8180 C.3   198  THR198      0.0379
    101  N          7.2140    4.1030   -2.5460 N.am  199  SER199     -0.1949
    102  CA         5.9470    4.9840   -2.2410 C.3   199  SER199      0.1924
    103  C          5.1190    5.2200   -3.5610 C.2   199  SER199      0.2314
    104  O          4.4280    6.2650   -3.6990 O.2   199  SER199     -0.2863
    105  CB         6.4310    6.3280   -1.9490 C.3   199  SER199      0.2116
    106  OG         7.1370    6.8380   -3.0980 O.3   199  SER199     -0.2180
    107  N          2.8290    4.0660   -5.0930 N.3   201  SER201     -0.1202
    108  CA         1.4110    4.2080   -4.6490 C.3   201  SER201      0.2020
    109  C          1.6700    4.8350   -3.2510 C.2   201  SER201      0.2619
    110  O          2.2400    4.2360   -2.3280 O.2   201  SER201     -0.2717
    111  CB         0.7750    2.8370   -4.4940 C.3   201  SER201      0.2103
    112  OG        -0.5860    2.8740   -3.9530 O.3   201  SER201     -0.2182
    113  N          1.1110    5.9990   -3.0750 N.am  202  ARG202     -0.1965
    114  CA         1.3940    6.7790   -1.8900 C.3   202  ARG202      0.1729
    115  C          0.4170    6.3840   -0.8320 C.2   202  ARG202      0.2616
    116  O          0.6390    6.6020    0.3260 O.2   202  ARG202     -0.2715
    117  CB         1.3830    8.3010   -2.1050 C.3   202  ARG202      0.0348
    118  CG         2.5230    8.8220   -1.3630 C.3   202  ARG202      0.0492
    119  CD         2.9800   10.2540   -1.5950 C.3   202  ARG202      0.2205
    120  NE         4.1810   10.2820   -2.4010 N.pl3 202  ARG202     -0.0865
    121  CZ         5.1540   11.2070   -2.3980 C.cat 202  ARG202      0.5346
    122  NH1        5.1340   12.2600   -1.5900 N.pl3 202  ARG202      0.1354
    123  NH2        6.1380   11.0970   -3.2730 N.pl3 202  ARG202      0.1354
    124  N         -0.7800    5.8640   -1.2000 N.am  203  VAL203     -0.1963
    125  CA        -1.6760    5.4820   -0.0790 C.3   203  VAL203      0.1727
    126  C         -1.2790    4.3240    0.7350 C.2   203  VAL203      0.2616
    127  O         -0.6520    3.3770    0.3210 O.2   203  VAL203     -0.2715
    128  CB        -3.1660    5.2970   -0.7060 C.3   203  VAL203      0.0290
    129  CG1       -3.2500    4.0200   -1.6290 C.3   203  VAL203      0.0023
    130  CG2       -4.2100    5.2390    0.3810 C.3   203  VAL203      0.0023
    131  N         -1.7600    4.3260    1.9520 N.am  204  CYS204     -0.1968
    132  CA        -1.4840    3.3440    2.9380 C.3   204  CYS204      0.1712
    133  C         -2.6110    2.5300    3.4620 C.2   204  CYS204      0.2296
    134  O         -3.6010    3.0870    3.9060 O.2   204  CYS204     -0.2864
    135  CB        -0.7150    3.9710    4.0800 C.3   204  CYS204      0.0983
    136  SG         0.7200    4.9650    3.6970 S.3   204  CYS204     -0.0798
    137  N         -4.9100   -1.0600   -3.0970 N.3   209  LYS209     -0.1228
    138  CA        -3.6420   -0.4190   -3.5030 C.3   209  LYS209      0.1721
    139  C         -2.4740   -1.1100   -2.8050 C.2   209  LYS209      0.2437
    140  O         -1.9630   -0.7200   -1.7250 O.2   209  LYS209     -0.2733
    141  CB        -3.7110    1.1250   -3.3550 C.3   209  LYS209      0.0541
    142  CG        -4.6990    1.7850   -4.3370 C.2   209  LYS209     -0.0272
    143  CD        -4.4370    1.7720   -5.8360 C.2   209  LYS209     -0.0103
    144  CE        -5.4060    2.5210   -6.7660 C.3   209  LYS209      0.1350
    145  NZ        -6.5010    1.5460   -6.9470 N.3   209  LYS209     -0.1262
    146  N         -2.1240   -2.2790   -3.3270 N.am  210  PRO210     -0.2718
    147  CA        -1.0250   -3.1020   -2.6960 C.3   210  PRO210      0.1535
    148  C          0.2600   -2.3650   -2.5030 C.2   210  PRO210      0.2599
    149  O          0.5450   -1.4740   -3.2920 O.2   210  PRO210     -0.2715
    150  CB        -0.8500   -4.2110   -3.7000 C.3   210  PRO210      0.0310
    151  CG        -2.3020   -4.4260   -4.2500 C.3   210  PRO210      0.0237
    152  CD        -2.6640   -2.9650   -4.5320 C.3   210  PRO210      0.0939
    153  N          0.9990   -2.8280   -1.4940 N.am  211  GLY211     -0.1941
    154  CA         2.4000   -2.3250   -1.3990 C.3   211  GLY211      0.2014
    155  C          3.2210   -2.6190   -2.6420 C.2   211  GLY211      0.2638
    156  O          3.1790   -3.7880   -3.0460 O.2   211  GLY211     -0.2714
    157  N          4.0510   -1.6500   -3.0650 N.am  212  ILE212     -0.1977
    158  CA         4.9640   -1.8670   -4.1890 C.3   212  ILE212      0.1596
    159  C          6.4020   -1.8870   -3.6330 C.2   212  ILE212      0.2287
    160  O          6.7840   -1.0160   -2.8200 O.2   212  ILE212     -0.2864
    161  CB         4.8320   -0.8230   -5.3310 C.3   212  ILE212      0.0276
    162  CG1        3.3640   -0.7360   -5.7790 C.3   212  ILE212      0.0022
    163  CG2        5.7640   -1.1380   -6.4440 C.3   212  ILE212      0.0022
    164  CD1        3.0990    0.3650   -6.8280 C.3   212  ILE212      0.0001
@<TRIPOS>BOND
     1    23    24   ar
     2    23    21   ar
     3   145   144    1
     4   164   162    1
     5   144   143    1
     6    24    22   ar
     7   163   161    1
     8    39    37   ar
     9    21    20   ar
    10   143   142    2
    11   162   161    1
    12    36    37    1
    13    36    35    1
    14    37    38   ar
    15    22    20   ar
    16   161   158    1
    17   107   108    1
    18    20    19    1
    19    34    33    2
    20   100    98    1
    21    99    98    1
    22   108   111    1
    23   108   109    1
    24   152   151    1
    25   152   146    1
    26   111   112    1
    27    35    32    1
    28   142   141    1
    29    32    33    1
    30    32    31    1
    31   151   150    1
    32   158   159    1
    33   158   157    1
    34    98    95    1
    35    15    16    1
    36    16    19    1
    37    16    17    1
    38   150   147    1
    39   104   103    2
    40   159   160    2
    41   103   102    1
    42   138   141    1
    43   138   137    1
    44   138   139    1
    45   146   139   am
    46   146   147    1
    47   149   148    2
    48   123   121    1
    49   109   113   am
    50   109   110    2
    51   106   105    1
    52   113   114    1
    53   157   155   am
    54   156   155    2
    55   139   140    2
    56   147   148    1
    57   155   154    1
    58    95    96    1
    59    95    94    1
    60   101    96   am
    61   101   102    1
    62   148   153   am
    63   120   121    2
    64   120   119    1
    65   121   122    1
    66    96    97    2
    67    17    18    2
    68    17    25   am
    69   102   105    1
    70   117   114    1
    71   117   118    1
    72   114   115    1
    73    94    89   am
    74   129   128    1
    75   119   118    1
    76   153   154    1
    77    25    26    1
    78   124   115   am
    79   124   125    1
    80    89    90    2
    81    89    88    1
    82   115   116    2
    83   128   125    1
    84   128   130    1
    85    27    26    1
    86    27    28    2
    87    88    87    1
    88    88    91    1
    89    26    29    1
    90   125   126    1
    91   127   126    2
    92    86    85    1
    93    29    30    1
    94   126   131   am
    95    30    14    1
    96    85    82    1
    97    91    92    1
    98    91    93    1
    99   131   132    1
   100    82    83    1
   101    82    81    1
   102    83    84    2
   103    55    53   ar
   104    54    53   ar
   105    61    60    1
   106    53    52    1
   107    14    13    1
   108   132   133    1
   109   132   135    1
   110   133   134    2
   111    60    57    1
   112   136   135    1
   113   136    67    1
   114    59    58    2
   115     8     6    1
   116    13    10    1
   117    52    49    1
   118    58    57    1
   119    58    62   am
   120    56    57    1
   121    56    50   am
   122     7     6    1
   123     6     5    1
   124    65    64    2
   125    63    64    1
   126    63    62    1
   127    63    66    1
   128    68    64   am
   129    68    69    1
   130    69    72    1
   131    69    70    1
   132    49    50    1
   133    49    48    1
   134    73    72    1
   135    73    74    1
   136    75    74    1
   137    75    76    1
   138    10    11    1
   139    10     9    1
   140    50    51    2
   141    67    66    1
   142    77    70   am
   143    77    78    1
   144     4     3    2
   145    11    12    2
   146    70    71    2
   147     5     2    1
   148     9     3   am
   149     3     2    1
   150    79    78    1
   151    79    80    2
   152     2     1    1
   153    47    45    1
   154    45    44    1
   155    40    41    1
   156    46    44    1
   157    44    41    1
   158    43    42    2
   159    41    42    1
