@<TRIPOS>MOLECULE
tmp/6fujC01.pdb
 175 171 0 0 0
SMALL
GASTEIGER

@<TRIPOS>ATOM
      1  N         17.2790   14.3770   25.5820 N.3    25  LEU25      -0.1231
      2  CA        17.0040   15.7640   25.2190 C.3    25  LEU25       0.1693
      3  C         15.6020   16.0080   24.6220 C.2    25  LEU25       0.2592
      4  O         14.9000   16.9320   25.0040 O.2    25  LEU25      -0.2718
      5  CB        18.0700   16.2400   24.2130 C.3    25  LEU25       0.0284
      6  CG        17.9690   17.7470   23.8710 C.3    25  LEU25       0.0019
      7  CD1       18.2140   18.6040   25.1080 C.3    25  LEU25       0.0001
      8  CD2       18.8670   18.1480   22.7650 C.3    25  LEU25       0.0001
      9  N         15.2380   15.1920   23.6420 N.am   26  CYS26      -0.1970
     10  CA        14.0410   15.3600   22.8280 C.3    26  CYS26       0.1712
     11  C         13.4020   14.0340   22.5020 C.2    26  CYS26       0.2296
     12  O         14.0700   13.0250   22.4620 O.2    26  CYS26      -0.2864
     13  CB        14.4410   16.0310   21.5020 C.3    26  CYS26       0.0983
     14  SG        14.4180   17.8130   21.6880 S.3    26  CYS26      -0.0798
     15  N         12.3560   17.3040   16.0920 N.3    39  ALA39      -0.1245
     16  CA        12.2260   18.7650   15.8870 C.3    39  ALA39       0.1562
     17  C         13.5750   19.4370   15.6960 C.2    39  ALA39       0.2260
     18  O         14.5540   19.0430   16.3090 O.2    39  ALA39      -0.2867
     19  CB        11.4960   19.3910   17.0510 C.3    39  ALA39       0.0290
     20  N         14.6180   22.5270   16.5400 N.3    41  HIS41      -0.1226
     21  CA        15.0840   23.2320   17.7480 C.3    41  HIS41       0.1752
     22  C         15.9510   22.4170   18.7180 C.2    41  HIS41       0.2596
     23  O         16.7570   22.9650   19.4420 O.2    41  HIS41      -0.2718
     24  CB        13.9230   23.8670   18.5130 C.3    41  HIS41       0.0759
     25  CG        13.1900   24.9370   17.7630 C.ar   41  HIS41       0.0818
     26  ND1       13.8330   25.8380   16.9360 N.ar   41  HIS41      -0.2268
     27  CD2       11.8780   25.2850   17.7520 C.ar   41  HIS41       0.1154
     28  CE1       12.9390   26.6610   16.4060 C.ar   41  HIS41       0.1986
     29  NE2       11.7480   26.3600   16.8970 N.ar   41  HIS41      -0.2212
     30  N         15.7670   21.1090   18.7200 N.am   42  CYS42      -0.1970
     31  CA        16.5750   20.1480   19.4970 C.3    42  CYS42       0.1712
     32  C         18.0760   20.1680   19.2040 C.2    42  CYS42       0.2296
     33  O         18.8720   19.9900   20.1200 O.2    42  CYS42      -0.2864
     34  CB        16.0400   18.7190   19.2470 C.3    42  CYS42       0.0983
     35  SG        14.2920   18.5390   19.7260 S.3    42  CYS42      -0.0798
     36  N         19.9010   22.7240   17.4670 N.3    44  GLU44      -0.1245
     37  CA        20.5600   24.0150   17.7050 C.3    44  GLU44       0.1567
     38  C         21.2100   23.7850   19.0550 C.2    44  GLU44       0.2260
     39  O         20.5600   23.2020   19.9550 O.2    44  GLU44      -0.2867
     40  CB        19.5670   25.1330   17.9650 C.3    44  GLU44       0.0388
     41  CG        18.5900   25.5610   16.8880 C.3    44  GLU44       0.1160
     42  CD        17.3080   26.1940   17.4760 C.2    44  GLU44       0.3649
     43  OE1       17.1650   26.5700   18.6850 O.co2  44  GLU44      -0.2457
     44  OE2       16.3720   26.2740   16.6710 O.co2  44  GLU44      -0.2457
     45  N         -2.8210   32.1260   20.5430 N.3   160  HIS160     -0.1241
     46  CA        -1.5250   32.2830   19.8430 C.3   160  HIS160      0.1621
     47  C         -1.4870   33.3760   18.7770 C.2   160  HIS160      0.2264
     48  O         -0.4690   33.5620   18.1290 O.2   160  HIS160     -0.2867
     49  CB        -1.0660   30.9480   19.2570 C.3   160  HIS160      0.0745
     50  CG        -0.6290   29.9700   20.2920 C.ar  160  HIS160      0.0817
     51  ND1        0.4220   30.2180   21.1490 N.ar  160  HIS160     -0.2268
     52  CD2       -1.0950   28.7460   20.6120 C.ar  160  HIS160      0.1154
     53  CE1        0.5780   29.1950   21.9630 C.ar  160  HIS160      0.1986
     54  NE2       -0.3440   28.2920   21.6720 N.ar  160  HIS160     -0.2212
     55  N         -0.7080   18.3380   28.9560 N.3   177  ASP177     -0.1225
     56  CA         0.0590   19.0340   27.9470 C.3   177  ASP177      0.1805
     57  C          1.3930   18.3700   27.7110 C.2   177  ASP177      0.2598
     58  O          1.8820   17.6500   28.5600 O.2   177  ASP177     -0.2718
     59  CB         0.2500   20.4900   28.3750 C.3   177  ASP177      0.1424
     60  CG         0.4910   21.4430   27.2110 C.2   177  ASP177      0.3668
     61  OD1        0.4080   21.0550   26.0230 O.co2 177  ASP177     -0.2456
     62  OD2        0.8000   22.6230   27.4880 O.co2 177  ASP177     -0.2456
     63  N          1.9360   18.5880   26.5160 N.am  178  SER178     -0.1938
     64  CA         3.3210   18.3100   26.2150 C.3   178  SER178      0.2055
     65  C          4.1630   19.4180   26.8680 C.2   178  SER178      0.2643
     66  O          3.7140   20.5700   26.9650 O.2   178  SER178     -0.2714
     67  CB         3.5140   18.3090   24.7040 C.3   178  SER178      0.2130
     68  OG         3.0100   19.5100   24.1220 O.3   178  SER178     -0.2179
     69  N          5.3530   19.0720   27.3620 N.am  179  CYS179     -0.1953
     70  CA         6.2080   20.0190   28.0740 C.3   179  CYS179      0.1843
     71  C          7.6950   19.7960   27.7440 C.2   179  CYS179      0.2625
     72  O          8.0360   18.9930   26.8820 O.2   179  CYS179     -0.2714
     73  CB         5.9640   19.9010   29.5910 C.3   179  CYS179      0.0997
     74  SG         6.4070   21.4540   30.4510 S.3   179  CYS179     -0.0797
     75  N          8.5710   20.5240   28.4380 N.am  180  LYS180     -0.1963
     76  CA        10.0220   20.4850   28.1710 C.3   180  LYS180      0.1728
     77  C         10.5570   19.0590   28.1160 C.2   180  LYS180      0.2616
     78  O         10.4090   18.3210   29.0430 O.2   180  LYS180     -0.2715
     79  CB        10.7700   21.3270   29.2060 C.3   180  LYS180      0.0311
     80  CG        12.1230   21.8400   28.7580 C.3   180  LYS180      0.0038
     81  CD        13.1930   20.8950   29.2610 C.3   180  LYS180      0.0206
     82  CE        14.5600   21.0740   28.5740 C.3   180  LYS180      0.1093
     83  NZ        15.0010   22.4990   28.4100 N.3   180  LYS180     -0.1314
     84  N         11.1970   18.6950   27.0200 N.am  181  GLY181     -0.1955
     85  CA        11.6760   17.3280   26.7810 C.3   181  GLY181      0.1869
     86  C         10.7580   16.4300   25.9680 C.2   181  GLY181      0.2309
     87  O         11.1630   15.3090   25.6120 O.2   181  GLY181     -0.2863
     88  N          9.4490   17.7640   23.0950 N.3   183  SER183     -0.1217
     89  CA         9.6790   18.2860   21.7220 C.3   183  SER183      0.1889
     90  C         10.1940   17.2330   20.7710 C.2   183  SER183      0.2288
     91  O         11.0850   16.4850   21.1220 O.2   183  SER183     -0.2866
     92  CB        10.7060   19.4140   21.7430 C.3   183  SER183      0.2089
     93  OG        10.1720   20.5040   22.4500 O.3   183  SER183     -0.2183
     94  N          5.6940   17.4000   18.0780 N.3   197  VAL197     -0.1231
     95  CA         5.6150   18.4130   19.1310 C.3   197  VAL197      0.1692
     96  C          6.6140   19.5540   18.8770 C.2   197  VAL197      0.2593
     97  O          7.7740   19.2820   18.6040 O.2   197  VAL197     -0.2718
     98  CB         5.9740   17.7980   20.5200 C.3   197  VAL197      0.0266
     99  CG1        5.8790   18.8470   21.6200 C.3   197  VAL197      0.0020
    100  CG2        5.0870   16.6110   20.8520 C.3   197  VAL197      0.0020
    101  N          6.1690   20.7990   18.9520 N.am  198  THR198     -0.1939
    102  CA         7.0780   21.9480   18.9260 C.3   198  THR198      0.2028
    103  C          6.5600   22.8990   19.9940 C.2   198  THR198      0.2643
    104  O          5.5930   22.5800   20.6990 O.2   198  THR198     -0.2714
    105  CB         7.1370   22.6480   17.5740 C.3   198  THR198      0.1808
    106  OG1        7.9900   23.7820   17.6830 O.3   198  THR198     -0.2208
    107  CG2        5.7660   23.0000   17.0220 C.3   198  THR198      0.0379
    108  N          7.3150   23.9760   20.2840 N.am  199  SER199     -0.1935
    109  CA         6.9080   25.0180   21.2400 C.3   199  SER199      0.2055
    110  C          7.4510   26.3580   20.7890 C.2   199  SER199      0.2644
    111  O          8.5860   26.4320   20.2930 O.2   199  SER199     -0.2714
    112  CB         7.4830   24.7000   22.6180 C.3   199  SER199      0.2130
    113  OG         8.8430   24.2550   22.4840 O.3   199  SER199     -0.2179
    114  N          6.6340   27.4020   20.9260 N.am  200  GLY200     -0.1939
    115  CA         7.1040   28.7750   20.7890 C.3   200  GLY200      0.2014
    116  C          7.3960   29.4820   22.1090 C.2   200  GLY200      0.2640
    117  O          8.0010   30.5440   22.1270 O.2   200  GLY200     -0.2714
    118  N          6.9940   28.8590   23.1940 N.am  201  SER201     -0.1935
    119  CA         6.8710   29.5160   24.4990 C.3   201  SER201      0.2055
    120  C          7.2010   28.4910   25.5400 C.2   201  SER201      0.2643
    121  O          6.9450   27.3210   25.3250 O.2   201  SER201     -0.2714
    122  CB         5.4340   30.0310   24.5540 C.3   201  SER201      0.2130
    123  OG         4.9070   30.1080   25.8630 O.3   201  SER201     -0.2179
    124  N          7.7690   28.9100   26.6640 N.am  202  ARG202     -0.1963
    125  CA         8.0690   28.0180   27.7540 C.3   202  ARG202      0.1729
    126  C          6.8690   27.4740   28.5480 C.2   202  ARG202      0.2616
    127  O          7.0100   26.4270   29.1660 O.2   202  ARG202     -0.2715
    128  CB         9.0690   28.6340   28.7580 C.3   202  ARG202      0.0348
    129  CG        10.2020   29.4500   28.2390 C.3   202  ARG202      0.0492
    130  CD        11.2950   29.6840   29.2920 C.3   202  ARG202      0.2205
    131  NE        12.2990   28.6570   29.0880 N.pl3 202  ARG202     -0.0865
    132  CZ        13.4110   28.7540   28.3380 C.cat 202  ARG202      0.5346
    133  NH1       13.7010   29.8750   27.6600 N.pl3 202  ARG202      0.1354
    134  NH2       14.2170   27.6950   28.2510 N.pl3 202  ARG202      0.1354
    135  N          5.7590   28.2100   28.5900 N.am  203  VAL203     -0.1963
    136  CA         4.6030   27.8410   29.4260 C.3   203  VAL203      0.1727
    137  C          3.9070   26.5180   29.0560 C.2   203  VAL203      0.2616
    138  O          3.6920   26.2300   27.8820 O.2   203  VAL203     -0.2715
    139  CB         3.5810   29.0110   29.5400 C.3   203  VAL203      0.0290
    140  CG1        2.8530   29.2500   28.2230 C.3   203  VAL203      0.0023
    141  CG2        2.6210   28.8000   30.7030 C.3   203  VAL203      0.0023
    142  N          3.5530   25.7460   30.0610 N.am  204  CYS204     -0.1968
    143  CA         3.0140   24.4180   29.9370 C.3   204  CYS204      0.1712
    144  C          1.7680   24.3150   30.7750 C.2   204  CYS204      0.2296
    145  O          1.7590   24.6600   31.9810 O.2   204  CYS204     -0.2864
    146  CB         4.0440   23.4010   30.5370 C.3   204  CYS204      0.0983
    147  SG         5.4110   23.0400   29.4280 S.3   204  CYS204     -0.0798
    148  N         -2.7790   28.8550   26.3230 N.3   209  LYS209     -0.1231
    149  CA        -1.6690   28.6230   25.3870 C.3   209  LYS209      0.1678
    150  C         -1.6270   27.1460   24.9600 C.2   209  LYS209      0.2434
    151  O         -0.8380   26.3690   25.4860 O.2   209  LYS209     -0.2733
    152  CB        -0.3300   29.0640   26.0140 C.3   209  LYS209      0.0284
    153  CG        -0.2320   30.5490   26.3330 C.3   209  LYS209      0.0035
    154  CD         0.2040   31.3570   25.1190 C.3   209  LYS209      0.0206
    155  CE         0.2940   32.8630   25.4020 C.3   209  LYS209      0.1093
    156  NZ        -1.0140   33.5310   25.1390 N.3   209  LYS209     -0.1314
    157  N         -2.4650   26.7640   23.9860 N.am  210  PRO210     -0.2718
    158  CA        -2.5320   25.3870   23.4820 C.3   210  PRO210      0.1535
    159  C         -1.1940   24.8540   23.0090 C.2   210  PRO210      0.2599
    160  O         -0.3090   25.6130   22.6580 O.2   210  PRO210     -0.2715
    161  CB        -3.4740   25.4920   22.2900 C.3   210  PRO210      0.0310
    162  CG        -4.3480   26.6330   22.6200 C.3   210  PRO210      0.0237
    163  CD        -3.4200   27.6260   23.2710 C.3   210  PRO210      0.0939
    164  N         -1.0510   23.5350   23.0330 N.am  211  GLY211     -0.1941
    165  CA         0.1150   22.9080   22.4700 C.3   211  GLY211      0.2014
    166  C          0.1110   23.0600   20.9730 C.2   211  GLY211      0.2638
    167  O         -0.9540   23.1660   20.3760 O.2   211  GLY211     -0.2714
    168  N          1.2970   23.0700   20.3800 N.am  212  ILE212     -0.1977
    169  CA         1.4470   23.3110   18.9650 C.3   212  ILE212      0.1596
    170  C          2.2130   22.1240   18.4080 C.2   212  ILE212      0.2287
    171  O          3.1420   21.6370   19.0460 O.2   212  ILE212     -0.2864
    172  CB         2.2220   24.6080   18.7090 C.3   212  ILE212      0.0276
    173  CG1        1.5180   25.7790   19.3740 C.3   212  ILE212      0.0022
    174  CG2        2.3030   24.9080   17.2210 C.3   212  ILE212      0.0022
    175  CD1        2.2860   27.0940   19.2400 C.3   212  ILE212      0.0001
@<TRIPOS>BOND
     1    17    16    1
     2    17    18    2
     3    16    15    1
     4    16    19    1
     5    28    29   ar
     6    28    26   ar
     7    20    21    1
     8    44    42   ar
     9    41    42    1
    10    41    40    1
    11    29    27   ar
    12    26    25   ar
    13   107   105    1
    14   174   172    1
    15    36    37    1
    16    42    43   ar
    17   105   106    1
    18   105   102    1
    19    37    40    1
    20    37    38    1
    21    21    24    1
    22    21    22    1
    23    27    25   ar
    24    25    24    1
    25    94    95    1
    26    48    47    2
    27   170   169    1
    28   170   171    2
    29    97    96    2
    30   172   169    1
    31   172   173    1
    32    22    30   am
    33    22    23    2
    34    30    31    1
    35    47    46    1
    36    96   101   am
    37    96    95    1
    38   102   101    1
    39   102   103    1
    40   169   168    1
    41    38    39    2
    42    95    98    1
    43    32    31    1
    44    32    33    2
    45   175   173    1
    46    34    31    1
    47    34    35    1
    48    49    46    1
    49    49    50    1
    50    35    14    1
    51    46    45    1
    52   103   108   am
    53   103   104    2
    54   108   109    1
    55    50    52   ar
    56    50    51   ar
    57   111   110    2
    58   167   166    2
    59   168   166   am
    60    98   100    1
    61    98    99    1
    62    52    54   ar
    63    90    91    2
    64    90    89    1
    65   110   114   am
    66   110   109    1
    67   115   114    1
    68   115   116    1
    69   166   165    1
    70    51    53   ar
    71   109   112    1
    72    13    14    1
    73    13    10    1
    74    54    53   ar
    75    89    92    1
    76    89    88    1
    77    92    93    1
    78   116   117    2
    79   116   118   am
    80   161   162    1
    81   161   158    1
    82    12    11    2
    83   165   164    1
    84   113   112    1
    85    11    10    1
    86   162   163    1
    87   160   159    2
    88     8     6    1
    89    10     9    1
    90   159   164   am
    91   159   158    1
    92   118   119    1
    93   163   157    1
    94   158   157    1
    95     9     3   am
    96     6     5    1
    97     6     7    1
    98   157   150   am
    99    68    67    1
   100     5     2    1
   101   119   122    1
   102   119   120    1
   103   122   123    1
   104     3     4    2
   105     3     2    1
   106    67    64    1
   107   150   149    1
   108   150   151    2
   109   154   155    1
   110   154   153    1
   111   156   155    1
   112     2     1    1
   113   121   120    2
   114   149   152    1
   115   149   148    1
   116   120   124   am
   117    87    86    2
   118    86    85    1
   119   152   153    1
   120    61    60   ar
   121    64    63    1
   122    64    65    1
   123    63    57   am
   124   124   125    1
   125    85    84    1
   126    65    66    2
   127    65    69   am
   128    72    71    2
   129    84    77   am
   130    60    62   ar
   131    60    59    1
   132    69    70    1
   133   133   132    1
   134    57    56    1
   135    57    58    2
   136    71    70    1
   137    71    75   am
   138   125   126    1
   139   125   128    1
   140   138   137    2
   141    56    59    1
   142    56    55    1
   143    70    73    1
   144    77    76    1
   145    77    78    2
   146    76    75    1
   147    76    79    1
   148   140   139    1
   149   129   128    1
   150   129   130    1
   151   134   132    1
   152   132   131    2
   153    83    82    1
   154   126   135   am
   155   126   127    2
   156    82    81    1
   157   135   136    1
   158    80    79    1
   159    80    81    1
   160   137   136    1
   161   137   142   am
   162   131   130    1
   163   136   139    1
   164   147    74    1
   165   147   146    1
   166   139   141    1
   167    73    74    1
   168   143   142    1
   169   143   146    1
   170   143   144    1
   171   144   145    2
