@<TRIPOS>MOLECULE
tmp/6fukA00.pdb
 139 130 0 0 0
SMALL
GASTEIGER

@<TRIPOS>ATOM
      1  N         13.0770   11.3380    6.8710 N.3   166  PHE166     -0.1241
      2  CA        14.4650   11.3270    7.3100 C.3   166  PHE166      0.1605
      3  C         15.3160   10.9920    6.0860 C.2   166  PHE166      0.2264
      4  O         15.1230    9.9460    5.4600 O.2   166  PHE166     -0.2867
      5  CB        14.6140   10.3030    8.4500 C.3   166  PHE166      0.0534
      6  CG        16.0270   10.0610    8.9320 C.ar  166  PHE166     -0.0203
      7  CD1       17.0860   10.8770    8.5620 C.ar  166  PHE166     -0.0042
      8  CD2       16.2820    8.9970    9.7810 C.ar  166  PHE166     -0.0042
      9  CE1       18.3740   10.6200    9.0300 C.ar  166  PHE166     -0.0003
     10  CE2       17.5620    8.7450   10.2610 C.ar  166  PHE166     -0.0003
     11  CZ        18.6040    9.5580    9.8820 C.ar  166  PHE166     -0.0000
     12  N         18.4130    9.6210    4.5000 N.3   168  THR168     -0.1203
     13  CA        19.4380    8.7650    5.0700 C.3   168  THR168      0.1994
     14  C         20.3330    8.1520    3.9910 C.2   168  THR168      0.2617
     15  O         20.0410    8.2040    2.7930 O.2   168  THR168     -0.2717
     16  CB        18.7810    7.6590    5.9060 C.3   168  THR168      0.1784
     17  OG1       19.6660    7.2530    6.9600 O.3   168  THR168     -0.2211
     18  CG2       18.4490    6.4620    5.0030 C.3   168  THR168      0.0376
     19  N         21.4610    7.5990    4.4570 N.am  169  ASN169     -0.1974
     20  CA        22.3810    6.7820    3.6550 C.3   169  ASN169      0.1688
     21  C         22.7870    7.4560    2.3520 C.2   169  ASN169      0.2292
     22  O         22.8510    6.8220    1.2940 O.2   169  ASN169     -0.2864
     23  CB        21.7820    5.3970    3.3830 C.3   169  ASN169      0.1181
     24  CG        21.5380    4.6080    4.6550 C.2   169  ASN169      0.2629
     25  OD1       22.2530    4.7620    5.6480 O.2   169  ASN169     -0.2716
     26  ND2       20.5230    3.7540    4.6330 N.am  169  ASN169     -0.0877
     27  N         23.6360   12.0400    6.4360 N.3   217  TYR217     -0.1241
     28  CA        22.2620   11.9470    6.9170 C.3   217  TYR217      0.1605
     29  C         21.7090   13.3640    7.0270 C.2   217  TYR217      0.2264
     30  O         22.3540   14.2310    7.6270 O.2   217  TYR217     -0.2867
     31  CB        22.2410   11.2100    8.2720 C.3   217  TYR217      0.0534
     32  CG        22.8940    9.8540    8.1220 C.ar  217  TYR217     -0.0201
     33  CD1       22.1570    8.7560    7.6870 C.ar  217  TYR217     -0.0009
     34  CD2       24.2620    9.6930    8.3050 C.ar  217  TYR217     -0.0009
     35  CE1       22.7540    7.5150    7.4930 C.ar  217  TYR217      0.0417
     36  CE2       24.8770    8.4450    8.0980 C.ar  217  TYR217      0.0417
     37  CZ        24.1100    7.3670    7.7050 C.ar  217  TYR217      0.1957
     38  OH        24.7010    6.1460    7.5050 O.3   217  TYR217     -0.2866
     39  N         18.4150   15.5400    8.3610 N.3   219  LYS219     -0.1245
     40  CA        17.4200   15.2450    9.3830 C.3   219  LYS219      0.1561
     41  C         16.4970   16.4240    9.6750 C.2   219  LYS219      0.2260
     42  O         16.8920   17.5880    9.5840 O.2   219  LYS219     -0.2867
     43  CB        18.0870   14.8350   10.6930 C.3   219  LYS219      0.0271
     44  CG        19.1850   13.8100   10.5360 C.3   219  LYS219      0.0035
     45  CD        19.6230   13.2990   11.9250 C.3   219  LYS219      0.0206
     46  CE        20.7820   12.2910   11.8080 C.3   219  LYS219      0.1093
     47  NZ        21.2520   11.8340   13.1710 N.3   219  LYS219     -0.1314
     48  N         17.2560    6.8530   14.0380 N.3   225  THR225     -0.1218
     49  CA        17.9970    5.6680   13.6380 C.3   225  THR225      0.1862
     50  C         17.7430    4.5690   14.6540 C.2   225  THR225      0.2287
     51  O         18.2180    4.6650   15.7930 O.2   225  THR225     -0.2866
     52  CB        19.4830    5.9740   13.5410 C.3   225  THR225      0.1770
     53  OG1       19.6730    6.9800   12.5300 O.3   225  THR225     -0.2211
     54  CG2       20.2670    4.7050   13.1770 C.3   225  THR225      0.0375
     55  N         20.6690   -0.8000   16.8410 N.3   228  HIS228     -0.1241
     56  CA        21.4760   -1.7280   16.0590 C.3   228  HIS228      0.1621
     57  C         22.8790   -1.7860   16.6300 C.2   228  HIS228      0.2264
     58  O         23.3130   -0.8870   17.3560 O.2   228  HIS228     -0.2867
     59  CB        21.5230   -1.3310   14.5690 C.3   228  HIS228      0.0745
     60  CG        22.2320   -0.0320   14.2980 C.ar  228  HIS228      0.0817
     61  ND1       21.7440    1.1930   14.7140 N.ar  228  HIS228     -0.2268
     62  CD2       23.3950    0.2310   13.6520 C.ar  228  HIS228      0.1154
     63  CE1       22.5730    2.1510   14.3340 C.ar  228  HIS228      0.1986
     64  NE2       23.5790    1.5960   13.6780 N.ar  228  HIS228     -0.2212
     65  N         26.7370   -2.0880   14.7910 N.3   230  GLU230     -0.1245
     66  CA        27.3430   -1.8970   13.4800 C.3   230  GLU230      0.1567
     67  C         27.5780   -3.2430   12.7880 C.2   230  GLU230      0.2260
     68  O         27.7040   -4.2890   13.4310 O.2   230  GLU230     -0.2867
     69  CB        28.6700   -1.1460   13.6050 C.3   230  GLU230      0.0388
     70  CG        28.5110    0.2410   14.1510 C.3   230  GLU230      0.1160
     71  CD        27.6770    1.0900   13.2160 C.2   230  GLU230      0.3649
     72  OE1       28.0820    1.2850   12.0490 O.co2 230  GLU230     -0.2457
     73  OE2       26.6100    1.5570   13.6480 O.co2 230  GLU230     -0.2457
     74  N         32.4530    2.8940   14.9840 N.3   236  SER236     -0.1217
     75  CA        31.7860    3.8790   14.1480 C.3   236  SER236      0.1889
     76  C         32.1740    5.2770   14.6120 C.2   236  SER236      0.2288
     77  O         32.3750    5.5050   15.8060 O.2   236  SER236     -0.2866
     78  CB        30.2620    3.7640   14.2210 C.3   236  SER236      0.2089
     79  OG        29.6880    4.5820   13.2110 O.3   236  SER236     -0.2183
     80  N         30.9620    9.4540   14.0690 N.3   238  ASN238     -0.1240
     81  CA        29.8160   10.2520   13.6330 C.3   238  ASN238      0.1653
     82  C         30.0380   11.7120   14.0400 C.2   238  ASN238      0.2266
     83  O         30.3520   11.9880   15.2020 O.2   238  ASN238     -0.2867
     84  CB        28.5250    9.6720   14.2380 C.3   238  ASN238      0.1155
     85  CG        27.2660   10.3960   13.7870 C.2   238  ASN238      0.2627
     86  OD1       27.1530   11.6100   13.9220 O.2   238  ASN238     -0.2716
     87  ND2       26.2870    9.6320   13.2990 N.am  238  ASN238     -0.0877
     88  N         21.5520   10.6310   21.6840 N.3   248  TRP248     -0.1241
     89  CA        22.0750    9.2720   21.5770 C.3   248  TRP248      0.1605
     90  C         21.6830    8.4260   22.7870 C.2   248  TRP248      0.2264
     91  O         21.6930    8.9150   23.9230 O.2   248  TRP248     -0.2867
     92  CB        23.5980    9.3030   21.4720 C.3   248  TRP248      0.0550
     93  CG        24.0920    9.8730   20.1850 C.ar  248  TRP248      0.0003
     94  CD1       23.9460   11.1600   19.7430 C.ar  248  TRP248      0.0946
     95  CD2       24.8130    9.1720   19.1660 C.ar  248  TRP248      0.0152
     96  NE1       24.5400   11.3050   18.5140 N.ar  248  TRP248     -0.2442
     97  CE2       25.0670   10.0930   18.1310 C.ar  248  TRP248      0.0810
     98  CE3       25.2570    7.8410   19.0210 C.ar  248  TRP248      0.0012
     99  CZ2       25.7650    9.7430   16.9720 C.ar  248  TRP248      0.0191
    100  CZ3       25.9470    7.4900   17.8670 C.ar  248  TRP248      0.0001
    101  CH2       26.1860    8.4410   16.8480 C.ar  248  TRP248      0.0015
    102  N         31.6270    5.2900   18.5650 N.3   302  ILE302     -0.1245
    103  CA        30.8690    4.1170   18.9890 C.3   302  ILE302      0.1561
    104  C         31.8340    2.9380   19.0320 C.2   302  ILE302      0.2260
    105  O         32.3530    2.5180   17.9950 O.2   302  ILE302     -0.2867
    106  CB        29.7080    3.8280   18.0380 C.3   302  ILE302      0.0252
    107  CG1       28.5910    4.8390   18.2140 C.3   302  ILE302      0.0019
    108  CG2       29.1320    2.4580   18.3300 C.3   302  ILE302      0.0019
    109  CD1       27.8360    4.6480   19.5430 C.3   302  ILE302      0.0001
    110  N         23.1440    0.7970   19.9350 N.3   308  HIS308     -0.1241
    111  CA        22.8070    2.2160   20.0360 C.3   308  HIS308      0.1621
    112  C         21.6480    2.5710   19.1100 C.2   308  HIS308      0.2264
    113  O         21.3430    1.8590   18.1490 O.2   308  HIS308     -0.2867
    114  CB        24.0310    3.1110   19.7490 C.3   308  HIS308      0.0745
    115  CG        24.5780    2.9650   18.3600 C.ar  308  HIS308      0.0817
    116  ND1       25.1590    1.7950   17.9050 N.ar  308  HIS308     -0.2268
    117  CD2       24.6410    3.8430   17.3270 C.ar  308  HIS308      0.1154
    118  CE1       25.5360    1.9580   16.6410 C.ar  308  HIS308      0.1986
    119  NE2       25.2310    3.1900   16.2660 N.ar  308  HIS308     -0.2212
    120  N         19.4530    6.5170   17.8570 N.3   310  VAL310     -0.1245
    121  CA        19.7180    7.9540   17.7740 C.3   310  VAL310      0.1561
    122  C         18.4860    8.6730   17.2470 C.2   310  VAL310      0.2260
    123  O         17.6980    8.1070   16.4830 O.2   310  VAL310     -0.2867
    124  CB        20.9410    8.2220   16.8720 C.3   310  VAL310      0.0252
    125  CG1       21.2780    9.7390   16.7660 C.3   310  VAL310      0.0019
    126  CG2       22.1320    7.4160   17.3860 C.3   310  VAL310      0.0019
    127  N         24.3060   14.8920    9.6060 N.3   318  ASN318     -0.1240
    128  CA        25.3930   14.1470   10.2260 C.3   318  ASN318      0.1653
    129  C         26.1980   13.4500    9.1400 C.2   318  ASN318      0.2266
    130  O         25.6720   13.1260    8.0770 O.2   318  ASN318     -0.2867
    131  CB        24.8850   13.0630   11.2220 C.3   318  ASN318      0.1155
    132  CG        24.1470   13.6490   12.4210 C.2   318  ASN318      0.2627
    133  OD1       23.0510   14.1990   12.2880 O.2   318  ASN318     -0.2716
    134  ND2       24.7420   13.5250   13.5950 N.am  318  ASN318     -0.0877
    135  N         29.0200   10.0050    8.7940 N.3   320  ALA320     -0.1245
    136  CA        29.4170    8.8440    9.5750 C.3   320  ALA320      0.1562
    137  C         30.1070    7.8150    8.6920 C.2   320  ALA320      0.2260
    138  O         29.8550    7.7300    7.4900 O.2   320  ALA320     -0.2867
    139  CB        28.2170    8.1980   10.2720 C.3   320  ALA320      0.0290
@<TRIPOS>BOND
     1    22    21    2
     2    21    20    1
     3    15    14    2
     4    23    20    1
     5    23    24    1
     6    20    19    1
     7    14    19   am
     8    14    13    1
     9    12    13    1
    10    26    24   am
    11    24    25    2
    12    18    16    1
    13    13    16    1
    14     4     3    2
    15    16    17    1
    16     3     2    1
    17    27    28    1
    18     1     2    1
    19    28    29    1
    20    28    31    1
    21    29    30    2
    22     2     5    1
    23   138   137    2
    24    35    33   ar
    25    35    37   ar
    26    38    37    1
    27    33    32   ar
    28    37    36   ar
    29   130   129    2
    30    36    34   ar
    31    32    31    1
    32    32    34   ar
    33    39    40    1
    34     5     6    1
    35     7     6   ar
    36     7     9   ar
    37   137   136    1
    38   135   136    1
    39     6     8   ar
    40     9    11   ar
    41   129   128    1
    42    40    41    1
    43    40    43    1
    44   136   139    1
    45    42    41    2
    46   127   128    1
    47     8    10   ar
    48    11    10   ar
    49   128   131    1
    50    44    43    1
    51    44    45    1
    52   131   132    1
    53    46    45    1
    54    46    47    1
    55    72    71   ar
    56   133   132    2
    57   132   134   am
    58    53    52    1
    59    67    68    2
    60    67    66    1
    61    54    52    1
    62    79    78    1
    63    71    73   ar
    64    71    70    1
    65    87    85   am
    66    66    69    1
    67    66    65    1
    68    52    49    1
    69    69    70    1
    70    81    82    1
    71    81    80    1
    72    81    84    1
    73    49    48    1
    74    49    50    1
    75    62    64   ar
    76    62    60   ar
    77    64    63   ar
    78    85    86    2
    79    85    84    1
    80    82    83    2
    81    75    78    1
    82    75    76    1
    83    75    74    1
    84    60    59    1
    85    60    61   ar
    86    63    61   ar
    87    59    56    1
    88    76    77    2
    89    50    51    2
    90    56    57    1
    91    56    55    1
    92   119   118   ar
    93   119   117   ar
    94   123   122    2
    95    57    58    2
    96   118   116   ar
    97   125   124    1
    98   101    99   ar
    99   101   100   ar
   100   124   126    1
   101   124   121    1
   102    99    97   ar
   103   122   121    1
   104   117   115   ar
   105   121   120    1
   106   100    98   ar
   107   116   115   ar
   108   105   104    2
   109   106   107    1
   110   106   108    1
   111   106   103    1
   112    97    96   ar
   113    97    95   ar
   114   113   112    2
   115   107   109    1
   116   115   114    1
   117    96    94   ar
   118   102   103    1
   119   103   104    1
   120    98    95   ar
   121   112   111    1
   122    95    93   ar
   123    94    93   ar
   124   114   111    1
   125   110   111    1
   126    93    92    1
   127    92    89    1
   128    89    88    1
   129    89    90    1
   130    90    91    2
