@<TRIPOS>MOLECULE
tmp/6fulA00.pdb
 122 114 0 0 0
SMALL
GASTEIGER

@<TRIPOS>ATOM
      1  N         12.9670   11.2220    6.7620 N.3   167  PHE167     -0.1241
      2  CA        14.3660   11.1840    7.1750 C.3   167  PHE167      0.1605
      3  C         15.2090   10.8880    5.9350 C.2   167  PHE167      0.2264
      4  O         15.0460    9.8320    5.3150 O.2   167  PHE167     -0.2867
      5  CB        14.5210   10.1000    8.2550 C.3   167  PHE167      0.0534
      6  CG        15.9260    9.8800    8.7730 C.ar  167  PHE167     -0.0203
      7  CD1       16.9780   10.7420    8.4860 C.ar  167  PHE167     -0.0042
      8  CD2       16.1790    8.7590    9.5670 C.ar  167  PHE167     -0.0042
      9  CE1       18.2630   10.4950    8.9930 C.ar  167  PHE167     -0.0003
     10  CE2       17.4510    8.5050   10.0760 C.ar  167  PHE167     -0.0003
     11  CZ        18.4930    9.3760    9.7840 C.ar  167  PHE167     -0.0000
     12  N         23.4610   12.2040    6.1960 N.3   218  TYR218     -0.1241
     13  CA        22.0900   12.0710    6.6750 C.3   218  TYR218      0.1605
     14  C         21.5190   13.4750    6.8360 C.2   218  TYR218      0.2264
     15  O         22.1690   14.3340    7.4360 O.2   218  TYR218     -0.2867
     16  CB        22.0750   11.2790    8.0120 C.3   218  TYR218      0.0534
     17  CG        22.6440    9.8990    7.7640 C.ar  218  TYR218     -0.0201
     18  CD1       24.0240    9.7030    7.6180 C.ar  218  TYR218     -0.0009
     19  CD2       21.8040    8.8210    7.5390 C.ar  218  TYR218     -0.0009
     20  CE1       24.5410    8.4630    7.2950 C.ar  218  TYR218      0.0417
     21  CE2       22.3190    7.5530    7.2440 C.ar  218  TYR218      0.0417
     22  CZ        23.6890    7.3900    7.1070 C.ar  218  TYR218      0.1957
     23  OH        24.2130    6.1510    6.7770 O.3   218  TYR218     -0.2866
     24  N         18.1530   15.5840    8.2300 N.3   220  LYS220     -0.1245
     25  CA        17.1330   15.2590    9.2110 C.3   220  LYS220      0.1561
     26  C         16.1960   16.4230    9.5150 C.2   220  LYS220      0.2260
     27  O         16.5560   17.5970    9.4110 O.2   220  LYS220     -0.2867
     28  CB        17.7620   14.8010   10.5420 C.3   220  LYS220      0.0271
     29  CG        18.7810   13.6870   10.3890 C.3   220  LYS220      0.0035
     30  CD        19.2620   13.2540   11.7770 C.3   220  LYS220      0.0206
     31  CE        20.3400   12.2010   11.6530 C.3   220  LYS220      0.1093
     32  NZ        21.0110   11.9480   12.9790 N.3   220  LYS220     -0.1314
     33  N         13.5330   12.4130   13.3330 N.3   224  SER224     -0.1217
     34  CA        14.1440   11.4250   12.4460 C.3   224  SER224      0.1889
     35  C         14.9520   10.4220   13.2640 C.2   224  SER224      0.2288
     36  O         15.9010   10.8080   13.9560 O.2   224  SER224     -0.2866
     37  CB        15.0480   12.1170   11.4270 C.3   224  SER224      0.2089
     38  OG        14.3190   13.0100   10.5850 O.3   224  SER224     -0.2183
     39  N         17.1340    6.7550   13.7780 N.3   226  THR226     -0.1218
     40  CA        17.8260    5.5240   13.4360 C.3   226  THR226      0.1862
     41  C         17.5280    4.5140   14.5320 C.2   226  THR226      0.2287
     42  O         18.0160    4.6820   15.6600 O.2   226  THR226     -0.2866
     43  CB        19.3300    5.7570   13.3120 C.3   226  THR226      0.1770
     44  OG1       19.5760    6.7290   12.2780 O.3   226  THR226     -0.2211
     45  CG2       20.0540    4.4410   12.9620 C.3   226  THR226      0.0375
     46  N         20.1530   -0.9170   16.8390 N.3   229  HIS229     -0.1241
     47  CA        21.0450   -1.7730   16.0670 C.3   229  HIS229      0.1621
     48  C         22.3770   -1.9280   16.7830 C.2   229  HIS229      0.2264
     49  O         22.7330   -1.1490   17.6700 O.2   229  HIS229     -0.2867
     50  CB        21.2920   -1.2190   14.6550 C.3   229  HIS229      0.0745
     51  CG        21.9480    0.1290   14.6400 C.ar  229  HIS229      0.0817
     52  ND1       21.2960    1.2770   15.0310 N.ar  229  HIS229     -0.2268
     53  CD2       23.2060    0.5080   14.3050 C.ar  229  HIS229      0.1154
     54  CE1       22.1200    2.3080   14.9300 C.ar  229  HIS229      0.1986
     55  NE2       23.2820    1.8690   14.4770 N.ar  229  HIS229     -0.2212
     56  N         26.3000   -2.0950   15.0180 N.3   231  GLU231     -0.1245
     57  CA        26.9390   -1.8550   13.7320 C.3   231  GLU231      0.1567
     58  C         27.1550   -3.1640   12.9770 C.2   231  GLU231      0.2260
     59  O         27.2420   -4.2400   13.5640 O.2   231  GLU231     -0.2867
     60  CB        28.2790   -1.1650   13.9330 C.3   231  GLU231      0.0388
     61  CG        28.1360    0.1830   14.6070 C.3   231  GLU231      0.1160
     62  CD        27.3110    1.1300   13.7700 C.2   231  GLU231      0.3649
     63  OE1       27.6270    1.2950   12.5710 O.co2 231  GLU231     -0.2457
     64  OE2       26.3620    1.7250   14.3140 O.co2 231  GLU231     -0.2457
     65  N         32.0150    2.8900   15.1510 N.3   237  SER237     -0.1217
     66  CA        31.4640    3.8480   14.2040 C.3   237  SER237      0.1889
     67  C         31.7070    5.2710   14.6840 C.2   237  SER237      0.2288
     68  O         31.8630    5.5360   15.8750 O.2   237  SER237     -0.2866
     69  CB        29.9770    3.5880   13.9430 C.3   237  SER237      0.2089
     70  OG        29.1550    4.1320   14.9270 O.3   237  SER237     -0.2183
     71  N         30.4640    9.4060   14.0860 N.3   239  ASN239     -0.1240
     72  CA        29.3460   10.2290   13.6270 C.3   239  ASN239      0.1653
     73  C         29.6390   11.6710   14.0100 C.2   239  ASN239      0.2266
     74  O         29.9470   11.9390   15.1730 O.2   239  ASN239     -0.2867
     75  CB        28.0330    9.7300   14.2730 C.3   239  ASN239      0.1155
     76  CG        26.7870   10.4560   13.7770 C.2   239  ASN239      0.2627
     77  OD1       26.6610   11.6810   13.9050 O.2   239  ASN239     -0.2716
     78  ND2       25.8270    9.6810   13.2530 N.am  239  ASN239     -0.0877
     79  N         21.1590   10.5240   21.6610 N.3   249  TRP249     -0.1241
     80  CA        21.6910    9.1750   21.5410 C.3   249  TRP249      0.1605
     81  C         21.2750    8.3390   22.7440 C.2   249  TRP249      0.2264
     82  O         21.2650    8.8340   23.8740 O.2   249  TRP249     -0.2867
     83  CB        23.2160    9.2060   21.4500 C.3   249  TRP249      0.0550
     84  CG        23.6870    9.7390   20.1440 C.ar  249  TRP249      0.0003
     85  CD1       23.6100   11.0300   19.7080 C.ar  249  TRP249      0.0946
     86  CD2       24.3170    8.9900   19.1000 C.ar  249  TRP249      0.0152
     87  NE1       24.1250   11.1270   18.4280 N.ar  249  TRP249     -0.2442
     88  CE2       24.5740    9.8860   18.0400 C.ar  249  TRP249      0.0810
     89  CE3       24.6830    7.6430   18.9580 C.ar  249  TRP249      0.0012
     90  CZ2       25.1900    9.4810   16.8550 C.ar  249  TRP249      0.0191
     91  CZ3       25.2880    7.2380   17.7870 C.ar  249  TRP249      0.0001
     92  CH2       25.5310    8.1540   16.7400 C.ar  249  TRP249      0.0015
     93  N         22.6270    0.6180   20.1320 N.3   309  HIS309     -0.1241
     94  CA        22.2750    2.0310   20.2350 C.3   309  HIS309      0.1621
     95  C         21.1640    2.3990   19.2560 C.2   309  HIS309      0.2264
     96  O         20.8550    1.6620   18.3080 O.2   309  HIS309     -0.2867
     97  CB        23.5140    2.9140   20.0180 C.3   309  HIS309      0.0745
     98  CG        24.1680    2.6900   18.6880 C.ar  309  HIS309      0.0817
     99  ND1       24.8740    1.5380   18.3960 N.ar  309  HIS309     -0.2268
    100  CD2       24.2040    3.4510   17.5700 C.ar  309  HIS309      0.1154
    101  CE1       25.3280    1.6090   17.1550 C.ar  309  HIS309      0.1986
    102  NE2       24.9240    2.7530   16.6280 N.ar  309  HIS309     -0.2212
    103  N         19.0730    6.3780   17.8660 N.3   311  VAL311     -0.1245
    104  CA        19.3600    7.8080   17.7560 C.3   311  VAL311      0.1561
    105  C         18.1570    8.5510   17.1870 C.2   311  VAL311      0.2260
    106  O         17.4330    8.0400   16.3260 O.2   311  VAL311     -0.2867
    107  CB        20.6060    8.0520   16.8580 C.3   311  VAL311      0.0252
    108  CG1       21.0040    9.5480   16.8310 C.3   311  VAL311      0.0019
    109  CG2       21.7770    7.1840   17.3070 C.3   311  VAL311      0.0019
    110  N         24.0400   14.9000    9.5330 N.3   319  ASN319     -0.1240
    111  CA        25.1140   14.1490   10.1730 C.3   319  ASN319      0.1653
    112  C         25.9170   13.4350    9.0990 C.2   319  ASN319      0.2266
    113  O         25.3830   13.0880    8.0430 O.2   319  ASN319     -0.2867
    114  CB        24.6080   13.0690   11.1650 C.3   319  ASN319      0.1155
    115  CG        23.8510   13.6490   12.3470 C.2   319  ASN319      0.2627
    116  OD1       22.7480   14.1790   12.1930 O.2   319  ASN319     -0.2716
    117  ND2       24.4200   13.5110   13.5430 N.am  319  ASN319     -0.0877
    118  N         28.6260    9.9950    8.7490 N.3   321  ALA321     -0.1245
    119  CA        28.9240    8.7960    9.5290 C.3   321  ALA321      0.1562
    120  C         29.6630    7.7770    8.6800 C.2   321  ALA321      0.2260
    121  O         29.4490    7.6770    7.4620 O.2   321  ALA321     -0.2867
    122  CB        27.6460    8.1680   10.0860 C.3   321  ALA321      0.0290
@<TRIPOS>BOND
     1     4     3    2
     2     3     2    1
     3    12    13    1
     4    13    14    1
     5    13    16    1
     6     1     2    1
     7    23    22    1
     8    14    15    2
     9    22    21   ar
    10    22    20   ar
    11     2     5    1
    12    21    19   ar
    13    20    18   ar
    14   121   120    2
    15    19    17   ar
    16    18    17   ar
    17    17    16    1
    18   113   112    2
    19    24    25    1
    20     5     6    1
    21     7     6   ar
    22     7     9   ar
    23   120   119    1
    24   118   119    1
    25     6     8   ar
    26     9    11   ar
    27   112   111    1
    28    25    26    1
    29    25    28    1
    30    27    26    2
    31   119   122    1
    32   110   111    1
    33     8    10   ar
    34    11    10   ar
    35   111   114    1
    36    29    28    1
    37    29    30    1
    38    38    37    1
    39   114   115    1
    40    37    34    1
    41    31    30    1
    42    31    32    1
    43   116   115    2
    44    44    43    1
    45   115   117   am
    46    34    35    1
    47    34    33    1
    48    63    62   ar
    49    45    43    1
    50    58    59    2
    51    58    57    1
    52    78    76   am
    53    35    36    2
    54    43    40    1
    55    40    39    1
    56    40    41    1
    57    72    73    1
    58    72    71    1
    59    72    75    1
    60    57    60    1
    61    57    56    1
    62    62    64   ar
    63    62    61    1
    64    76    77    2
    65    76    75    1
    66    60    61    1
    67    69    66    1
    68    69    70    1
    69    73    74    2
    70    66    67    1
    71    66    65    1
    72    53    55   ar
    73    53    51   ar
    74    55    54   ar
    75    41    42    2
    76    51    50    1
    77    51    52   ar
    78    50    47    1
    79    67    68    2
    80    54    52   ar
    81    47    48    1
    82    47    46    1
    83   106   105    2
    84   102   101   ar
    85   102   100   ar
    86    92    90   ar
    87    92    91   ar
    88    48    49    2
    89   108   107    1
    90    90    88   ar
    91   107   109    1
    92   107   104    1
    93   101    99   ar
    94   105   104    1
    95   100    98   ar
    96   104   103    1
    97    91    89   ar
    98    88    87   ar
    99    88    86   ar
   100    96    95    2
   101    99    98   ar
   102    87    85   ar
   103    98    97    1
   104    89    86   ar
   105    86    84   ar
   106    95    94    1
   107    85    84   ar
   108    97    94    1
   109    93    94    1
   110    84    83    1
   111    83    80    1
   112    80    79    1
   113    80    81    1
   114    81    82    2
