@<TRIPOS>MOLECULE
tmp/6fumA00.pdb
 101 97 0 0 0
SMALL
GASTEIGER

@<TRIPOS>ATOM
      1  N        -10.3420   13.4070  -27.8020 N.3    83  MET83      -0.1245
      2  CA        -9.7970   13.5900  -26.4360 C.3    83  MET83       0.1570
      3  C        -10.8750   14.2440  -25.5030 C.2    83  MET83       0.2261
      4  O        -10.9290   13.9760  -24.2920 O.2    83  MET83      -0.2867
      5  CB        -8.5340   14.4440  -26.4750 C.3    83  MET83       0.0387
      6  CG        -7.3210   13.9060  -27.2530 C.3    83  MET83       0.0595
      7  SD        -6.9230   12.1780  -26.9560 S.3    83  MET83      -0.1393
      8  CE        -6.5880   12.2940  -25.2230 C.3    83  MET83       0.0692
      9  N        -13.3730   12.3470  -22.9250 N.3    86  ALA86      -0.1231
     10  CA       -12.9390   11.9170  -21.5720 C.3    86  ALA86       0.1694
     11  C        -13.9050   12.4850  -20.5380 C.2    86  ALA86       0.2591
     12  O        -14.0620   13.7060  -20.3880 O.2    86  ALA86      -0.2718
     13  CB       -11.4770   12.3290  -21.3140 C.3    86  ALA86       0.0304
     14  N        -14.6090   11.5710  -19.8720 N.am   87  ALA87      -0.1980
     15  CA       -15.6740   11.9180  -18.9290 C.3    87  ALA87       0.1597
     16  C        -16.1930   10.6440  -18.2630 C.2    87  ALA87       0.2287
     17  O        -15.7610    9.5220  -18.6070 O.2    87  ALA87      -0.2864
     18  CB       -16.8170   12.5890  -19.6460 C.3    87  ALA87       0.0319
     19  N        -15.9380    5.5010  -16.4560 N.3   107  ARG107     -0.1231
     20  CA       -15.0680    6.5740  -16.9290 C.3   107  ARG107      0.1694
     21  C        -14.3590    6.1410  -18.1890 C.2   107  ARG107      0.2592
     22  O        -13.6120    5.1250  -18.1730 O.2   107  ARG107     -0.2718
     23  CB       -14.0590    6.9480  -15.8730 C.3   107  ARG107      0.0321
     24  CG       -13.2100    8.1570  -16.2610 C.3   107  ARG107      0.0489
     25  CD       -12.4050    8.7590  -15.0980 C.3   107  ARG107      0.2205
     26  NE       -13.2070    9.1350  -13.9370 N.pl3 107  ARG107     -0.0865
     27  CZ       -13.9330   10.2590  -13.8200 C.cat 107  ARG107      0.5346
     28  NH1      -13.9510   11.1970  -14.7920 N.pl3 107  ARG107      0.1354
     29  NH2      -14.6320   10.4340  -12.7030 N.pl3 107  ARG107      0.1354
     30  N        -14.4680    6.9490  -19.2220 N.am  108  LEU108     -0.1966
     31  CA       -13.8470    6.7330  -20.4970 C.3   108  LEU108      0.1728
     32  C        -12.4890    7.4520  -20.5530 C.2   108  LEU108      0.2616
     33  O        -12.3960    8.6890  -20.4530 O.2   108  LEU108     -0.2715
     34  CB       -14.7440    7.2460  -21.6250 C.3   108  LEU108      0.0311
     35  CG       -14.3090    6.9200  -23.0690 C.3   108  LEU108      0.0022
     36  CD1      -14.1600    5.4120  -23.2710 C.3   108  LEU108      0.0001
     37  CD2      -15.2950    7.5770  -24.0370 C.3   108  LEU108      0.0001
     38  N        -11.4560    6.6720  -20.7700 N.am  109  HIS109     -0.1959
     39  CA       -10.0600    7.1830  -20.9680 C.3   109  HIS109      0.1787
     40  C         -9.7110    7.0670  -22.4480 C.2   109  HIS109      0.2620
     41  O         -9.8250    5.9920  -23.0410 O.2   109  HIS109     -0.2715
     42  CB        -9.1370    6.3450  -20.1790 C.3   109  HIS109      0.0785
     43  CG        -9.3760    6.4560  -18.7040 C.ar  109  HIS109      0.0821
     44  ND1      -10.3740    5.7630  -18.0420 N.ar  109  HIS109     -0.2267
     45  CD2       -8.8050    7.2680  -17.7890 C.ar  109  HIS109      0.1154
     46  CE1      -10.3210    6.0670  -16.7570 C.ar  109  HIS109      0.1986
     47  NE2       -9.3840    6.9920  -16.5850 N.ar  109  HIS109     -0.2212
     48  N         -9.2740    8.1590  -23.0610 N.am  110  ILE110     -0.1963
     49  CA        -8.9910    8.1510  -24.4710 C.3   110  ILE110      0.1727
     50  C         -7.4500    8.0840  -24.6070 C.2   110  ILE110      0.2616
     51  O         -6.7200    8.9460  -24.0650 O.2   110  ILE110     -0.2715
     52  CB        -9.5950    9.3330  -25.1890 C.3   110  ILE110      0.0290
     53  CG1      -11.1790    9.2740  -25.0750 C.3   110  ILE110      0.0022
     54  CG2       -9.3150    9.2520  -26.6690 C.3   110  ILE110      0.0023
     55  CD1      -11.6340   10.1780  -24.0790 C.3   110  ILE110      0.0001
     56  N         -6.9520    7.0360  -25.2600 N.am  111  LEU111     -0.1977
     57  CA        -5.4840    6.8950  -25.4290 C.3   111  LEU111      0.1596
     58  C         -5.0400    7.6840  -26.6540 C.2   111  LEU111      0.2287
     59  O         -5.3680    7.3270  -27.7710 O.2   111  LEU111     -0.2864
     60  CB        -5.0760    5.4030  -25.5900 C.3   111  LEU111      0.0297
     61  CG        -5.7030    4.4330  -24.5630 C.3   111  LEU111      0.0022
     62  CD1       -5.2870    2.9800  -24.8630 C.3   111  LEU111      0.0001
     63  CD2       -5.3830    4.8490  -23.1460 C.3   111  LEU111      0.0001
     64  N          2.7830    2.1390  -19.0280 N.3   145  ASN145     -0.1240
     65  CA         2.0320    2.5260  -17.8790 C.3   145  ASN145      0.1653
     66  C          3.0000    2.6820  -16.6660 C.2   145  ASN145      0.2266
     67  O          4.0810    2.0920  -16.6130 O.2   145  ASN145     -0.2867
     68  CB         0.8790    1.5260  -17.6870 C.3   145  ASN145      0.1155
     69  CG        -0.2470    1.6880  -18.7670 C.2   145  ASN145      0.2627
     70  OD1       -0.4870    0.8010  -19.6440 O.2   145  ASN145     -0.2716
     71  ND2       -0.9390    2.8010  -18.7010 N.am  145  ASN145     -0.0877
     72  N         -0.3430    9.0320  -11.0490 N.3   158  ASP158     -0.1225
     73  CA        -0.8490    8.3160  -12.2120 C.3   158  ASP158      0.1805
     74  C         -0.4110    9.0720  -13.4790 C.2   158  ASP158      0.2598
     75  O         -0.1430   10.2610  -13.4540 O.2   158  ASP158     -0.2718
     76  CB        -2.4030    8.3340  -12.1540 C.3   158  ASP158      0.1424
     77  CG        -2.9890    7.3720  -11.1730 C.2   158  ASP158      0.3668
     78  OD1       -2.2780    6.5020  -10.6410 O.co2 158  ASP158     -0.2456
     79  OD2       -4.2280    7.5170  -10.9430 O.co2 158  ASP158     -0.2456
     80  N         -0.3960    8.4060  -14.6240 N.am  159  LYS159     -0.1966
     81  CA        -0.1760    9.1280  -15.8780 C.3   159  LYS159      0.1728
     82  C         -1.3990   10.0080  -16.2050 C.2   159  LYS159      0.2616
     83  O         -2.5470    9.6630  -15.8890 O.2   159  LYS159     -0.2715
     84  CB         0.1800    8.2080  -17.0490 C.3   159  LYS159      0.0311
     85  CG        -0.8590    7.2820  -17.5030 C.3   159  LYS159      0.0038
     86  CD        -0.5620    6.6680  -18.8930 C.3   159  LYS159      0.0206
     87  CE        -1.7090    5.7300  -19.2580 C.3   159  LYS159      0.1093
     88  NZ        -1.5150    4.7910  -20.3970 N.3   159  LYS159     -0.1314
     89  N         -1.1150   11.1240  -16.8510 N.am  160  CYS160     -0.1954
     90  CA        -2.0520   12.1370  -17.1630 C.3   160  CYS160      0.1843
     91  C         -1.7780   12.5450  -18.6420 C.2   160  CYS160      0.2625
     92  O         -0.6180   12.6850  -19.0290 O.2   160  CYS160     -0.2714
     93  CB        -1.7090   13.3070  -16.1790 C.3   160  CYS160      0.0997
     94  SG        -2.9830   14.4550  -15.8060 S.3   160  CYS160     -0.0797
     95  N         -2.8170   12.7530  -19.4330 N.am  161  VAL161     -0.1977
     96  CA        -2.6750   13.2570  -20.8100 C.3   161  VAL161      0.1596
     97  C         -3.0420   14.6970  -20.9360 C.2   161  VAL161      0.2287
     98  O         -4.1480   15.0980  -20.5170 O.2   161  VAL161     -0.2864
     99  CB        -3.5590   12.4900  -21.7970 C.3   161  VAL161      0.0276
    100  CG1       -3.2470   12.8620  -23.2600 C.3   161  VAL161      0.0022
    101  CG2       -3.4160   11.0500  -21.5380 C.3   161  VAL161      0.0022
@<TRIPOS>BOND
     1     1     2    1
     2    59    58    2
     3     6     7    1
     4     6     5    1
     5     7     8    1
     6    54    52    1
     7    58    57    1
     8     5     2    1
     9     2     3    1
    10    60    57    1
    11    60    61    1
    12     3     4    2
    13    57    56    1
    14    56    50   am
    15    52    53    1
    16    52    49    1
    17    53    55    1
    18    62    61    1
    19    50    49    1
    20    50    51    2
    21    61    63    1
    22    49    48    1
    23    37    35    1
    24    36    35    1
    25   100    99    1
    26    35    34    1
    27    48    40   am
    28    41    40    2
    29     9    10    1
    30    40    39    1
    31    99   101    1
    32    99    96    1
    33    34    31    1
    34    10    13    1
    35    10    11    1
    36    39    38    1
    37    39    42    1
    38    97    96    1
    39    97    98    2
    40    96    95    1
    41    38    32   am
    42    32    31    1
    43    32    33    2
    44    11    12    2
    45    11    14   am
    46    31    30    1
    47    88    87    1
    48    42    43    1
    49    14    15    1
    50    18    15    1
    51    70    69    2
    52    95    91   am
    53    87    86    1
    54    30    21   am
    55    92    91    2
    56    64    65    1
    57    15    16    1
    58    86    85    1
    59    69    71   am
    60    69    68    1
    61    43    44   ar
    62    43    45   ar
    63    91    90    1
    64    17    16    2
    65    21    22    2
    66    21    20    1
    67    44    46   ar
    68    65    68    1
    69    65    66    1
    70    45    47   ar
    71    85    84    1
    72    90    89    1
    73    90    93    1
    74    84    81    1
    75    20    19    1
    76    20    23    1
    77    89    82   am
    78    46    47   ar
    79    66    67    2
    80    24    23    1
    81    24    25    1
    82    82    83    2
    83    82    81    1
    84    93    94    1
    85    81    80    1
    86    25    26    1
    87    28    27    1
    88    80    74   am
    89    26    27    2
    90    27    29    1
    91    74    75    2
    92    74    73    1
    93    73    76    1
    94    73    72    1
    95    76    77    1
    96    77    79   ar
    97    77    78   ar
