@<TRIPOS>MOLECULE
tmp/6fupA01.pdb
 80 73 0 0 0
SMALL
GASTEIGER

@<TRIPOS>ATOM
      1  N        103.1290  117.5970   27.3700 N.3    20  LEU20      -0.1245
      2  CA       104.1350  116.6280   26.9320 C.3    20  LEU20       0.1561
      3  C        104.1650  116.6380   25.4040 C.2    20  LEU20       0.2260
      4  O        103.1700  116.2940   24.7450 O.2    20  LEU20      -0.2867
      5  CB       103.8640  115.2160   27.4890 C.3    20  LEU20       0.0270
      6  CG       104.7330  114.1030   26.8590 C.3    20  LEU20       0.0019
      7  CD1      106.1820  114.2900   27.2600 C.3    20  LEU20       0.0001
      8  CD2      104.2170  112.7260   27.2170 C.3    20  LEU20       0.0001
      9  N        119.1650  118.2520   32.1020 N.3    56  LEU56      -0.1245
     10  CA       117.8540  118.8680   32.3030 C.3    56  LEU56       0.1561
     11  C        117.9510  120.3210   31.9130 C.2    56  LEU56       0.2260
     12  O        118.6610  121.0820   32.5590 O.2    56  LEU56      -0.2867
     13  CB       117.4170  118.7450   33.7670 C.3    56  LEU56       0.0270
     14  CG       116.0710  119.4390   34.0760 C.3    56  LEU56       0.0019
     15  CD1      114.9730  119.0100   33.1140 C.3    56  LEU56       0.0001
     16  CD2      115.7090  119.1940   35.5300 C.3    56  LEU56       0.0001
     17  N        110.5640  122.8300   30.1630 N.3    64  GLU64      -0.1231
     18  CA       111.7960  122.0680   30.4380 C.3    64  GLU64       0.1699
     19  C        111.9040  120.9240   29.4930 C.2    64  GLU64       0.2592
     20  O        110.8900  120.4780   28.9720 O.2    64  GLU64      -0.2718
     21  CB       111.8170  121.4010   31.8340 C.3    64  GLU64       0.0402
     22  CG       111.4150  122.2080   32.9850 C.3    64  GLU64       0.1161
     23  CD       111.5760  121.4120   34.2780 C.2    64  GLU64       0.3649
     24  OE1      111.2180  120.2200   34.3280 O.co2  64  GLU64      -0.2457
     25  OE2      112.1280  121.9680   35.1980 O.co2  64  GLU64      -0.2457
     26  N        113.1080  120.3800   29.3440 N.am   65  ALA65      -0.1966
     27  CA       113.2520  119.1570   28.5780 C.3    65  ALA65       0.1728
     28  C        114.4390  118.4140   29.1050 C.2    65  ALA65       0.2616
     29  O        115.4800  119.0320   29.4470 O.2    65  ALA65      -0.2715
     30  CB       113.4220  119.4580   27.1160 C.3    65  ALA65       0.0334
     31  N        114.3220  117.0960   29.1790 N.am   66  GLU66      -0.1977
     32  CA       115.4820  116.2970   29.6180 C.3    66  GLU66       0.1602
     33  C        116.0520  115.4900   28.4540 C.2    66  GLU66       0.2287
     34  O        115.3590  114.6820   27.8240 O.2    66  GLU66      -0.2864
     35  CB       115.0410  115.4040   30.7620 C.3    66  GLU66       0.0415
     36  CG       116.1540  114.6750   31.4420 C.3    66  GLU66       0.1163
     37  CD       115.6600  113.8140   32.5930 C.2    66  GLU66       0.3649
     38  OE1      114.5360  114.0110   33.0950 O.co2  66  GLU66      -0.2457
     39  OE2      116.4170  112.9420   32.9860 O.co2  66  GLU66      -0.2457
     40  N        117.7490  112.4440   27.1260 N.3    68  LYS68      -0.1245
     41  CA       117.9510  111.0420   27.5410 C.3    68  LYS68       0.1561
     42  C        118.5740  110.2000   26.4250 C.2    68  LYS68       0.2260
     43  O        117.8780  109.7950   25.4680 O.2    68  LYS68      -0.2867
     44  CB       116.6360  110.4340   27.9840 C.3    68  LYS68       0.0271
     45  CG       116.0450  111.0570   29.2170 C.3    68  LYS68       0.0035
     46  CD       114.7420  110.3420   29.5310 C.3    68  LYS68       0.0206
     47  CE       114.0250  111.0410   30.6750 C.3    68  LYS68       0.1093
     48  NZ       112.6360  110.5090   30.8270 N.3    68  LYS68      -0.1314
     49  N        117.2990  106.5090   25.5400 N.3    71  GLU71      -0.1245
     50  CA       116.0700  106.3940   24.7250 C.3    71  GLU71       0.1567
     51  C        115.9880  107.3880   23.5900 C.2    71  GLU71       0.2260
     52  O        114.9050  107.6390   23.0550 O.2    71  GLU71      -0.2867
     53  CB       114.8350  106.4050   25.5940 C.3    71  GLU71       0.0388
     54  CG       114.7860  107.4650   26.6620 C.3    71  GLU71       0.1160
     55  CD       114.2030  106.9050   27.9450 C.2    71  GLU71       0.3649
     56  OE1      113.1520  107.3910   28.3980 O.co2  71  GLU71      -0.2457
     57  OE2      114.7810  105.9490   28.4640 O.co2  71  GLU71      -0.2457
     58  N        115.9260  110.5350   23.3860 N.3    73  SER73      -0.1217
     59  CA       114.7390  111.3900   23.5450 C.3    73  SER73       0.1889
     60  C        115.0640  112.7830   24.0550 C.2    73  SER73       0.2288
     61  O        116.0790  112.9990   24.7150 O.2    73  SER73      -0.2866
     62  CB       113.6950  110.7330   24.4360 C.3    73  SER73       0.2089
     63  OG       114.0690  110.7240   25.8230 O.3    73  SER73      -0.2183
     64  N        112.1230  115.0840   25.2640 N.3    75  HIS75      -0.1241
     65  CA       110.6980  115.4700   25.3240 C.3    75  HIS75       0.1621
     66  C        110.5200  116.8430   26.0320 C.2    75  HIS75       0.2264
     67  O        111.1210  117.0860   27.0760 O.2    75  HIS75      -0.2867
     68  CB       109.8760  114.3960   26.0160 C.3    75  HIS75       0.0745
     69  CG       109.9870  113.0380   25.3640 C.ar   75  HIS75       0.0817
     70  ND1      110.1610  112.8890   24.0000 N.ar   75  HIS75      -0.2268
     71  CD2      109.9900  111.7850   25.8900 C.ar   75  HIS75       0.1154
     72  CE1      110.2500  111.5930   23.7110 C.ar   75  HIS75       0.1986
     73  NE2      110.1560  110.8990   24.8370 N.ar   75  HIS75      -0.2212
     74  N        108.3160  119.4840   28.1880 N.3    77  THR77      -0.1218
     75  CA       107.1750  119.4680   29.0840 C.3    77  THR77       0.1862
     76  C        106.9620  120.8440   29.6500 C.2    77  THR77       0.2287
     77  O        107.8460  121.6870   29.6320 O.2    77  THR77      -0.2866
     78  CB       107.3530  118.5010   30.2800 C.3    77  THR77       0.1770
     79  OG1      108.5190  118.8610   31.0440 O.3    77  THR77      -0.2211
     80  CG2      107.5330  117.0710   29.7650 C.3    77  THR77       0.0375
@<TRIPOS>BOND
     1    52    51    2
     2    58    59    1
     3    59    60    1
     4    59    62    1
     5    51    50    1
     6    72    70   ar
     7    72    73   ar
     8    70    69   ar
     9    60    61    2
    10    62    63    1
    11    50    49    1
    12    50    53    1
    13     4     3    2
    14    73    71   ar
    15    64    65    1
    16    65    68    1
    17    65    66    1
    18    69    71   ar
    19    69    68    1
    20     3     2    1
    21    43    42    2
    22    53    54    1
    23    66    67    2
    24    42    41    1
    25    54    55    1
    26     6     8    1
    27     6     7    1
    28     6     5    1
    29     2     1    1
    30     2     5    1
    31    30    27    1
    32    40    41    1
    33    41    44    1
    34    34    33    2
    35    55    56   ar
    36    55    57   ar
    37    44    45    1
    38    74    75    1
    39    33    32    1
    40    27    28    1
    41    27    26    1
    42    20    19    2
    43    75    76    1
    44    75    78    1
    45    28    31   am
    46    28    29    2
    47    31    32    1
    48    45    46    1
    49    26    19   am
    50    19    18    1
    51    46    47    1
    52    32    35    1
    53    77    76    2
    54    80    78    1
    55    17    18    1
    56    78    79    1
    57    18    21    1
    58    47    48    1
    59    35    36    1
    60    36    37    1
    61    21    22    1
    62    11    10    1
    63    11    12    2
    64     9    10    1
    65    10    13    1
    66    37    39   ar
    67    37    38   ar
    68    22    23    1
    69    15    14    1
    70    13    14    1
    71    14    16    1
    72    23    24   ar
    73    23    25   ar
