@<TRIPOS>MOLECULE
tmp/6futA00.pdb
 165 161 0 0 0
SMALL
GASTEIGER

@<TRIPOS>ATOM
      1  N          1.8630   11.1770  -12.9680 N.3     2  LEU2       -0.1245
      2  CA         2.5500    9.8510  -12.8560 C.3     2  LEU2        0.1561
      3  C          3.2800    9.7560  -11.5530 C.2     2  LEU2        0.2260
      4  O          3.9690   10.6750  -11.1070 O.2     2  LEU2       -0.2867
      5  CB         3.5650    9.5980  -13.9830 C.3     2  LEU2        0.0270
      6  CG         3.0050    9.7840  -15.3640 C.3     2  LEU2        0.0019
      7  CD1        4.1180    9.4470  -16.3720 C.3     2  LEU2        0.0001
      8  CD2        1.7960    9.0000  -15.7970 C.3     2  LEU2        0.0001
      9  N         -2.1960   26.2720  -24.8600 N.3    41  HIS41      -0.1241
     10  CA        -2.2570   25.1660  -25.7990 C.3    41  HIS41       0.1621
     11  C         -3.4300   24.2940  -25.6300 C.2    41  HIS41       0.2264
     12  O         -3.8280   23.5220  -26.5110 O.2    41  HIS41      -0.2867
     13  CB        -0.9430   24.3790  -25.8480 C.3    41  HIS41       0.0745
     14  CG        -0.8100   23.3870  -24.7520 C.ar   41  HIS41       0.0817
     15  ND1       -0.0860   23.6370  -23.6320 N.ar   41  HIS41      -0.2268
     16  CD2       -1.3360   22.1510  -24.6330 C.ar   41  HIS41       0.1154
     17  CE1       -0.1240   22.5270  -22.8590 C.ar   41  HIS41       0.1986
     18  NE2       -0.8610   21.6160  -23.4500 N.ar   41  HIS41      -0.2212
     19  N         -3.4940   11.8730  -16.9440 N.3   126  ILE126     -0.1245
     20  CA        -3.2740   10.4560  -16.9230 C.3   126  ILE126      0.1561
     21  C         -2.3320    9.9890  -15.8760 C.2   126  ILE126      0.2260
     22  O         -1.3860   10.7140  -15.4990 O.2   126  ILE126     -0.2867
     23  CB        -2.8940    9.8880  -18.3220 C.3   126  ILE126      0.0252
     24  CG1       -1.5060   10.3430  -18.7390 C.3   126  ILE126      0.0019
     25  CG2       -3.9680   10.2560  -19.3470 C.3   126  ILE126      0.0019
     26  CD1       -1.0700    9.7510  -20.1040 C.3   126  ILE126      0.0001
     27  N         -0.8130    6.7330  -15.9180 N.3   128  ASN128     -0.1225
     28  CA         0.1800    5.6970  -16.3410 C.3   128  ASN128      0.1785
     29  C          0.3720    5.8560  -17.8640 C.2   128  ASN128      0.2597
     30  O         -0.2630    6.6450  -18.5330 O.2   128  ASN128     -0.2718
     31  CB        -0.2110    4.3010  -15.9000 C.3   128  ASN128      0.1169
     32  CG        -1.4750    3.7780  -16.5590 C.2   128  ASN128      0.2627
     33  OD1       -1.8350    4.1530  -17.6440 O.2   128  ASN128     -0.2716
     34  ND2       -2.1730    2.9090  -15.8000 N.am  128  ASN128     -0.0877
     35  N          1.3580    5.0530  -18.3830 N.am  129  HIS129     -0.1975
     36  CA         1.7050    5.1760  -19.7760 C.3   129  HIS129      0.1656
     37  C          0.6100    4.6180  -20.6850 C.2   129  HIS129      0.2291
     38  O          0.6310    4.8590  -21.9130 O.2   129  HIS129     -0.2864
     39  CB         2.9380    4.4250  -20.0930 C.3   129  HIS129      0.0771
     40  CG         4.1930    5.0860  -19.7160 C.ar  129  HIS129      0.0820
     41  ND1        4.4470    5.4480  -18.4470 N.ar  129  HIS129     -0.2267
     42  CD2        5.3060    5.3710  -20.4330 C.ar  129  HIS129      0.1154
     43  CE1        5.6900    5.9400  -18.3550 C.ar  129  HIS129      0.1986
     44  NE2        6.2130    5.9240  -19.5630 N.ar  129  HIS129     -0.2212
     45  N          5.9640   12.5390  -12.5220 N.3   173  ASP173     -0.1225
     46  CA         5.8920   13.6860  -13.4650 C.3   173  ASP173      0.1805
     47  C          4.4760   14.1320  -13.6130 C.2   173  ASP173      0.2598
     48  O          3.5210   13.4450  -13.2400 O.2   173  ASP173     -0.2718
     49  CB         6.3340   13.1960  -14.8550 C.3   173  ASP173      0.1424
     50  CG         6.8460   14.2050  -15.7470 C.2   173  ASP173      0.3668
     51  OD1        6.8670   15.4500  -15.4760 O.co2 173  ASP173     -0.2456
     52  OD2        7.3110   13.8290  -16.8860 O.co2 173  ASP173     -0.2456
     53  N          4.3170   15.3090  -14.2270 N.am  174  SER174     -0.1938
     54  CA         3.0530   15.7330  -14.7770 C.3   174  SER174      0.2055
     55  C          2.8750   15.1140  -16.1510 C.2   174  SER174      0.2643
     56  O          3.8640   14.7190  -16.7890 O.2   174  SER174     -0.2714
     57  CB         2.9660   17.2580  -14.8130 C.3   174  SER174      0.2130
     58  OG         4.0380   17.7980  -15.4970 O.3   174  SER174     -0.2179
     59  N          1.6530   14.9840  -16.6260 N.am  175  CYS175     -0.1953
     60  CA         1.3990   14.3270  -17.9060 C.3   175  CYS175      0.1843
     61  C          0.1460   14.8400  -18.5760 C.2   175  CYS175      0.2625
     62  O         -0.4700   15.8060  -18.1840 O.2   175  CYS175     -0.2714
     63  CB         1.4090   12.8350  -17.7110 C.3   175  CYS175      0.0997
     64  SG         1.7650   11.7980  -19.2200 S.3   175  CYS175     -0.0797
     65  N         -0.2600   14.1650  -19.6700 N.am  176  LYS176     -0.1963
     66  CA        -1.4440   14.5540  -20.4880 C.3   176  LYS176      0.1728
     67  C         -2.6670   14.7700  -19.6060 C.2   176  LYS176      0.2616
     68  O         -3.0550   13.8730  -18.8000 O.2   176  LYS176     -0.2715
     69  CB        -1.7730   13.4300  -21.4730 C.3   176  LYS176      0.0311
     70  CG        -2.8510   13.8380  -22.4590 C.3   176  LYS176      0.0038
     71  CD        -3.1160   12.6820  -23.4250 C.3   176  LYS176      0.0206
     72  CE        -4.1390   13.1750  -24.3700 C.3   176  LYS176      0.1093
     73  NZ        -4.5940   12.0320  -25.1610 N.3   176  LYS176     -0.1314
     74  N         -3.2150   15.9890  -19.6890 N.am  177  GLY177     -0.1955
     75  CA        -4.3620   16.3950  -18.9550 C.3   177  GLY177      0.1869
     76  C         -4.0060   17.1370  -17.6570 C.2   177  GLY177      0.2309
     77  O         -4.9070   17.6580  -17.0090 O.2   177  GLY177     -0.2863
     78  N         -1.6570   19.6650  -17.9910 N.3   179  SER179     -0.1217
     79  CA        -1.2800   21.0320  -18.4280 C.3   179  SER179      0.1889
     80  C         -2.2600   22.0740  -17.8770 C.2   179  SER179      0.2288
     81  O         -3.4750   21.8150  -17.8060 O.2   179  SER179     -0.2866
     82  CB        -1.3320   21.1450  -19.9450 C.3   179  SER179      0.2089
     83  OG        -0.3160   20.2920  -20.5200 O.3   179  SER179     -0.2183
     84  N          1.7370   24.1410  -15.3610 N.3   193  VAL193     -0.1231
     85  CA         2.2360   23.0420  -16.1800 C.3   193  VAL193      0.1692
     86  C          2.1050   23.3540  -17.6860 C.2   193  VAL193      0.2593
     87  O          1.0260   23.7860  -18.1540 O.2   193  VAL193     -0.2718
     88  CB         1.4050   21.7770  -15.8870 C.3   193  VAL193      0.0266
     89  CG1        1.8750   20.5760  -16.7190 C.3   193  VAL193      0.0020
     90  CG2        1.3610   21.3870  -14.3820 C.3   193  VAL193      0.0020
     91  N          3.1890   23.1250  -18.4060 N.am  194  THR194     -0.1939
     92  CA         3.0820   23.0080  -19.8820 C.3   194  THR194      0.2028
     93  C          3.6050   21.6730  -20.3450 C.2   194  THR194      0.2643
     94  O          4.0650   20.8300  -19.5500 O.2   194  THR194     -0.2714
     95  CB         3.8060   24.0800  -20.5960 C.3   194  THR194      0.1808
     96  OG1        3.4270   24.0440  -21.9920 O.3   194  THR194     -0.2208
     97  CG2        5.3080   23.8720  -20.5780 C.3   194  THR194      0.0379
     98  N          3.2150   21.3060  -21.6150 N.am  195  SER195     -0.1935
     99  CA         3.4440   19.9460  -22.1440 C.3   195  SER195      0.2055
    100  C          4.8000   19.7130  -22.6580 C.2   195  SER195      0.2644
    101  O          5.1070   18.5040  -22.6550 O.2   195  SER195     -0.2714
    102  CB         2.3160   19.5100  -23.1390 C.3   195  SER195      0.2130
    103  OG         2.2200   20.4810  -24.1830 O.3   195  SER195     -0.2179
    104  N          5.6580   20.7570  -23.0420 N.am  196  GLY196     -0.1939
    105  CA         7.1120   20.4990  -23.2650 C.3   196  GLY196      0.2014
    106  C          7.1910   19.4050  -24.3810 C.2   196  GLY196      0.2640
    107  O          6.6030   19.4740  -25.4480 O.2   196  GLY196     -0.2714
    108  N          7.8980   18.3760  -23.9960 N.am  197  SER197     -0.1935
    109  CA         7.9520   17.0230  -24.5020 C.3   197  SER197      0.2055
    110  C          6.6140   16.3760  -24.3040 C.2   197  SER197      0.2643
    111  O          6.1020   16.4380  -23.1750 O.2   197  SER197     -0.2714
    112  CB         8.9420   16.2070  -23.5960 C.3   197  SER197      0.2130
    113  OG         8.5870   16.1500  -22.1740 O.3   197  SER197     -0.2179
    114  N          6.1100   15.6350  -25.2330 N.am  198  ARG198     -0.1963
    115  CA         4.9280   14.8510  -24.9260 C.3   198  ARG198      0.1729
    116  C          5.3330   13.7130  -24.0200 C.2   198  ARG198      0.2616
    117  O          4.5280   13.0070  -23.4110 O.2   198  ARG198     -0.2715
    118  CB         4.3280   14.2740  -26.2140 C.3   198  ARG198      0.0348
    119  CG         3.7450   15.3730  -27.0800 C.3   198  ARG198      0.0492
    120  CD         3.5190   14.9030  -28.5140 C.3   198  ARG198      0.2205
    121  NE         2.2070   14.2900  -28.5600 N.pl3 198  ARG198     -0.0865
    122  CZ         1.9480   13.0020  -28.6650 C.cat 198  ARG198      0.5346
    123  NH1        2.9200   12.0750  -28.7880 N.pl3 198  ARG198      0.1354
    124  NH2        0.6670   12.6450  -28.6660 N.pl3 198  ARG198      0.1354
    125  N          6.6320   13.4030  -23.9120 N.am  199  VAL199     -0.1963
    126  CA         7.1030   12.2810  -23.1180 C.3   199  VAL199      0.1727
    127  C          6.9740   12.6100  -21.6690 C.2   199  VAL199      0.2616
    128  O          7.4080   13.7100  -21.2450 O.2   199  VAL199     -0.2715
    129  CB         8.5630   11.8970  -23.4720 C.3   199  VAL199      0.0290
    130  CG1        9.0760   10.7360  -22.6680 C.3   199  VAL199      0.0023
    131  CG2        8.5870   11.4990  -24.9580 C.3   199  VAL199      0.0023
    132  N          6.3940   11.7220  -20.9160 N.am  200  CYS200     -0.1968
    133  CA         6.2540   11.8420  -19.4850 C.3   200  CYS200      0.1712
    134  C          7.0530   10.7950  -18.7330 C.2   200  CYS200      0.2296
    135  O          7.1210    9.6060  -19.2090 O.2   200  CYS200     -0.2864
    136  CB         4.7990   11.6860  -19.0610 C.3   200  CYS200      0.0983
    137  SG         3.6330   12.6030  -20.0020 S.3   200  CYS200     -0.0798
    138  N         13.7970   13.9630  -20.2250 N.3   205  LYS205     -0.1231
    139  CA        12.9540   15.0640  -20.7200 C.3   205  LYS205      0.1678
    140  C         12.1880   15.6390  -19.4750 C.2   205  LYS205      0.2434
    141  O         11.0800   15.2730  -19.2050 O.2   205  LYS205     -0.2733
    142  CB        11.9640   14.6660  -21.8520 C.3   205  LYS205      0.0284
    143  CG        12.6680   14.1680  -23.1290 C.3   205  LYS205      0.0035
    144  CD        13.4190   15.2570  -23.8030 C.3   205  LYS205      0.0206
    145  CE        14.4950   14.6820  -24.7430 C.3   205  LYS205      0.1093
    146  NZ        15.0420   15.7750  -25.5880 N.3   205  LYS205     -0.1314
    147  N         12.8580   16.5560  -18.7700 N.am  206  PRO206     -0.2718
    148  CA        12.2580   17.1680  -17.5800 C.3   206  PRO206      0.1535
    149  C         10.9420   17.8080  -17.8900 C.2   206  PRO206      0.2599
    150  O         10.6270   18.2850  -18.9870 O.2   206  PRO206     -0.2715
    151  CB        13.2870   18.2280  -17.1820 C.3   206  PRO206      0.0310
    152  CG        14.6210   17.6440  -17.6110 C.3   206  PRO206      0.0237
    153  CD        14.2500   17.0310  -18.9260 C.3   206  PRO206      0.0939
    154  N         10.1120   17.9200  -16.8330 N.am  207  GLY207     -0.1941
    155  CA         8.8970   18.7080  -16.9590 C.3   207  GLY207      0.2014
    156  C          9.2020   20.1750  -17.0180 C.2   207  GLY207      0.2638
    157  O         10.1290   20.6640  -16.4140 O.2   207  GLY207     -0.2714
    158  N          8.3870   20.9080  -17.7850 N.am  208  ILE208     -0.1977
    159  CA         8.5040   22.3200  -17.9860 C.3   208  ILE208      0.1596
    160  C          7.2590   23.0000  -17.4590 C.2   208  ILE208      0.2287
    161  O          6.1390   22.5690  -17.7200 O.2   208  ILE208     -0.2864
    162  CB         8.6880   22.6910  -19.4780 C.3   208  ILE208      0.0276
    163  CG1        9.9650   22.0230  -20.0120 C.3   208  ILE208      0.0022
    164  CG2        8.8030   24.1740  -19.7010 C.3   208  ILE208      0.0022
    165  CD1       10.1750   22.1350  -21.5000 C.3   208  ILE208      0.0001
@<TRIPOS>BOND
     1   123   122    1
     2   124   122    1
     3   122   121    2
     4   121   120    1
     5   120   119    1
     6   119   118    1
     7    12    11    2
     8   118   115    1
     9    13    10    1
    10    13    14    1
    11    10    11    1
    12    10     9    1
    13   146   145    1
    14   107   106    2
    15   114   115    1
    16   114   110   am
    17    73    72    1
    18   131   129    1
    19   115   116    1
    20    14    16   ar
    21    14    15   ar
    22   145   144    1
    23    16    18   ar
    24   109   110    1
    25   109   108    1
    26   109   112    1
    27   106   108   am
    28   106   105    1
    29    72    71    1
    30   110   111    2
    31   103   102    1
    32   116   125   am
    33   116   117    2
    34   125   126    1
    35   144   143    1
    36    15    17   ar
    37   112   113    1
    38   129   126    1
    39   129   130    1
    40    18    17   ar
    41    71    70    1
    42   105   104    1
    43   102    99    1
    44   143   142    1
    45   126   127    1
    46   104   100   am
    47   100   101    2
    48   100    99    1
    49    70    69    1
    50    99    98    1
    51    96    95    1
    52    38    37    2
    53   142   139    1
    54   127   128    2
    55   127   132   am
    56    98    93   am
    57   165   163    1
    58    69    66    1
    59   132   133    1
    60   139   138    1
    61   139   140    1
    62    37    36    1
    63    95    97    1
    64    95    92    1
    65    83    82    1
    66    66    65    1
    67    66    67    1
    68    42    40   ar
    69    42    44   ar
    70    93    92    1
    71    93    94    2
    72    26    24    1
    73    39    36    1
    74    39    40    1
    75   163   162    1
    76   137    64    1
    77   137   136    1
    78    82    79    1
    79    92    91    1
    80    36    35    1
    81    40    41   ar
    82   164   162    1
    83    74    67   am
    84    74    75    1
    85    65    61   am
    86    67    68    2
    87    44    43   ar
    88   133   136    1
    89   133   134    1
    90   162   159    1
    91   140   141    2
    92   140   147   am
    93    25    23    1
    94    64    63    1
    95   135   134    2
    96   150   149    2
    97    75    76    1
    98   153   147    1
    99   153   152    1
   100   147   148    1
   101    24    23    1
   102    61    62    2
   103    61    60    1
   104    30    29    2
   105    41    43   ar
   106    79    78    1
   107    79    80    1
   108    91    86   am
   109    35    29   am
   110    23    20    1
   111    87    86    2
   112   159   158    1
   113   159   160    1
   114    60    63    1
   115    60    59    1
   116   149   148    1
   117   149   154   am
   118    80    81    2
   119    29    28    1
   120   158   156   am
   121   161   160    2
   122    86    85    1
   123    76    77    2
   124    33    32    2
   125   152   151    1
   126   148   151    1
   127   156   155    1
   128   156   157    2
   129   155   154    1
   130    19    20    1
   131    20    21    1
   132    52    50   ar
   133    56    55    2
   134    89    88    1
   135    59    55   am
   136    32    31    1
   137    32    34   am
   138     7     6    1
   139    28    27    1
   140    28    31    1
   141    85    88    1
   142    85    84    1
   143    55    54    1
   144    88    90    1
   145    21    22    2
   146     8     6    1
   147    50    51   ar
   148    50    49    1
   149    58    57    1
   150     6     5    1
   151    49    46    1
   152    57    54    1
   153    54    53    1
   154    53    47   am
   155     5     2    1
   156    47    46    1
   157    47    48    2
   158    46    45    1
   159     1     2    1
   160     2     3    1
   161     3     4    2
