@<TRIPOS>MOLECULE
tmp/6fuuA00.pdb
 99 94 0 0 0
SMALL
GASTEIGER

@<TRIPOS>ATOM
      1  N          8.3360   17.4910  132.2740 N.3     3  GLU3       -0.1231
      2  CA         9.4630   18.4160  132.3770 C.3     3  GLU3        0.1699
      3  C         10.7970   17.6840  132.5000 C.2     3  GLU3        0.2592
      4  O         11.8330   18.2100  132.0710 O.2     3  GLU3       -0.2718
      5  CB         9.2450   19.3750  133.5470 C.3     3  GLU3        0.0402
      6  CG         8.2560   20.4820  133.2180 C.3     3  GLU3        0.1161
      7  CD         7.5930   21.0730  134.4470 C.2     3  GLU3        0.3649
      8  OE1        7.3650   20.3210  135.4200 O.co2   3  GLU3       -0.2457
      9  OE2        7.2970   22.2920  134.4390 O.co2   3  GLU3       -0.2457
     10  N         10.8020   16.4770  133.0720 N.am    4  MET4       -0.1979
     11  CA        12.0220   15.6760  133.1170 C.3     4  MET4        0.1605
     12  C         12.3670   15.1170  131.7420 C.2     4  MET4        0.2287
     13  O         13.5420   15.0630  131.3600 O.2     4  MET4       -0.2864
     14  CB        11.8580   14.5450  134.1290 C.3     4  MET4        0.0413
     15  CG        12.8960   13.4510  134.0170 C.3     4  MET4        0.0598
     16  SD        12.3510   11.9720  134.8860 S.3     4  MET4       -0.1393
     17  CE        12.0570   12.6460  136.5190 C.3     4  MET4        0.0692
     18  N         13.9700   17.8560  129.9690 N.3     7  ALA7       -0.1231
     19  CA        15.3450   17.9620  130.4410 C.3     7  ALA7        0.1694
     20  C         16.2260   16.9170  129.7760 C.2     7  ALA7        0.2591
     21  O         17.3450   17.2080  129.3390 O.2     7  ALA7       -0.2718
     22  CB        15.3820   17.7990  131.9590 C.3     7  ALA7        0.0304
     23  N         15.7340   15.6840  129.7030 N.am    8  GLN8       -0.1979
     24  CA        16.5050   14.6220  129.0760 C.3     8  GLN8        0.1601
     25  C         16.7320   14.9020  127.5990 C.2     8  GLN8        0.2287
     26  O         17.8520   14.7480  127.0970 O.2     8  GLN8       -0.2864
     27  CB        15.7830   13.2910  129.2770 C.3     8  GLN8        0.0394
     28  CG        15.6950   12.8980  130.7300 C.3     8  GLN8        0.0908
     29  CD        14.9190   11.6240  130.9560 C.2     8  GLN8        0.2608
     30  OE1       14.2350   11.1290  130.0610 O.2     8  GLN8       -0.2717
     31  NE2       15.0110   11.0890  132.1680 N.am    8  GLN8       -0.0878
     32  N         19.4170   17.5820  127.0770 N.3    11  VAL11      -0.1245
     33  CA        20.7760   17.1060  127.3130 C.3    11  VAL11       0.1561
     34  C         21.2660   16.3040  126.1220 C.2    11  VAL11       0.2260
     35  O         22.4200   16.4310  125.6910 O.2    11  VAL11      -0.2867
     36  CB        20.8310   16.2700  128.6060 C.3    11  VAL11       0.0252
     37  CG1       22.1870   15.6000  128.7360 C.3    11  VAL11       0.0019
     38  CG2       20.5510   17.1490  129.8030 C.3    11  VAL11       0.0019
     39  N         24.3290   17.2450  123.5210 N.3    15  ASN15      -0.1240
     40  CA        25.4690   16.3620  123.3200 C.3    15  ASN15       0.1653
     41  C         25.6370   15.9790  121.8630 C.2    15  ASN15       0.2266
     42  O         26.7660   15.7580  121.4150 O.2    15  ASN15      -0.2867
     43  CB        25.3290   15.1230  124.1950 C.3    15  ASN15       0.1155
     44  CG        25.9750   15.3150  125.5180 C.2    15  ASN15       0.2627
     45  OD1       27.1720   15.0810  125.6680 O.2    15  ASN15      -0.2716
     46  ND2       25.2080   15.7910  126.4840 N.am   15  ASN15      -0.0877
     47  N         27.6220   22.2630  133.6920 N.3    84  ALA84      -0.1231
     48  CA        26.5770   21.3140  134.0650 C.3    84  ALA84       0.1694
     49  C         27.1380   19.9110  134.2340 C.2    84  ALA84       0.2592
     50  O         26.7660   19.1890  135.1700 O.2    84  ALA84      -0.2718
     51  CB        25.4740   21.3170  133.0100 C.3    84  ALA84       0.0304
     52  N         28.0290   19.5030  133.3300 N.am   85  PHE85      -0.1976
     53  CA        28.6170   18.1750  133.4270 C.3    85  PHE85       0.1639
     54  C         29.4470   18.0360  134.6930 C.2    85  PHE85       0.2290
     55  O         29.3970   16.9990  135.3670 O.2    85  PHE85      -0.2864
     56  CB        29.4820   17.8850  132.2000 C.3    85  PHE85       0.0560
     57  CG        30.0370   16.4910  132.1780 C.ar   85  PHE85      -0.0200
     58  CD1       29.3070   15.4490  131.6260 C.ar   85  PHE85      -0.0042
     59  CD2       31.2820   16.2150  132.7200 C.ar   85  PHE85      -0.0042
     60  CE1       29.8150   14.1620  131.6110 C.ar   85  PHE85      -0.0003
     61  CE2       31.7900   14.9300  132.7080 C.ar   85  PHE85      -0.0003
     62  CZ        31.0570   13.9050  132.1540 C.ar   85  PHE85      -0.0000
     63  N         26.9240   18.0300  137.8480 N.3    88  TRP88      -0.1241
     64  CA        26.2070   16.7650  137.9760 C.3    88  TRP88       0.1605
     65  C         27.1570   15.6200  138.2920 C.2    88  TRP88       0.2264
     66  O         26.7790   14.6770  138.9950 O.2    88  TRP88      -0.2867
     67  CB        25.3920   16.4700  136.7160 C.3    88  TRP88       0.0550
     68  CG        24.0900   17.2250  136.6750 C.ar   88  TRP88       0.0003
     69  CD1       23.7960   18.3050  135.9040 C.ar   88  TRP88       0.0946
     70  CD2       22.9130   16.9640  137.4600 C.ar   88  TRP88       0.0152
     71  NE1       22.5110   18.7250  136.1420 N.ar   88  TRP88      -0.2442
     72  CE2       21.9510   17.9230  137.1000 C.ar   88  TRP88       0.0810
     73  CE3       22.5840   16.0120  138.4280 C.ar   88  TRP88       0.0012
     74  CZ2       20.6780   17.9550  137.6640 C.ar   88  TRP88       0.0191
     75  CZ3       21.3210   16.0520  138.9890 C.ar   88  TRP88       0.0001
     76  CH2       20.3890   17.0150  138.6080 C.ar   88  TRP88       0.0015
     77  N         27.4570   15.5900  141.8910 N.3    91  VAL91      -0.1231
     78  CA        26.2500   14.9820  142.4420 C.3    91  VAL91       0.1692
     79  C         26.3760   13.4670  142.4330 C.2    91  VAL91       0.2592
     80  O         26.0850   12.7970  143.4280 O.2    91  VAL91      -0.2718
     81  CB        25.0120   15.4430  141.6510 C.3    91  VAL91       0.0266
     82  CG1       23.7790   14.6420  142.0670 C.3    91  VAL91       0.0020
     83  CG2       24.7800   16.9350  141.8340 C.3    91  VAL91       0.0020
     84  N         26.8170   12.9060  141.3060 N.am   92  ASP92      -0.1974
     85  CA        26.9800   11.4590  141.2160 C.3    92  ASP92       0.1709
     86  C         27.9150   10.9380  142.2940 C.2    92  ASP92       0.2293
     87  O         27.6340    9.9160  142.9300 O.2    92  ASP92      -0.2864
     88  CB        27.5040   11.0670  139.8340 C.3    92  ASP92       0.1436
     89  CG        26.4260   11.0790  138.7720 C.2    92  ASP92       0.3671
     90  OD1       25.2340   11.1110  139.1350 O.co2  92  ASP92      -0.2456
     91  OD2       26.7720   11.0460  137.5700 O.co2  92  ASP92      -0.2456
     92  N         26.1790   10.9320  145.6510 N.3    95  ILE95      -0.1245
     93  CA        25.2390    9.8220  145.7970 C.3    95  ILE95       0.1561
     94  C         25.9900    8.5180  146.0260 C.2    95  ILE95       0.2260
     95  O         25.5970    7.6920  146.8580 O.2    95  ILE95      -0.2867
     96  CB        24.3220    9.7450  144.5640 C.3    95  ILE95       0.0252
     97  CG1       23.4070   10.9660  144.5320 C.3    95  ILE95       0.0019
     98  CG2       23.5270    8.4480  144.5600 C.3    95  ILE95       0.0019
     99  CD1       22.6400   11.1360  143.2360 C.3    95  ILE95       0.0001
@<TRIPOS>BOND
     1    42    41    2
     2    41    40    1
     3    40    39    1
     4    40    43    1
     5    43    44    1
     6    44    45    2
     7    44    46   am
     8    35    34    2
     9    34    33    1
    10    32    33    1
    11    26    25    2
    12    33    36    1
    13    25    24    1
    14    36    37    1
    15    36    38    1
    16    24    27    1
    17    24    23    1
    18    27    28    1
    19    21    20    2
    20    23    20   am
    21    20    19    1
    22    18    19    1
    23    30    29    2
    24    19    22    1
    25    28    29    1
    26    29    31   am
    27    13    12    2
    28    60    58   ar
    29    60    62   ar
    30    58    57   ar
    31    12    11    1
    32     4     3    2
    33    62    61   ar
    34    57    56    1
    35    57    59   ar
    36    56    53    1
    37     1     2    1
    38     2     3    1
    39     2     5    1
    40     3    10   am
    41    61    59   ar
    42    51    48    1
    43    10    11    1
    44    11    14    1
    45     6     5    1
    46     6     7    1
    47    52    53    1
    48    52    49   am
    49    53    54    1
    50    47    48    1
    51    15    14    1
    52    15    16    1
    53    48    49    1
    54    49    50    2
    55     9     7   ar
    56     7     8   ar
    57    54    55    2
    58    16    17    1
    59    69    71   ar
    60    69    68   ar
    61    71    72   ar
    62    68    67    1
    63    68    70   ar
    64    67    64    1
    65    72    70   ar
    66    72    74   ar
    67    70    73   ar
    68    91    89   ar
    69    74    76   ar
    70    63    64    1
    71    64    65    1
    72    65    66    2
    73    73    75   ar
    74    76    75   ar
    75    89    90   ar
    76    89    88    1
    77    88    85    1
    78    85    84    1
    79    85    86    1
    80    84    79   am
    81    81    83    1
    82    81    82    1
    83    81    78    1
    84    77    78    1
    85    86    87    2
    86    79    78    1
    87    79    80    2
    88    99    97    1
    89    97    96    1
    90    98    96    1
    91    96    93    1
    92    92    93    1
    93    93    94    1
    94    94    95    2
