@<TRIPOS>MOLECULE
tmp/6fv4A00.pdb
 169 163 0 0 0
SMALL
GASTEIGER

@<TRIPOS>ATOM
      1  N        115.3280 -117.5720  111.0030 N.3    61  HIS61      -0.1241
      2  CA       114.4490 -118.0570  109.9400 C.3    61  HIS61       0.1621
      3  C        113.8660 -119.4340  110.1780 C.2    61  HIS61       0.2264
      4  O        112.9620 -119.8350  109.4330 O.2    61  HIS61      -0.2867
      5  CB       115.1850 -118.0920  108.5990 C.3    61  HIS61       0.0745
      6  CG       115.6900 -116.7650  108.1770 C.ar   61  HIS61       0.0817
      7  ND1      114.8900 -115.8170  107.5810 N.ar   61  HIS61      -0.2268
      8  CD2      116.9150 -116.2100  108.2980 C.ar   61  HIS61       0.1154
      9  CE1      115.6060 -114.7350  107.3380 C.ar   61  HIS61       0.1986
     10  NE2      116.8400 -114.9530  107.7590 N.ar   61  HIS61      -0.2212
     11  N        112.0540 -114.0820  104.5730 N.3    96  VAL96      -0.1245
     12  CA       112.8360 -113.6660  103.4120 C.3    96  VAL96       0.1561
     13  C        111.9380 -113.0560  102.3420 C.2    96  VAL96       0.2260
     14  O        110.7010 -113.1180  102.4260 O.2    96  VAL96      -0.2867
     15  CB       113.6370 -114.8430  102.8290 C.3    96  VAL96       0.0252
     16  CG1      114.4080 -115.5460  103.9290 C.3    96  VAL96       0.0019
     17  CG2      112.7090 -115.8160  102.1090 C.3    96  VAL96       0.0019
     18  N        112.4240 -109.3150  106.3380 N.3   125  GLU125     -0.1245
     19  CA       113.7220 -109.0820  105.6940 C.3   125  GLU125      0.1567
     20  C        113.5030 -109.2500  104.1910 C.2   125  GLU125      0.2260
     21  O        113.6030 -110.3480  103.6410 O.2   125  GLU125     -0.2867
     22  CB       114.7930 -110.0340  106.2140 C.3   125  GLU125      0.0388
     23  CG       116.2010 -109.6600  105.7210 C.3   125  GLU125      0.1160
     24  CD       117.3020 -110.5660  106.2520 C.2   125  GLU125      0.3649
     25  OE1      117.1470 -111.8160  106.2680 O.co2 125  GLU125     -0.2457
     26  OE2      118.3540 -110.0120  106.6510 O.co2 125  GLU125     -0.2457
     27  N        122.8990 -106.9870   96.8340 N.3   133  ARG133     -0.1231
     28  CA       123.1540 -107.6640   98.1040 C.3   133  ARG133      0.1694
     29  C        121.9550 -108.5690   98.3850 C.2   133  ARG133      0.2592
     30  O        121.1350 -108.2970   99.2710 O.2   133  ARG133     -0.2718
     31  CB       123.3710 -106.6620   99.2480 C.3   133  ARG133      0.0321
     32  CG       124.4740 -105.6740   99.0180 C.3   133  ARG133      0.0489
     33  CD       125.8260 -106.3120   99.3210 C.3   133  ARG133      0.2205
     34  NE       126.9140 -105.4040   98.9800 N.pl3 133  ARG133     -0.0865
     35  CZ       128.2060 -105.7160   99.0410 C.cat 133  ARG133      0.5346
     36  NH1      128.5890 -106.9210   99.4380 N.pl3 133  ARG133      0.1354
     37  NH2      129.1160 -104.8180   98.6930 N.pl3 133  ARG133      0.1354
     38  N        121.8260 -109.6350   97.5990 N.am  134  CYS134     -0.1956
     39  CA       120.6900 -110.5220   97.8040 C.3   134  CYS134      0.1843
     40  C        121.0630 -111.6910   98.7040 C.2   134  CYS134      0.2626
     41  O        120.3960 -111.9330   99.7170 O.2   134  CYS134     -0.2714
     42  CB       120.1310 -111.0180   96.4580 C.3   134  CYS134      0.0997
     43  SG       121.3460 -111.3710   95.1570 S.3   134  CYS134     -0.0797
     44  N        122.1360 -112.3960   98.3660 N.am  135  GLY135     -0.1940
     45  CA       122.5040 -113.5700   99.1340 C.3   135  GLY135      0.2014
     46  C        121.4640 -114.6540   98.9520 C.2   135  GLY135      0.2639
     47  O        121.0890 -115.0020   97.8250 O.2   135  GLY135     -0.2714
     48  N        120.9600 -115.1760  100.0700 N.am  136  ALA136     -0.1963
     49  CA       119.9920 -116.2660  100.0580 C.3   136  ALA136      0.1728
     50  C        118.5680 -115.8100   99.7290 C.2   136  ALA136      0.2616
     51  O        117.6080 -116.5060  100.0960 O.2   136  ALA136     -0.2715
     52  CB       120.0130 -116.9920  101.4030 C.3   136  ALA136      0.0334
     53  N        118.4140 -114.6690   99.0600 N.am  137  HIS137     -0.1973
     54  CA       117.1230 -114.1570   98.6210 C.3   137  HIS137      0.1656
     55  C        116.9800 -114.3100   97.1090 C.2   137  HIS137      0.2291
     56  O        117.9680 -114.4050   96.3730 O.2   137  HIS137     -0.2864
     57  CB       116.9550 -112.6800   99.0020 C.3   137  HIS137      0.0771
     58  CG       116.8370 -112.4360  100.4740 C.ar  137  HIS137      0.0820
     59  ND1      115.6770 -111.9760  101.0600 N.ar  137  HIS137     -0.2267
     60  CD2      117.7350 -112.5820  101.4790 C.ar  137  HIS137      0.1154
     61  CE1      115.8640 -111.8500  102.3620 C.ar  137  HIS137      0.1986
     62  NE2      117.1030 -112.2140  102.6430 N.ar  137  HIS137     -0.2212
     63  N        120.9230 -105.2850  103.7230 N.3   191  HIS191     -0.1241
     64  CA       120.8550 -105.7760  102.3440 C.3   191  HIS191      0.1621
     65  C        120.8710 -104.6150  101.3540 C.2   191  HIS191      0.2264
     66  O        119.9570 -104.4300  100.5440 O.2   191  HIS191     -0.2867
     67  CB       119.6100 -106.6370  102.1390 C.3   191  HIS191      0.0745
     68  CG       119.7520 -108.0030  102.7070 C.ar  191  HIS191      0.0817
     69  ND1      120.1540 -109.0830  101.9530 N.ar  191  HIS191     -0.2268
     70  CD2      119.5800 -108.4590  103.9670 C.ar  191  HIS191      0.1154
     71  CE1      120.2050 -110.1540  102.7230 C.ar  191  HIS191      0.1986
     72  NE2      119.8640 -109.7990  103.9480 N.ar  191  HIS191     -0.2212
     73  N        122.1410 -107.4780  110.5060 N.3   212  HIS212     -0.1241
     74  CA       123.4520 -108.1260  110.6070 C.3   212  HIS212      0.1621
     75  C        124.5840 -107.3320  109.9580 C.2   212  HIS212      0.2264
     76  O        125.0000 -107.6030  108.8240 O.2   212  HIS212     -0.2867
     77  CB       123.4170 -109.5600  110.0600 C.3   212  HIS212      0.0745
     78  CG       122.7530 -109.7060  108.7310 C.ar  212  HIS212      0.0817
     79  ND1      123.1140 -108.9640  107.6260 N.ar  212  HIS212     -0.2268
     80  CD2      121.7600 -110.5320  108.3220 C.ar  212  HIS212      0.1154
     81  CE1      122.3750 -109.3260  106.5940 C.ar  212  HIS212      0.1986
     82  NE2      121.5470 -110.2730  106.9920 N.ar  212  HIS212     -0.2212
     83  N        127.7190 -105.7680  108.4870 N.3   214  PHE214     -0.1227
     84  CA       128.8240 -106.2400  107.6520 C.3   214  PHE214      0.1736
     85  C        128.4260 -107.3870  106.7400 C.2   214  PHE214      0.2595
     86  O        129.2330 -107.7840  105.8990 O.2   214  PHE214     -0.2718
     87  CB       130.0650 -106.6780  108.4580 C.3   214  PHE214      0.0547
     88  CG       130.8660 -105.5430  108.9760 C.ar  214  PHE214     -0.0202
     89  CD1      131.9040 -105.0020  108.2200 C.ar  214  PHE214     -0.0042
     90  CD2      130.6130 -105.0260  110.2340 C.ar  214  PHE214     -0.0042
     91  CE1      132.6620 -103.9440  108.7070 C.ar  214  PHE214     -0.0003
     92  CE2      131.3610 -103.9670  110.7290 C.ar  214  PHE214     -0.0003
     93  CZ       132.3900 -103.4240  109.9670 C.ar  214  PHE214     -0.0000
     94  N        127.2330 -107.9550  106.8800 N.am  215  ASN215     -0.1960
     95  CA       126.7620 -109.0080  105.9930 C.3   215  ASN215      0.1819
     96  C        125.7250 -108.4080  105.0590 C.2   215  ASN215      0.2621
     97  O        124.8530 -107.6540  105.5080 O.2   215  ASN215     -0.2715
     98  CB       126.1770 -110.1880  106.7840 C.3   215  ASN215      0.1195
     99  CG       127.2340 -110.9080  107.6190 C.2   215  ASN215      0.2630
    100  OD1      127.0390 -111.1660  108.8080 O.2   215  ASN215     -0.2716
    101  ND2      128.3740 -111.2170  106.9930 N.am  215  ASN215     -0.0877
    102  N        125.8390 -108.7220  103.7600 N.am  216  ALA216     -0.1963
    103  CA       124.9610 -108.1540  102.7340 C.3   216  ALA216      0.1728
    104  C        124.9330 -106.6350  102.8390 C.2   216  ALA216      0.2616
    105  O        123.8870 -105.9910  102.7350 O.2   216  ALA216     -0.2715
    106  CB       123.5490 -108.7350  102.8210 C.3   216  ALA216      0.0334
    107  N        126.1050 -106.0630  103.0390 N.am  217  MET217     -0.1977
    108  CA       126.2770 -104.6530  103.3260 C.3   217  MET217      0.1605
    109  C        127.5220 -104.1860  102.6000 C.2   217  MET217      0.2287
    110  O        128.5340 -104.8860  102.6000 O.2   217  MET217     -0.2864
    111  CB       126.4360 -104.4200  104.8420 C.3   217  MET217      0.0413
    112  CG       126.6530 -102.9870  105.2420 C.3   217  MET217      0.0598
    113  SD       126.3280 -102.8680  107.0080 S.3   217  MET217     -0.1393
    114  CE       124.5190 -103.0950  107.0660 C.3   217  MET217      0.0692
    115  N        125.9550 -111.3030  113.6390 N.3   242  ILE242     -0.1245
    116  CA       125.9900 -112.7600  113.7360 C.3   242  ILE242      0.1561
    117  C        127.4050 -113.1560  114.1440 C.2   242  ILE242      0.2260
    118  O        128.3410 -113.0520  113.3440 O.2   242  ILE242     -0.2867
    119  CB       125.6040 -113.4350  112.4130 C.3   242  ILE242      0.0252
    120  CG1      124.2300 -112.9690  111.9140 C.3   242  ILE242      0.0019
    121  CG2      125.6090 -114.9630  112.5800 C.3   242  ILE242      0.0019
    122  CD1      124.0590 -113.1610  110.3880 C.3   242  ILE242      0.0001
    123  N        130.1630 -115.6880  109.8560 N.3   247  HIS247     -0.1241
    124  CA       129.6880 -114.5300  109.1080 C.3   247  HIS247      0.1621
    125  C        130.6550 -113.3530  109.1630 C.2   247  HIS247      0.2264
    126  O        130.8750 -112.6830  108.1470 O.2   247  HIS247     -0.2867
    127  CB       128.3050 -114.1250  109.6110 C.3   247  HIS247      0.0745
    128  CG       127.2260 -114.9910  109.0650 C.ar  247  HIS247      0.0817
    129  ND1      127.0390 -116.2870  109.4900 N.ar  247  HIS247     -0.2268
    130  CD2      126.3350 -114.7850  108.0680 C.ar  247  HIS247      0.1154
    131  CE1      126.0420 -116.8280  108.8110 C.ar  247  HIS247      0.1986
    132  NE2      125.5930 -115.9360  107.9470 N.ar  247  HIS247     -0.2212
    133  N        120.3140 -115.4450  112.9470 N.3   270  ALA270     -0.1245
    134  CA       119.8920 -115.6590  111.5510 C.3   270  ALA270      0.1562
    135  C        119.7990 -117.1510  111.2300 C.2   270  ALA270      0.2260
    136  O        120.0760 -117.5860  110.1020 O.2   270  ALA270     -0.2867
    137  CB       120.8140 -114.9410  110.5600 C.3   270  ALA270      0.0290
    138  N        115.3740 -122.4850  102.0840 N.3   284  LEU284     -0.1245
    139  CA       115.1380 -121.1870  102.7160 C.3   284  LEU284      0.1561
    140  C        114.2810 -120.3680  101.7600 C.2   284  LEU284      0.2260
    141  O        114.7620 -119.9480  100.7000 O.2   284  LEU284     -0.2867
    142  CB       116.4460 -120.4560  103.0330 C.3   284  LEU284      0.0270
    143  CG       116.2520 -119.0210  103.5510 C.3   284  LEU284      0.0019
    144  CD1      115.5880 -118.9990  104.9270 C.3   284  LEU284      0.0001
    145  CD2      117.5550 -118.2280  103.5620 C.3   284  LEU284      0.0001
    146  N        128.4420 -118.3080   98.6110 N.3   303  THR303     -0.1203
    147  CA       127.7430 -117.3250   99.4300 C.3   303  THR303      0.1994
    148  C        127.1260 -118.0070  100.6460 C.2   303  THR303      0.2618
    149  O        126.2500 -118.8690  100.5040 O.2   303  THR303     -0.2717
    150  CB       126.6650 -116.6180   98.6040 C.3   303  THR303      0.1784
    151  OG1      127.2720 -115.6170   97.7760 O.3   303  THR303     -0.2211
    152  CG2      125.6370 -115.9510   99.5110 C.3   303  THR303      0.0376
    153  N        127.5890 -117.6330  101.8410 N.am  304  ILE304     -0.1965
    154  CA       126.9500 -118.1280  103.0530 C.3   304  ILE304      0.1727
    155  C        125.5280 -117.5850  103.1050 C.2   304  ILE304      0.2616
    156  O        125.2780 -116.4110  102.8010 O.2   304  ILE304     -0.2715
    157  CB       127.7730 -117.7410  104.2950 C.3   304  ILE304      0.0290
    158  CG1      129.0770 -118.5570  104.3350 C.3   304  ILE304      0.0022
    159  CG2      126.9600 -117.9630  105.5720 C.3   304  ILE304      0.0023
    160  CD1      130.3400 -117.7220  104.4740 C.3   304  ILE304      0.0001
    161  N        124.5780 -118.4560  103.4530 N.am  305  ALA305     -0.1963
    162  CA       123.1540 -118.1710  103.3090 C.3   305  ALA305      0.1728
    163  C        122.4330 -118.0170  104.6410 C.2   305  ALA305      0.2616
    164  O        121.2010 -117.9010  104.6570 O.2   305  ALA305     -0.2715
    165  CB       122.4840 -119.2750  102.4890 C.3   305  ALA305      0.0334
    166  N        123.1660 -118.0090  105.7510 N.am  306  GLY306     -0.1955
    167  CA       122.5910 -117.9670  107.0800 C.3   306  GLY306      0.1869
    168  C        123.3740 -118.8810  107.9990 C.2   306  GLY306      0.2309
    169  O        124.2110 -119.6550  107.5320 O.2   306  GLY306     -0.2863
@<TRIPOS>BOND
     1    43    42    1
     2    56    55    2
     3    42    39    1
     4    27    28    1
     5    55    54    1
     6    38    39    1
     7    38    29   am
     8   151   150    1
     9    39    40    1
    10    47    46    2
    11    28    29    1
    12    28    31    1
    13    44    40   am
    14    44    45    1
    15    29    30    2
    16   150   147    1
    17   150   152    1
    18   146   147    1
    19    54    57    1
    20    54    53    1
    21    37    35    1
    22    40    41    2
    23    46    45    1
    24    46    48   am
    25    34    35    2
    26    34    33    1
    27    57    58    1
    28    32    31    1
    29    32    33    1
    30    35    36    1
    31    53    50   am
    32   147   148    1
    33    50    49    1
    34    50    51    2
    35    49    48    1
    36    49    52    1
    37    58    59   ar
    38    58    60   ar
    39   149   148    2
    40    66    65    2
    41   148   153   am
    42   141   140    2
    43    59    61   ar
    44    65    64    1
    45    60    62   ar
    46   140   139    1
    47   153   154    1
    48    69    68   ar
    49    69    71   ar
    50   138   139    1
    51    17    15    1
    52    67    64    1
    53    67    68    1
    54    13    14    2
    55    13    12    1
    56    64    63    1
    57    61    62   ar
    58   165   162    1
    59   110   109    2
    60   109   108    1
    61    68    70   ar
    62   139   142    1
    63    71    72   ar
    64   103   106    1
    65   103   104    1
    66   103   102    1
    67   105   104    2
    68   156   155    2
    69    15    12    1
    70    15    16    1
    71   104   107   am
    72   142   143    1
    73   107   108    1
    74   154   155    1
    75   154   157    1
    76   155   161   am
    77   162   161    1
    78   162   163    1
    79   108   111    1
    80    12    11    1
    81   143   145    1
    82   143   144    1
    83    21    20    2
    84   102    96   am
    85    72    70   ar
    86    20    19    1
    87   157   158    1
    88   157   159    1
    89   158   160    1
    90   163   164    2
    91   163   166   am
    92   111   112    1
    93    96    97    2
    94    96    95    1
    95   112   113    1
    96    19    22    1
    97    19    18    1
    98    23    22    1
    99    23    24    1
   100   166   167    1
   101    86    85    2
   102    95    98    1
   103    95    94    1
   104    24    25   ar
   105    24    26   ar
   106    81    82   ar
   107    81    79   ar
   108    85    94   am
   109    85    84    1
   110    98    99    1
   111    82    80   ar
   112   101    99   am
   113   113   114    1
   114   167   168    1
   115     9     7   ar
   116     9    10   ar
   117   169   168    2
   118     7     6   ar
   119    99   100    2
   120    79    78   ar
   121    84    87    1
   122    84    83    1
   123    10     8   ar
   124   132   130   ar
   125   132   131   ar
   126   130   128   ar
   127   126   125    2
   128     6     8   ar
   129     6     5    1
   130    89    91   ar
   131    89    88   ar
   132    80    78   ar
   133    87    88    1
   134     5     2    1
   135    91    93   ar
   136    78    77    1
   137   131   129   ar
   138    76    75    2
   139    88    90   ar
   140   128   129   ar
   141   128   127    1
   142   124   125    1
   143   124   127    1
   144   124   123    1
   145     4     3    2
   146     2     3    1
   147     2     1    1
   148    75    74    1
   149    93    92   ar
   150    77    74    1
   151   136   135    2
   152    90    92   ar
   153   122   120    1
   154    73    74    1
   155   137   134    1
   156   135   134    1
   157   134   133    1
   158   120   119    1
   159   119   121    1
   160   119   116    1
   161   118   117    2
   162   115   116    1
   163   116   117    1
