@<TRIPOS>MOLECULE
tmp/6fveB00.pdb
 104 102 0 0 0
SMALL
GASTEIGER

@<TRIPOS>ATOM
      1  N         -3.3430  -13.2390   -4.4640 N.3     1  PRO1       -0.2102
      2  CA        -4.0220  -12.4270   -5.4680 C.3     1  PRO1        0.1504
      3  C         -4.4310  -11.0840   -4.8850 C.2     1  PRO1        0.2575
      4  O         -4.5800  -10.9380   -3.6610 O.2     1  PRO1       -0.2718
      5  CB        -5.2360  -13.2440   -5.7900 C.3     1  PRO1        0.0282
      6  CG        -5.5360  -13.9410   -4.5020 C.3     1  PRO1        0.0208
      7  CD        -4.1980  -14.3490   -3.9870 C.3     1  PRO1        0.0893
      8  N         -4.5910  -10.1020   -5.7480 N.am    2  MET2       -0.1980
      9  CA        -5.0710   -8.7710   -5.3720 C.3     2  MET2        0.1605
     10  C         -6.2690   -8.4900   -6.2540 C.2     2  MET2        0.2287
     11  O         -6.1570   -8.4990   -7.4850 O.2     2  MET2       -0.2864
     12  CB        -4.0040   -7.7050   -5.6250 C.3     2  MET2        0.0413
     13  CG        -2.6070   -8.0970   -5.1630 C.3     2  MET2        0.0598
     14  SD        -1.3380   -6.9530   -5.7000 S.3     2  MET2       -0.1393
     15  CE         0.1170   -8.0400   -5.6640 C.3     2  MET2        0.0692
     16  N         -5.5720  -21.7500   -1.9980 N.3    32  LYS32      -0.1245
     17  CA        -4.5350  -21.2960   -1.1120 C.3    32  LYS32       0.1561
     18  C         -5.1680  -20.5340    0.0440 C.2    32  LYS32       0.2260
     19  O         -6.3430  -20.1330   -0.0180 O.2    32  LYS32      -0.2867
     20  CB        -3.5020  -20.4850   -1.8920 C.3    32  LYS32       0.0271
     21  CG        -2.9240  -21.3460   -3.0180 C.3    32  LYS32       0.0035
     22  CD        -1.5110  -21.0060   -3.4120 C.3    32  LYS32       0.0206
     23  CE        -0.8430  -22.1640   -4.1480 C.3    32  LYS32       0.1093
     24  NZ         0.6460  -22.0810   -4.0680 N.3    32  LYS32      -0.1314
     25  N         -2.4880  -14.2470    2.0660 N.3    36  TYR36      -0.1241
     26  CA        -1.8660  -13.3150    1.1260 C.3    36  TYR36       0.1605
     27  C         -2.8510  -12.6650    0.1550 C.2    36  TYR36       0.2264
     28  O         -2.4490  -11.9540   -0.8030 O.2    36  TYR36      -0.2867
     29  CB        -0.6720  -13.9860    0.4080 C.3    36  TYR36       0.0534
     30  CG         0.3860  -14.4740    1.3660 C.ar   36  TYR36      -0.0201
     31  CD1        1.0750  -13.6060    2.1630 C.ar   36  TYR36      -0.0009
     32  CD2        0.6220  -15.8310    1.5120 C.ar   36  TYR36      -0.0009
     33  CE1        1.9770  -14.0590    3.1040 C.ar   36  TYR36       0.0417
     34  CE2        1.5160  -16.3130    2.4290 C.ar   36  TYR36       0.0417
     35  CZ         2.2060  -15.4180    3.2250 C.ar   36  TYR36       0.1957
     36  OH         3.1050  -15.8810    4.1550 O.3    36  TYR36      -0.2866
     37  N         -4.8560   -9.1230   -9.9830 N.3    62  HIS62      -0.1226
     38  CA        -3.4490   -9.2930  -10.1300 C.3    62  HIS62       0.1752
     39  C         -3.0750  -10.5890   -9.4490 C.2    62  HIS62       0.2597
     40  O         -3.5220  -10.8510   -8.3300 O.2    62  HIS62      -0.2718
     41  CB        -2.7030   -8.1570   -9.4420 C.3    62  HIS62       0.0759
     42  CG        -2.8940   -6.8200  -10.0640 C.ar   62  HIS62       0.0818
     43  ND1       -3.9670   -6.0040   -9.7890 N.ar   62  HIS62      -0.2268
     44  CD2       -2.1220   -6.1460  -10.9510 C.ar   62  HIS62       0.1154
     45  CE1       -3.8440   -4.8770  -10.4750 C.ar   62  HIS62       0.1986
     46  NE2       -2.7270   -4.9390  -11.1770 N.ar   62  HIS62      -0.2212
     47  N         -2.2620  -11.4040  -10.0990 N.am   63  SER63      -0.1938
     48  CA        -1.8330  -12.6640   -9.5240 C.3    63  SER63       0.2055
     49  C         -0.4560  -12.9680  -10.0440 C.2    63  SER63       0.2642
     50  O         -0.1690  -12.6830  -11.2080 O.2    63  SER63      -0.2714
     51  CB        -2.8190  -13.7440   -9.9150 C.3    63  SER63       0.2130
     52  OG        -2.5480  -14.9350   -9.2200 O.3    63  SER63      -0.2179
     53  N          0.3940  -13.5260   -9.2020 N.am   64  ILE64      -0.1977
     54  CA         1.7230  -13.9780   -9.6260 C.3    64  ILE64       0.1596
     55  C          1.5670  -15.4170  -10.1070 C.2    64  ILE64       0.2287
     56  O          1.6230  -16.3560   -9.3240 O.2    64  ILE64      -0.2864
     57  CB         2.7810  -13.8700   -8.5160 C.3    64  ILE64       0.0276
     58  CG1        2.8410  -12.4470   -7.9780 C.3    64  ILE64       0.0022
     59  CG2        4.1270  -14.2800   -9.0790 C.3    64  ILE64       0.0022
     60  CD1        3.6220  -12.2790   -6.6970 C.3    64  ILE64       0.0001
     61  N         -1.0050  -18.4030  -11.5030 N.3    66  LYS66      -0.1245
     62  CA        -2.3300  -18.8600  -11.1040 C.3    66  LYS66       0.1561
     63  C         -3.4580  -18.2600  -11.9430 C.2    66  LYS66       0.2260
     64  O         -4.6200  -18.3400  -11.5670 O.2    66  LYS66      -0.2867
     65  CB        -2.5590  -18.7020   -9.5920 C.3    66  LYS66       0.0271
     66  CG        -2.0370  -19.8960   -8.8020 C.3    66  LYS66       0.0035
     67  CD        -2.5710  -19.8740   -7.3910 C.3    66  LYS66       0.0206
     68  CE        -3.4700  -21.0450   -7.0950 C.3    66  LYS66       0.1093
     69  NZ        -4.5120  -21.2620   -8.1330 N.3    66  LYS66      -0.1314
     70  N          6.9880  -12.1610  -10.4350 N.3   103  ALA103     -0.1245
     71  CA         7.3500  -12.0410   -9.0250 C.3   103  ALA103      0.1562
     72  C          8.3570  -10.9200   -8.7400 C.2   103  ALA103      0.2260
     73  O          8.2770  -10.2910   -7.6810 O.2   103  ALA103     -0.2867
     74  CB         7.9070  -13.3630   -8.5220 C.3   103  ALA103      0.0290
     75  N          6.7580   -6.5450   -1.4250 N.3   108  TRP108     -0.1241
     76  CA         6.0470   -6.9480   -0.2310 C.3   108  TRP108      0.1605
     77  C          7.0700   -7.0320    0.8900 C.2   108  TRP108      0.2264
     78  O          8.1620   -7.5250    0.6660 O.2   108  TRP108     -0.2867
     79  CB         5.4170   -8.3350   -0.4290 C.3   108  TRP108      0.0550
     80  CG         4.8460   -8.9340    0.8570 C.ar  108  TRP108      0.0003
     81  CD1        3.6510   -8.6010    1.4570 C.ar  108  TRP108      0.0946
     82  CD2        5.4040  -10.0070    1.6330 C.ar  108  TRP108      0.0152
     83  NE1        3.4590   -9.3970    2.5810 N.ar  108  TRP108     -0.2442
     84  CE2        4.5270  -10.2360    2.7130 C.ar  108  TRP108      0.0810
     85  CE3        6.5690  -10.7650    1.5440 C.ar  108  TRP108      0.0012
     86  CZ2        4.7820  -11.1950    3.6690 C.ar  108  TRP108      0.0191
     87  CZ3        6.8240  -11.7000    2.5080 C.ar  108  TRP108      0.0001
     88  CH2        5.9430  -11.9130    3.5420 C.ar  108  TRP108      0.0015
     89  N          9.1500  -10.5300   -4.5240 N.3   113  PHE113     -0.1227
     90  CA         8.9640  -11.9650   -4.4810 C.3   113  PHE113      0.1736
     91  C          9.9770  -12.7630   -5.3060 C.2   113  PHE113      0.2595
     92  O         10.1520  -13.9560   -5.0660 O.2   113  PHE113     -0.2718
     93  CB         7.5430  -12.3520   -4.8020 C.3   113  PHE113      0.0547
     94  CG         6.5750  -12.0490   -3.6920 C.ar  113  PHE113     -0.0202
     95  CD1        6.7440  -12.6350   -2.4350 C.ar  113  PHE113     -0.0042
     96  CD2        5.5090  -11.1600   -3.8550 C.ar  113  PHE113     -0.0042
     97  CE1        5.8610  -12.3470   -1.4180 C.ar  113  PHE113     -0.0003
     98  CE2        4.6290  -10.8680   -2.8330 C.ar  113  PHE113     -0.0003
     99  CZ         4.8160  -11.4670   -1.5930 C.ar  113  PHE113     -0.0000
    100  N         10.6570  -12.1000   -6.2260 N.am  114  ALA114     -0.1980
    101  CA        11.8280  -12.6770   -6.8760 C.3   114  ALA114      0.1597
    102  C         12.8510  -11.6270   -7.2010 C.2   114  ALA114      0.2287
    103  O         12.4940  -10.4200   -7.1760 O.2   114  ALA114     -0.2864
    104  CB        11.4420  -13.4550   -8.1280 C.3   114  ALA114      0.0319
@<TRIPOS>BOND
     1    63    64    2
     2    63    62    1
     3    61    62    1
     4    50    49    2
     5    46    44   ar
     6    46    45   ar
     7    62    65    1
     8    44    42   ar
     9    45    43   ar
    10    70    71    1
    11    38    37    1
    12    38    39    1
    13    38    41    1
    14    55    54    1
    15    55    56    2
    16    47    48    1
    17    47    39   am
    18    42    43   ar
    19    42    41    1
    20    49    48    1
    21    49    53   am
    22    51    48    1
    23    51    52    1
    24    54    53    1
    25    54    57    1
    26    65    66    1
    27    39    40    2
    28    59    57    1
    29    71    72    1
    30    71    74    1
    31    66    67    1
    32    72    73    2
    33    57    58    1
    34    69    68    1
    35   104   101    1
    36    58    60    1
    37    11    10    2
    38    67    68    1
    39   102   103    2
    40   102   101    1
    41   101   100    1
    42    10     9    1
    43   100    91   am
    44     5     2    1
    45     5     6    1
    46     8     9    1
    47     8     3   am
    48    14    15    1
    49    14    13    1
    50    12     9    1
    51    12    13    1
    52     2     3    1
    53     2     1    1
    54    91    92    2
    55    91    90    1
    56     3     4    2
    57    93    90    1
    58    93    94    1
    59    89    90    1
    60     6     7    1
    61     1     7    1
    62    23    24    1
    63    23    22    1
    64    96    94   ar
    65    96    98   ar
    66    94    95   ar
    67    22    21    1
    68    21    20    1
    69    98    99   ar
    70    95    97   ar
    71    16    17    1
    72    20    17    1
    73    99    97   ar
    74    75    76    1
    75    17    18    1
    76    28    27    2
    77    79    76    1
    78    79    80    1
    79    76    77    1
    80    19    18    2
    81    27    26    1
    82    29    26    1
    83    29    30    1
    84    78    77    2
    85    80    81   ar
    86    80    82   ar
    87    26    25    1
    88    30    32   ar
    89    30    31   ar
    90    81    83   ar
    91    32    34   ar
    92    85    82   ar
    93    85    87   ar
    94    82    84   ar
    95    31    33   ar
    96    34    35   ar
    97    87    88   ar
    98    83    84   ar
    99    84    86   ar
   100    33    35   ar
   101    35    36    1
   102    88    86   ar
