@<TRIPOS>MOLECULE
tmp/6fvhB00.pdb
 91 87 0 0 0
SMALL
GASTEIGER

@<TRIPOS>ATOM
      1  N         24.2060   -6.8690   19.1780 N.3     1  PRO1       -0.2102
      2  CA        23.3740   -6.0550   18.2140 C.3     1  PRO1        0.1504
      3  C         22.5640   -4.9110   18.7790 C.2     1  PRO1        0.2575
      4  O         22.1300   -4.9220   19.9210 O.2     1  PRO1       -0.2718
      5  CB        22.3500   -7.0650   17.6560 C.3     1  PRO1        0.0282
      6  CG        22.3140   -8.1580   18.6550 C.3     1  PRO1        0.0208
      7  CD        23.7150   -8.2630   19.2010 C.3     1  PRO1        0.0893
      8  N         22.3110   -3.9600   17.8970 N.am    2  MET2       -0.1980
      9  CA        21.7350   -2.6800   18.2580 C.3     2  MET2        0.1605
     10  C         20.6040   -2.3880   17.3140 C.2     2  MET2        0.2287
     11  O         20.8150   -2.4530   16.1000 O.2     2  MET2       -0.2864
     12  CB        22.8020   -1.6270   18.1110 C.3     2  MET2        0.0413
     13  CG        22.4570   -0.1750   18.3750 C.3     2  MET2        0.0598
     14  SD        23.8540    0.8450   17.8340 S.3     2  MET2       -0.1393
     15  CE        25.1820   -0.3290   17.9770 C.3     2  MET2        0.0692
     16  N         21.7020  -14.0900   20.9930 N.3    32  LYS32      -0.1245
     17  CA        22.6760  -13.3570   21.7820 C.3    32  LYS32       0.1561
     18  C         22.1340  -13.1260   23.1930 C.2    32  LYS32       0.2260
     19  O         20.9170  -12.9550   23.3700 O.2    32  LYS32      -0.2867
     20  CB        22.9530  -12.0000   21.1430 C.3    32  LYS32       0.0271
     21  CG        23.4580  -12.0470   19.7120 C.3    32  LYS32       0.0035
     22  CD        24.8820  -12.5640   19.5940 C.3    32  LYS32       0.0206
     23  CE        25.5340  -12.0500   18.3170 C.3    32  LYS32       0.1093
     24  NZ        26.9820  -12.3720   18.2680 N.3    32  LYS32      -0.1314
     25  N         23.9330   -7.8400   25.9080 N.3    36  TYR36      -0.1241
     26  CA        24.6150   -7.1330   24.8250 C.3    36  TYR36       0.1605
     27  C         23.6850   -6.3160   23.9360 C.2    36  TYR36       0.2264
     28  O         24.1690   -5.5750   23.1130 O.2    36  TYR36      -0.2867
     29  CB        25.3560   -8.1380   23.9540 C.3    36  TYR36       0.0534
     30  CG        26.6080   -8.7210   24.5410 C.ar   36  TYR36      -0.0201
     31  CD1       27.8490   -8.1130   24.3480 C.ar   36  TYR36      -0.0009
     32  CD2       26.5600   -9.8980   25.2780 C.ar   36  TYR36      -0.0009
     33  CE1       29.0180   -8.6780   24.8530 C.ar   36  TYR36       0.0417
     34  CE2       27.7220  -10.4660   25.7920 C.ar   36  TYR36       0.0417
     35  CZ        28.9410   -9.8580   25.5860 C.ar   36  TYR36       0.1957
     36  OH        30.0940  -10.4350   26.0960 O.3    36  TYR36      -0.2866
     37  N         21.2770   -3.5140   22.5700 N.3    38  ALA38      -0.1245
     38  CA        20.9010   -2.1250   22.7810 C.3    38  ALA38       0.1562
     39  C         19.7350   -1.7770   21.8890 C.2    38  ALA38       0.2260
     40  O         19.7020   -2.1670   20.7230 O.2    38  ALA38      -0.2867
     41  CB        22.0670   -1.2090   22.4820 C.3    38  ALA38       0.0290
     42  N         22.2370   -3.2340   13.6430 N.3    62  HIS62      -0.1226
     43  CA        23.6590   -3.4790   13.4950 C.3    62  HIS62       0.1752
     44  C         23.9700   -4.7760   14.2480 C.2    62  HIS62       0.2597
     45  O         23.5090   -4.9660   15.3730 O.2    62  HIS62      -0.2718
     46  CB        24.4680   -2.3620   14.1310 C.3    62  HIS62       0.0759
     47  CG        24.3630   -1.0290   13.4620 C.ar   62  HIS62       0.0818
     48  ND1       23.3000   -0.1620   13.6190 N.ar   62  HIS62      -0.2268
     49  CD2       25.2590   -0.3920   12.6820 C.ar   62  HIS62       0.1154
     50  CE1       23.5450    0.9490   12.9410 C.ar   62  HIS62       0.1986
     51  NE2       24.7190    0.8220   12.3510 N.ar   62  HIS62      -0.2212
     52  N         24.7770   -5.6300   13.6350 N.am   63  SER63      -0.1938
     53  CA        25.2000   -6.8860   14.2410 C.3    63  SER63       0.2055
     54  C         26.5900   -7.2100   13.7540 C.2    63  SER63       0.2642
     55  O         26.9190   -6.8930   12.6170 O.2    63  SER63      -0.2714
     56  CB        24.2420   -8.0050   13.8210 C.3    63  SER63       0.2130
     57  OG        24.5770   -9.2300   14.4530 O.3    63  SER63      -0.2179
     58  N         27.3900   -7.8620   14.6040 N.am   64  ILE64      -0.1977
     59  CA        28.6760   -8.4160   14.1580 C.3    64  ILE64       0.1596
     60  C         28.3710   -9.7970   13.5600 C.2    64  ILE64       0.2287
     61  O         28.1890  -10.7590   14.2950 O.2    64  ILE64      -0.2864
     62  CB        29.6930   -8.4730   15.3140 C.3    64  ILE64       0.0276
     63  CG1       30.0150   -7.0480   15.7930 C.3    64  ILE64       0.0022
     64  CG2       30.9720   -9.1570   14.8730 C.3    64  ILE64       0.0022
     65  CD1       30.7860   -6.9510   17.0910 C.3    64  ILE64       0.0001
     66  N         28.5490   -5.4280   10.8750 N.3   101  MET101     -0.1245
     67  CA        29.7560   -4.7390   11.3650 C.3   101  MET101      0.1570
     68  C         30.9280   -5.7140   11.5700 C.2   101  MET101      0.2261
     69  O         30.7500   -6.8300   12.0480 O.2   101  MET101     -0.2867
     70  CB        29.4570   -4.0480   12.6970 C.3   101  MET101      0.0387
     71  CG        28.3560   -3.0010   12.6300 C.3   101  MET101      0.0595
     72  SD        28.7180   -1.6280   11.5300 S.3   101  MET101     -0.1393
     73  CE        30.0980   -0.8670   12.3820 C.3   101  MET101      0.0692
     74  N         33.6060   -2.0020   16.0470 N.3   106  VAL106     -0.1245
     75  CA        32.6380   -1.7740   17.1180 C.3   106  VAL106      0.1561
     76  C         33.4100   -1.5370   18.4100 C.2   106  VAL106      0.2260
     77  O         34.0310   -2.4570   18.9480 O.2   106  VAL106     -0.2867
     78  CB        31.6140   -2.9090   17.2650 C.3   106  VAL106      0.0252
     79  CG1       30.6130   -2.5170   18.3250 C.3   106  VAL106      0.0019
     80  CG2       30.9240   -3.1550   15.9370 C.3   106  VAL106      0.0019
     81  N         35.5640   -4.9130   19.9200 N.3   113  PHE113     -0.1241
     82  CA        35.2670   -6.3350   19.9900 C.3   113  PHE113      0.1605
     83  C         36.2640   -7.2130   19.2640 C.2   113  PHE113      0.2264
     84  O         36.1210   -8.4260   19.3090 O.2   113  PHE113     -0.2867
     85  CB        33.8410   -6.5950   19.5050 C.3   113  PHE113      0.0534
     86  CG        32.8110   -6.2710   20.5240 C.ar  113  PHE113     -0.0203
     87  CD1       32.6850   -7.0640   21.6500 C.ar  113  PHE113     -0.0042
     88  CD2       31.9970   -5.1690   20.4040 C.ar  113  PHE113     -0.0042
     89  CE1       31.7540   -6.7870   22.6210 C.ar  113  PHE113     -0.0003
     90  CE2       31.0510   -4.8880   21.3640 C.ar  113  PHE113     -0.0003
     91  CZ        30.9110   -5.7000   22.4690 C.ar  113  PHE113     -0.0000
@<TRIPOS>BOND
     1    66    67    1
     2    67    68    1
     3    67    70    1
     4    72    73    1
     5    72    71    1
     6    68    69    2
     7    51    49   ar
     8    51    50   ar
     9    55    54    2
    10    71    70    1
    11    49    47   ar
    12    50    48   ar
    13    47    48   ar
    14    47    46    1
    15    43    42    1
    16    43    46    1
    17    43    44    1
    18    60    59    1
    19    60    61    2
    20    52    53    1
    21    52    44   am
    22    54    53    1
    23    54    58   am
    24    56    53    1
    25    56    57    1
    26    59    58    1
    27    59    62    1
    28    44    45    2
    29    64    62    1
    30    62    63    1
    31    63    65    1
    32    80    78    1
    33    74    75    1
    34    11    10    2
    35    75    78    1
    36    75    76    1
    37    78    79    1
    38    10     9    1
    39     5     2    1
    40     5     6    1
    41    14    15    1
    42    14    13    1
    43     8     9    1
    44     8     3   am
    45    12     9    1
    46    12    13    1
    47     2     3    1
    48     2     1    1
    49    24    23    1
    50    23    22    1
    51    76    77    2
    52     6     7    1
    53     3     4    2
    54     1     7    1
    55    83    84    2
    56    83    82    1
    57    85    82    1
    58    85    86    1
    59    22    21    1
    60    21    20    1
    61    81    82    1
    62    88    86   ar
    63    88    90   ar
    64    86    87   ar
    65    40    39    2
    66    16    17    1
    67    20    17    1
    68    90    91   ar
    69    87    89   ar
    70    17    18    1
    71    39    38    1
    72    91    89   ar
    73    41    38    1
    74    37    38    1
    75    28    27    2
    76    18    19    2
    77    27    26    1
    78    29    30    1
    79    29    26    1
    80    31    30   ar
    81    31    33   ar
    82    30    32   ar
    83    26    25    1
    84    33    35   ar
    85    32    34   ar
    86    35    34   ar
    87    35    36    1
