@<TRIPOS>MOLECULE
tmp/6fvjD01.pdb
 119 114 0 0 0
SMALL
GASTEIGER

@<TRIPOS>ATOM
      1  N        141.7850  238.8090 -186.5720 N.3    76  SER76      -0.1202
      2  CA       142.4660  237.5460 -186.8620 C.3    76  SER76       0.2020
      3  C        143.9810  237.6710 -186.6200 C.2    76  SER76       0.2618
      4  O        144.3440  238.0300 -185.5070 O.2    76  SER76      -0.2717
      5  CB       142.1080  237.0480 -188.2580 C.3    76  SER76       0.2103
      6  OG       142.5090  235.7710 -188.4330 O.3    76  SER76      -0.2182
      7  N        144.8530  237.4550 -187.6340 N.am   77  MET77      -0.1979
      8  CA       146.3160  237.5990 -187.5020 C.3    77  MET77       0.1605
      9  C        146.6980  239.0010 -187.0070 C.2    77  MET77       0.2287
     10  O        147.6520  239.1380 -186.2370 O.2    77  MET77      -0.2864
     11  CB       147.0210  237.2700 -188.8290 C.3    77  MET77       0.0413
     12  CG       148.5400  237.2070 -188.7370 C.3    77  MET77       0.0598
     13  SD       149.2970  237.5670 -190.3420 S.3    77  MET77      -0.1393
     14  CE       150.6320  236.4710 -190.3360 C.3    77  MET77       0.0692
     15  N        147.1520  239.4800 -183.1660 N.3    80  MET80      -0.1245
     16  CA       148.4560  239.0570 -182.6430 C.3    80  MET80       0.1570
     17  C        149.4790  240.1540 -182.8790 C.2    80  MET80       0.2261
     18  O        150.2820  240.4390 -181.9940 O.2    80  MET80      -0.2867
     19  CB       148.9420  237.7850 -183.3520 C.3    80  MET80       0.0387
     20  CG       148.1260  236.5670 -183.0540 C.3    80  MET80       0.0595
     21  SD       148.4680  235.2390 -184.2280 S.3    80  MET80      -0.1393
     22  CE       147.7130  233.8750 -183.3490 C.3    80  MET80       0.0692
     23  N        138.2010  238.1020 -183.5190 N.3   103  ALA103     -0.1231
     24  CA       138.3370  236.7420 -184.0730 C.3   103  ALA103      0.1694
     25  C        139.7810  236.2090 -184.0840 C.2   103  ALA103      0.2592
     26  O        140.2800  235.7600 -185.1160 O.2   103  ALA103     -0.2718
     27  CB       137.7200  236.6820 -185.4640 C.3   103  ALA103      0.0304
     28  N        140.4490  236.2830 -182.9270 N.am  104  CYS104     -0.1956
     29  CA       141.8370  235.8860 -182.7540 C.3   104  CYS104      0.1843
     30  C        142.0350  235.2280 -181.4040 C.2   104  CYS104      0.2626
     31  O        141.7550  235.8350 -180.3690 O.2   104  CYS104     -0.2714
     32  CB       142.7430  237.1040 -182.9120 C.3   104  CYS104      0.0997
     33  SG       144.4970  236.7800 -182.6200 S.3   104  CYS104     -0.0797
     34  N        142.5640  233.9930 -181.4140 N.am  105  SER105     -0.1950
     35  CA       142.8610  233.2210 -180.2100 C.3   105  SER105      0.1924
     36  C        143.9290  233.9170 -179.3810 C.2   105  SER105      0.2314
     37  O        144.7840  234.6160 -179.9340 O.2   105  SER105     -0.2863
     38  CB       143.3420  231.8250 -180.5830 C.3   105  SER105      0.2116
     39  OG       142.3170  231.0960 -181.2360 O.3   105  SER105     -0.2180
     40  N        147.0810  229.8250 -177.2800 N.3   109  HIS109     -0.1226
     41  CA       145.8300  229.0490 -177.3780 C.3   109  HIS109      0.1752
     42  C        145.3860  228.7770 -178.8300 C.2   109  HIS109      0.2596
     43  O        144.2000  228.8530 -179.1590 O.2   109  HIS109     -0.2718
     44  CB       144.7160  229.7120 -176.5460 C.3   109  HIS109      0.0759
     45  CG       145.0170  229.6860 -175.0830 C.ar  109  HIS109      0.0818
     46  ND1      145.7210  230.7080 -174.4770 N.ar  109  HIS109     -0.2268
     47  CD2      144.7790  228.7170 -174.1720 C.ar  109  HIS109      0.1154
     48  CE1      145.8740  230.3380 -173.2170 C.ar  109  HIS109      0.1986
     49  NE2      145.3070  229.1560 -172.9820 N.ar  109  HIS109     -0.2212
     50  N        146.3600  228.3940 -179.6730 N.am  110  ILE110     -0.1966
     51  CA       146.1940  228.0770 -181.0970 C.3   110  ILE110      0.1727
     52  C        146.0360  226.5560 -181.2970 C.2   110  ILE110      0.2616
     53  O        146.6140  225.7690 -180.5380 O.2   110  ILE110     -0.2715
     54  CB       147.3540  228.6720 -181.9510 C.3   110  ILE110      0.0290
     55  CG1      148.2540  229.6180 -181.1220 C.3   110  ILE110      0.0022
     56  CG2      146.8140  229.3820 -183.1860 C.3   110  ILE110      0.0023
     57  CD1      149.6080  229.8100 -181.6370 C.3   110  ILE110      0.0001
     58  N        145.2590  226.1530 -182.3210 N.am  111  ARG111     -0.1963
     59  CA       144.9540  224.7470 -182.5980 C.3   111  ARG111      0.1729
     60  C        145.9450  224.0320 -183.5230 C.2   111  ARG111      0.2616
     61  O        146.4070  222.9430 -183.1770 O.2   111  ARG111     -0.2715
     62  CB       143.5250  224.6030 -183.1380 C.3   111  ARG111      0.0348
     63  CG       142.5030  225.1750 -182.2040 C.3   111  ARG111      0.0492
     64  CD       141.1410  224.8450 -182.7190 C.3   111  ARG111      0.2205
     65  NE       140.1150  225.2750 -181.7980 N.pl3 111  ARG111     -0.0865
     66  CZ       139.0820  225.9860 -182.1990 C.cat 111  ARG111      0.5346
     67  NH1      138.9620  226.3140 -183.4710 N.pl3 111  ARG111      0.1354
     68  NH2      138.1870  226.3920 -181.3070 N.pl3 111  ARG111      0.1354
     69  N        146.2550  224.6230 -184.6890 N.am  112  TYR112     -0.1974
     70  CA       147.1310  224.0360 -185.7010 C.3   112  TYR112      0.1639
     71  C        148.6350  224.2270 -185.4400 C.2   112  TYR112      0.2290
     72  O        149.3560  224.5670 -186.3740 O.2   112  TYR112     -0.2864
     73  CB       146.7420  224.5850 -187.0850 C.3   112  TYR112      0.0560
     74  CG       145.2960  224.3390 -187.4310 C.ar  112  TYR112     -0.0198
     75  CD1      144.8200  223.0450 -187.6430 C.ar  112  TYR112     -0.0009
     76  CD2      144.3930  225.3980 -187.5180 C.ar  112  TYR112     -0.0009
     77  CE1      143.4810  222.8100 -187.9290 C.ar  112  TYR112      0.0417
     78  CE2      143.0520  225.1770 -187.8050 C.ar  112  TYR112      0.0417
     79  CZ       142.6010  223.8820 -188.0070 C.ar  112  TYR112      0.1957
     80  OH       141.2710  223.6590 -188.2770 O.3   112  TYR112     -0.2866
     81  N        151.6880  231.8880 -187.5440 N.3   148  ILE148     -0.1245
     82  CA       150.4900  232.0460 -186.7170 C.3   148  ILE148      0.1561
     83  C        150.4230  230.9360 -185.6490 C.2   148  ILE148      0.2260
     84  O        150.2840  231.2290 -184.4650 O.2   148  ILE148     -0.2867
     85  CB       149.2020  232.1730 -187.6040 C.3   148  ILE148      0.0252
     86  CG1      149.1770  233.5180 -188.3740 C.3   148  ILE148      0.0019
     87  CG2      147.9110  232.0060 -186.7850 C.3   148  ILE148      0.0019
     88  CD1      148.4000  233.5120 -189.7080 C.3   148  ILE148      0.0001
     89  N        137.3910  228.9310 -186.7050 N.3   173  ILE173     -0.1231
     90  CA       138.8110  229.3060 -186.6480 C.3   173  ILE173      0.1692
     91  C        139.1590  229.8550 -185.2440 C.2   173  ILE173      0.2591
     92  O        140.1890  229.4910 -184.6860 O.2   173  ILE173     -0.2718
     93  CB       139.1640  230.3030 -187.8050 C.3   173  ILE173      0.0266
     94  CG1      138.7720  229.7580 -189.2140 C.3   173  ILE173      0.0019
     95  CG2      140.6150  230.7740 -187.7790 C.3   173  ILE173      0.0020
     96  CD1      139.4580  228.4390 -189.7750 C.3   173  ILE173      0.0001
     97  N        138.2770  230.6900 -184.6710 N.am  174  ALA174     -0.1980
     98  CA       138.4360  231.2800 -183.3400 C.3   174  ALA174      0.1597
     99  C        137.1100  231.2080 -182.5830 C.2   174  ALA174      0.2287
    100  O        136.0770  231.6010 -183.1230 O.2   174  ALA174     -0.2864
    101  CB       138.8990  232.7280 -183.4550 C.3   174  ALA174      0.0319
    102  N        138.9300  229.9800 -176.8560 N.3   178  ASP178     -0.1239
    103  CA       140.3210  230.3050 -177.1830 C.3   178  ASP178      0.1674
    104  C        140.5840  231.8190 -177.1360 C.2   178  ASP178      0.2266
    105  O        141.7430  232.2250 -177.0610 O.2   178  ASP178     -0.2867
    106  CB       140.7910  229.6610 -178.5060 C.3   178  ASP178      0.1410
    107  CG       139.8560  229.8000 -179.6860 C.2   178  ASP178      0.3668
    108  OD1      139.6690  230.9390 -180.1630 O.co2 178  ASP178     -0.2456
    109  OD2      139.3480  228.7640 -180.1670 O.co2 178  ASP178     -0.2456
    110  N        133.8150  234.0130 -189.3260 N.3   199  HIS199     -0.1241
    111  CA       135.1340  234.6150 -189.1660 C.3   199  HIS199      0.1621
    112  C        135.1610  236.0720 -189.6240 C.2   199  HIS199      0.2264
    113  O        135.9650  236.8550 -189.1130 O.2   199  HIS199     -0.2867
    114  CB       136.2130  233.7810 -189.8770 C.3   199  HIS199      0.0745
    115  CG       137.6120  234.1840 -189.5260 C.ar  199  HIS199      0.0817
    116  ND1      138.0940  234.0670 -188.2360 N.ar  199  HIS199     -0.2268
    117  CD2      138.5830  234.7010 -190.3090 C.ar  199  HIS199      0.1154
    118  CE1      139.3330  234.5190 -188.2730 C.ar  199  HIS199      0.1986
    119  NE2      139.6710  234.9070 -189.5010 N.ar  199  HIS199     -0.2212
@<TRIPOS>BOND
     1    13    14    1
     2    13    12    1
     3   117   115   ar
     4   117   119   ar
     5   114   115    1
     6   114   111    1
     7    96    94    1
     8    88    86    1
     9   112   111    1
    10   112   113    2
    11   115   116   ar
    12   119   118   ar
    13   110   111    1
    14    94    93    1
    15    11    12    1
    16    11     8    1
    17     6     5    1
    18    86    85    1
    19    80    79    1
    20   118   116   ar
    21     5     2    1
    22    79    77   ar
    23    79    78   ar
    24    77    75   ar
    25    93    95    1
    26    93    90    1
    27    78    76   ar
    28    75    74   ar
    29     7     8    1
    30     7     3   am
    31    85    87    1
    32    85    82    1
    33    81    82    1
    34    76    74   ar
    35     8     9    1
    36    74    73    1
    37    73    70    1
    38     9    10    2
    39     2     3    1
    40     2     1    1
    41    82    83    1
    42    89    90    1
    43    90    91    1
    44     3     4    2
    45    72    71    2
    46    70    71    1
    47    70    69    1
    48    83    84    2
    49    27    24    1
    50    91    92    2
    51    91    97   am
    52    26    25    2
    53    69    60   am
    54    97    98    1
    55    21    22    1
    56    21    20    1
    57    25    24    1
    58    25    28   am
    59    24    23    1
    60    60    61    2
    61    60    59    1
    62    67    66    1
    63   101    98    1
    64    19    20    1
    65    19    16    1
    66    98    99    1
    67    56    54    1
    68    15    16    1
    69    62    59    1
    70    62    63    1
    71   100    99    2
    72    28    29    1
    73    32    29    1
    74    32    33    1
    75    17    16    1
    76    17    18    2
    77    29    30    1
    78    64    63    1
    79    64    65    1
    80    59    58    1
    81    58    52   am
    82    66    65    2
    83    66    68    1
    84    54    55    1
    85    54    51    1
    86    57    55    1
    87    34    30   am
    88    34    35    1
    89    30    31    2
    90    52    51    1
    91    52    53    2
    92    39    38    1
    93    51    50    1
    94    38    35    1
    95    35    36    1
    96   109   107   ar
    97   108   107   ar
    98    37    36    2
    99   107   106    1
   100    50    42   am
   101    43    42    2
   102    42    41    1
   103   106   103    1
   104    41    40    1
   105    41    44    1
   106   103   104    1
   107   103   102    1
   108   104   105    2
   109    44    45    1
   110    45    46   ar
   111    45    47   ar
   112    46    48   ar
   113    47    49   ar
   114    48    49   ar
