@<TRIPOS>MOLECULE
tmp/6fvjD00.pdb
 93 89 0 0 0
SMALL
GASTEIGER

@<TRIPOS>ATOM
      1  N        143.5210  241.2270 -191.3010 N.3    13  HIS13      -0.1226
      2  CA       143.7040  239.7760 -191.2210 C.3    13  HIS13       0.1752
      3  C        144.7960  239.3210 -192.2200 C.2    13  HIS13       0.2595
      4  O        145.3040  240.1480 -192.9910 O.2    13  HIS13      -0.2718
      5  CB       142.3570  239.0710 -191.5010 C.3    13  HIS13       0.0759
      6  CG       141.7230  239.4600 -192.8020 C.ar   13  HIS13       0.0818
      7  ND1      141.0140  240.6400 -192.9310 N.ar   13  HIS13      -0.2268
      8  CD2      141.7320  238.8260 -193.9970 C.ar   13  HIS13       0.1154
      9  CE1      140.6140  240.6870 -194.1930 C.ar   13  HIS13       0.1986
     10  NE2      141.0190  239.6130 -194.8700 N.ar   13  HIS13      -0.2212
     11  N        145.1590  238.0160 -192.2000 N.am   14  ALA14      -0.1980
     12  CA       146.1260  237.4020 -193.1280 C.3    14  ALA14       0.1597
     13  C        145.4930  237.4490 -194.5120 C.2    14  ALA14       0.2287
     14  O        144.3850  236.9360 -194.7190 O.2    14  ALA14      -0.2864
     15  CB       146.3890  235.9550 -192.7500 C.3    14  ALA14       0.0319
     16  N        147.8380  235.7100 -197.6820 N.3    43  LEU43      -0.1245
     17  CA       148.7590  235.8490 -196.5340 C.3    43  LEU43       0.1561
     18  C        149.9240  236.8240 -196.8220 C.2    43  LEU43       0.2260
     19  O        150.4440  236.8020 -197.9400 O.2    43  LEU43      -0.2867
     20  CB       149.3350  234.4920 -196.1190 C.3    43  LEU43       0.0270
     21  CG       148.4070  233.4610 -195.5390 C.3    43  LEU43       0.0019
     22  CD1      148.6430  232.0650 -195.6960 C.3    43  LEU43       0.0001
     23  CD2      147.5140  233.9190 -194.4490 C.3    43  LEU43       0.0001
     24  N        141.7850  238.8090 -186.5720 N.3    76  SER76      -0.1202
     25  CA       142.4660  237.5460 -186.8620 C.3    76  SER76       0.2020
     26  C        143.9810  237.6710 -186.6200 C.2    76  SER76       0.2618
     27  O        144.3440  238.0300 -185.5070 O.2    76  SER76      -0.2717
     28  CB       142.1080  237.0480 -188.2580 C.3    76  SER76       0.2103
     29  OG       142.5090  235.7710 -188.4330 O.3    76  SER76      -0.2182
     30  N        144.8530  237.4550 -187.6340 N.am   77  MET77      -0.1979
     31  CA       146.3160  237.5990 -187.5020 C.3    77  MET77       0.1605
     32  C        146.6980  239.0010 -187.0070 C.2    77  MET77       0.2287
     33  O        147.6520  239.1380 -186.2370 O.2    77  MET77      -0.2864
     34  CB       147.0210  237.2700 -188.8290 C.3    77  MET77       0.0413
     35  CG       148.5400  237.2070 -188.7370 C.3    77  MET77       0.0598
     36  SD       149.2970  237.5670 -190.3420 S.3    77  MET77      -0.1393
     37  CE       150.6320  236.4710 -190.3360 C.3    77  MET77       0.0692
     38  N        146.2550  224.6230 -184.6890 N.3   112  TYR112     -0.1241
     39  CA       147.1310  224.0360 -185.7010 C.3   112  TYR112      0.1605
     40  C        148.6350  224.2270 -185.4400 C.2   112  TYR112      0.2264
     41  O        149.3560  224.5670 -186.3740 O.2   112  TYR112     -0.2867
     42  CB       146.7420  224.5850 -187.0850 C.3   112  TYR112      0.0534
     43  CG       145.2960  224.3390 -187.4310 C.ar  112  TYR112     -0.0201
     44  CD1      144.8200  223.0450 -187.6430 C.ar  112  TYR112     -0.0009
     45  CD2      144.3930  225.3980 -187.5180 C.ar  112  TYR112     -0.0009
     46  CE1      143.4810  222.8100 -187.9290 C.ar  112  TYR112      0.0417
     47  CE2      143.0520  225.1770 -187.8050 C.ar  112  TYR112      0.0417
     48  CZ       142.6010  223.8820 -188.0070 C.ar  112  TYR112      0.1957
     49  OH       141.2710  223.6590 -188.2770 O.3   112  TYR112     -0.2866
     50  N        150.9890  230.4370 -192.0300 N.3   145  VAL145     -0.1245
     51  CA       150.3030  229.4340 -191.1950 C.3   145  VAL145      0.1561
     52  C        151.2580  228.9570 -190.0770 C.2   145  VAL145      0.2260
     53  O        150.8410  228.8380 -188.9240 O.2   145  VAL145     -0.2867
     54  CB       149.7210  228.2650 -192.0490 C.3   145  VAL145      0.0252
     55  CG1      149.1240  227.1610 -191.1770 C.3   145  VAL145      0.0019
     56  CG2      148.6790  228.7740 -193.0430 C.3   145  VAL145      0.0019
     57  N        151.6880  231.8880 -187.5440 N.3   148  ILE148     -0.1245
     58  CA       150.4900  232.0460 -186.7170 C.3   148  ILE148      0.1561
     59  C        150.4230  230.9360 -185.6490 C.2   148  ILE148      0.2260
     60  O        150.2840  231.2290 -184.4650 O.2   148  ILE148     -0.2867
     61  CB       149.2020  232.1730 -187.6040 C.3   148  ILE148      0.0252
     62  CG1      149.1770  233.5180 -188.3740 C.3   148  ILE148      0.0019
     63  CG2      147.9110  232.0060 -186.7850 C.3   148  ILE148      0.0019
     64  CD1      148.4000  233.5120 -189.7080 C.3   148  ILE148      0.0001
     65  N        137.3910  228.9310 -186.7050 N.3   173  ILE173     -0.1245
     66  CA       138.8110  229.3060 -186.6480 C.3   173  ILE173      0.1561
     67  C        139.1590  229.8550 -185.2440 C.2   173  ILE173      0.2260
     68  O        140.1890  229.4910 -184.6860 O.2   173  ILE173     -0.2867
     69  CB       139.1640  230.3030 -187.8050 C.3   173  ILE173      0.0252
     70  CG1      138.7720  229.7580 -189.2140 C.3   173  ILE173      0.0019
     71  CG2      140.6150  230.7740 -187.7790 C.3   173  ILE173      0.0019
     72  CD1      139.4580  228.4390 -189.7750 C.3   173  ILE173      0.0001
     73  N        133.8150  234.0130 -189.3260 N.3   199  HIS199     -0.1226
     74  CA       135.1340  234.6150 -189.1660 C.3   199  HIS199      0.1752
     75  C        135.1610  236.0720 -189.6240 C.2   199  HIS199      0.2596
     76  O        135.9650  236.8550 -189.1130 O.2   199  HIS199     -0.2718
     77  CB       136.2130  233.7810 -189.8770 C.3   199  HIS199      0.0759
     78  CG       137.6120  234.1840 -189.5260 C.ar  199  HIS199      0.0818
     79  ND1      138.0940  234.0670 -188.2360 N.ar  199  HIS199     -0.2268
     80  CD2      138.5830  234.7010 -190.3090 C.ar  199  HIS199      0.1154
     81  CE1      139.3330  234.5190 -188.2730 C.ar  199  HIS199      0.1986
     82  NE2      139.6710  234.9070 -189.5010 N.ar  199  HIS199     -0.2212
     83  N        134.2740  236.4370 -190.5660 N.am  200  PHE200     -0.1976
     84  CA       134.1500  237.8060 -191.0620 C.3   200  PHE200      0.1639
     85  C        132.7710  238.3890 -190.7060 C.2   200  PHE200      0.2290
     86  O        132.1110  239.0230 -191.5310 O.2   200  PHE200     -0.2864
     87  CB       134.5060  237.8890 -192.5590 C.3   200  PHE200      0.0560
     88  CG       135.9450  237.5110 -192.8320 C.ar  200  PHE200     -0.0200
     89  CD1      136.9820  238.4020 -192.5610 C.ar  200  PHE200     -0.0042
     90  CD2      136.2680  236.2520 -193.3250 C.ar  200  PHE200     -0.0042
     91  CE1      138.3150  238.0450 -192.7900 C.ar  200  PHE200     -0.0003
     92  CE2      137.6080  235.8960 -193.5540 C.ar  200  PHE200     -0.0003
     93  CZ       138.6220  236.7960 -193.2830 C.ar  200  PHE200     -0.0000
@<TRIPOS>BOND
     1    19    18    2
     2    16    17    1
     3    18    17    1
     4    17    20    1
     5    20    21    1
     6    22    21    1
     7    21    23    1
     8    10     9   ar
     9    10     8   ar
    10    14    13    2
    11    13    12    1
    12     9     7   ar
    13     8     6   ar
    14    92    90   ar
    15    92    93   ar
    16    90    88   ar
    17    93    91   ar
    18    12    15    1
    19    12    11    1
    20    56    54    1
    21     4     3    2
    22     7     6   ar
    23    88    89   ar
    24    88    87    1
    25     6     5    1
    26    91    89   ar
    27    87    84    1
    28     3    11   am
    29     3     2    1
    30    54    51    1
    31    54    55    1
    32    50    51    1
    33    86    85    2
    34     5     2    1
    35     1     2    1
    36    51    52    1
    37    84    85    1
    38    84    83    1
    39    83    75   am
    40    36    37    1
    41    36    35    1
    42    80    78   ar
    43    80    82   ar
    44    52    53    2
    45    77    78    1
    46    77    74    1
    47    72    70    1
    48    64    62    1
    49    75    74    1
    50    75    76    2
    51    78    79   ar
    52    82    81   ar
    53    73    74    1
    54    70    69    1
    55    34    35    1
    56    34    31    1
    57    29    28    1
    58    62    61    1
    59    49    48    1
    60    81    79   ar
    61    28    25    1
    62    48    46   ar
    63    48    47   ar
    64    46    44   ar
    65    47    45   ar
    66    69    71    1
    67    69    66    1
    68    44    43   ar
    69    30    31    1
    70    30    26   am
    71    61    63    1
    72    61    58    1
    73    57    58    1
    74    45    43   ar
    75    31    32    1
    76    43    42    1
    77    42    39    1
    78    32    33    2
    79    25    26    1
    80    25    24    1
    81    58    59    1
    82    65    66    1
    83    66    67    1
    84    26    27    2
    85    41    40    2
    86    39    40    1
    87    39    38    1
    88    59    60    2
    89    67    68    2
