@<TRIPOS>MOLECULE
tmp/6fvjA00.pdb
 85 81 0 0 0
SMALL
GASTEIGER

@<TRIPOS>ATOM
      1  N        120.4050  256.5240 -202.2290 N.3    10  HIS10      -0.1226
      2  CA       120.5320  256.4000 -203.6880 C.3    10  HIS10       0.1752
      3  C        119.7680  255.1570 -204.1810 C.2    10  HIS10       0.2595
      4  O        119.2560  254.3980 -203.3540 O.2    10  HIS10      -0.2718
      5  CB       122.0260  256.3230 -204.0730 C.3    10  HIS10       0.0759
      6  CG       122.7870  255.2360 -203.3720 C.ar   10  HIS10       0.0818
      7  ND1      123.2450  255.3940 -202.0740 N.ar   10  HIS10      -0.2268
      8  CD2      123.1400  254.0040 -203.8100 C.ar   10  HIS10       0.1154
      9  CE1      123.8580  254.2620 -201.7680 C.ar   10  HIS10       0.1986
     10  NE2      123.8210  253.3960 -202.7800 N.ar   10  HIS10      -0.2212
     11  N        119.6810  254.9490 -205.5170 N.am   11  ALA11      -0.1980
     12  CA       119.0530  253.7760 -206.1330 C.3    11  ALA11       0.1597
     13  C        119.9350  252.5880 -205.7660 C.2    11  ALA11       0.2287
     14  O        121.1360  252.5830 -206.0570 O.2    11  ALA11      -0.2864
     15  CB       119.0090  253.9170 -207.6360 C.3    11  ALA11       0.0319
     16  N        121.7910  261.1770 -204.9750 N.3    70  SER70      -0.1202
     17  CA       121.4640  260.6320 -206.3020 C.3    70  SER70       0.2020
     18  C        119.9430  260.5780 -206.5060 C.2    70  SER70       0.2618
     19  O        119.3240  261.6380 -206.4140 O.2    70  SER70      -0.2717
     20  CB       122.1470  259.2840 -206.5080 C.3    70  SER70       0.2103
     21  OG       122.3520  258.7210 -207.7630 O.3    70  SER70      -0.2182
     22  N        119.3280  259.3870 -206.7160 N.am   71  MET71      -0.1979
     23  CA       117.8730  259.2340 -206.8850 C.3    71  MET71       0.1605
     24  C        117.1010  259.7980 -205.6740 C.2    71  MET71       0.2287
     25  O        116.0230  260.3770 -205.8530 O.2    71  MET71      -0.2864
     26  CB       117.5030  257.7710 -207.1730 C.3    71  MET71       0.0413
     27  CG       116.0790  257.6250 -207.5810 C.3    71  MET71       0.0598
     28  SD       115.6930  256.4650 -208.8930 S.3    71  MET71      -0.1393
     29  CE       115.2090  255.1230 -207.8620 C.3    71  MET71       0.0692
     30  N        119.6850  249.3120 -210.8970 N.3   128  THR128     -0.1218
     31  CA       120.2210  250.4670 -211.6350 C.3   128  THR128      0.1862
     32  C        119.3900  250.7600 -212.8890 C.2   128  THR128      0.2287
     33  O        119.1550  251.9260 -213.2010 O.2   128  THR128     -0.2866
     34  CB       121.7190  250.3310 -211.9390 C.3   128  THR128      0.1770
     35  OG1      122.0430  248.9670 -212.2080 O.3   128  THR128     -0.2211
     36  CG2      122.5980  250.8760 -210.8220 C.3   128  THR128      0.0375
     37  N        116.0270  252.3890 -211.9970 N.3   131  ALA131     -0.1231
     38  CA       116.2660  253.7860 -211.6530 C.3   131  ALA131      0.1694
     39  C        116.3120  254.6560 -212.9020 C.2   131  ALA131      0.2591
     40  O        115.7600  255.7490 -212.8730 O.2   131  ALA131     -0.2718
     41  CB       117.5640  253.9240 -210.8820 C.3   131  ALA131      0.0304
     42  N        116.9590  254.1740 -213.9950 N.am  132  VAL132     -0.1980
     43  CA       117.0620  254.8640 -215.2930 C.3   132  VAL132      0.1595
     44  C        115.6450  255.0790 -215.8680 C.2   132  VAL132      0.2287
     45  O        115.3410  256.1590 -216.3730 O.2   132  VAL132     -0.2864
     46  CB       118.0290  254.1310 -216.2720 C.3   132  VAL132      0.0276
     47  CG1      118.0130  254.7580 -217.6660 C.3   132  VAL132      0.0022
     48  CG2      119.4510  254.1040 -215.7190 C.3   132  VAL132      0.0022
     49  N        113.9520  257.8030 -213.6880 N.3   135  ILE135     -0.1245
     50  CA       114.5810  259.1040 -213.9730 C.3   135  ILE135      0.1561
     51  C        114.1060  259.6480 -215.3360 C.2   135  ILE135      0.2260
     52  O        113.7570  260.8280 -215.4120 O.2   135  ILE135     -0.2867
     53  CB       116.1270  259.0700 -213.8270 C.3   135  ILE135      0.0252
     54  CG1      116.5200  258.9860 -212.3360 C.3   135  ILE135      0.0019
     55  CG2      116.8070  260.2800 -214.4940 C.3   135  ILE135      0.0019
     56  CD1      117.8590  258.3020 -212.0390 C.3   135  ILE135      0.0001
     57  N        128.1380  261.0000 -213.7880 N.3   160  ILE160     -0.1245
     58  CA       126.6860  260.7730 -213.6780 C.3   160  ILE160      0.1561
     59  C        125.9790  262.1080 -213.3720 C.2   160  ILE160      0.2260
     60  O        124.9250  262.3850 -213.9390 O.2   160  ILE160     -0.2867
     61  CB       126.3710  259.6620 -212.6230 C.3   160  ILE160      0.0252
     62  CG1      127.0820  258.3420 -212.9520 C.3   160  ILE160      0.0019
     63  CG2      124.8780  259.4180 -212.4430 C.3   160  ILE160      0.0019
     64  CD1      128.0120  257.9310 -211.9630 C.3   160  ILE160      0.0001
     65  N        130.9430  259.5920 -207.7950 N.3   186  HIS186     -0.1226
     66  CA       129.5130  259.5550 -207.4800 C.3   186  HIS186      0.1752
     67  C        129.2480  259.2640 -205.9980 C.2   186  HIS186      0.2596
     68  O        128.2220  259.6920 -205.4720 O.2   186  HIS186     -0.2718
     69  CB       128.7770  258.5670 -208.3940 C.3   186  HIS186      0.0759
     70  CG       127.2880  258.6720 -208.3100 C.ar  186  HIS186      0.0818
     71  ND1      126.6250  259.8240 -208.6990 N.ar  186  HIS186     -0.2268
     72  CD2      126.3780  257.7700 -207.8740 C.ar  186  HIS186      0.1154
     73  CE1      125.3430  259.5900 -208.4790 C.ar  186  HIS186      0.1986
     74  NE2      125.1450  258.3660 -207.9870 N.ar  186  HIS186     -0.2212
     75  N        130.1790  258.5660 -205.3340 N.am  187  PHE187     -0.1976
     76  CA       130.0970  258.2480 -203.9100 C.3   187  PHE187      0.1639
     77  C        131.2390  258.9230 -203.1350 C.2   187  PHE187      0.2290
     78  O        131.8690  258.3220 -202.2720 O.2   187  PHE187     -0.2864
     79  CB       130.0050  256.7280 -203.6890 C.3   187  PHE187      0.0560
     80  CG       128.7420  256.1420 -204.2730 C.ar  187  PHE187     -0.0200
     81  CD1      127.5200  256.2920 -203.6240 C.ar  187  PHE187     -0.0042
     82  CD2      128.7670  255.4690 -205.4860 C.ar  187  PHE187     -0.0042
     83  CE1      126.3520  255.7640 -204.1710 C.ar  187  PHE187     -0.0003
     84  CE2      127.5890  254.9440 -206.0360 C.ar  187  PHE187     -0.0003
     85  CZ       126.3940  255.0930 -205.3720 C.ar  187  PHE187     -0.0000
@<TRIPOS>BOND
     1    47    46    1
     2    45    44    2
     3    46    48    1
     4    46    43    1
     5    44    43    1
     6    52    51    2
     7    51    50    1
     8    43    42    1
     9    55    53    1
    10    42    39   am
    11    50    53    1
    12    50    49    1
    13    60    59    2
    14    53    54    1
    15    57    58    1
    16    58    59    1
    17    58    61    1
    18    33    32    2
    19    62    61    1
    20    62    64    1
    21    39    40    2
    22    39    38    1
    23    32    31    1
    24    61    63    1
    25    54    56    1
    26    35    34    1
    27    37    38    1
    28    34    31    1
    29    34    36    1
    30    38    41    1
    31    31    30    1
    32    28    29    1
    33    28    27    1
    34    71    73   ar
    35    71    70   ar
    36    73    74   ar
    37    69    70    1
    38    69    66    1
    39    70    72   ar
    40    74    72   ar
    41    65    66    1
    42    21    20    1
    43    15    12    1
    44    27    26    1
    45    66    67    1
    46    26    23    1
    47    23    22    1
    48    23    24    1
    49    22    18   am
    50    20    17    1
    51    18    19    2
    52    18    17    1
    53    17    16    1
    54    12    13    1
    55    12    11    1
    56    14    13    2
    57    84    82   ar
    58    84    85   ar
    59    67    68    2
    60    67    75   am
    61    25    24    2
    62    11     3   am
    63    82    80   ar
    64    85    83   ar
    65    75    76    1
    66    80    79    1
    67    80    81   ar
    68     3     2    1
    69     3     4    2
    70    83    81   ar
    71     5     2    1
    72     5     6    1
    73    76    79    1
    74    76    77    1
    75     8     6   ar
    76     8    10   ar
    77     2     1    1
    78     6     7   ar
    79    77    78    2
    80    10     9   ar
    81     7     9   ar
