@<TRIPOS>MOLECULE
tmp/6fvqD00.pdb
 112 110 0 0 0
SMALL
GASTEIGER

@<TRIPOS>ATOM
      1  N         29.1180  -19.2850   35.4570 N.3    32  ILE32      -0.1245
      2  CA        28.7020  -20.2810   36.4480 C.3    32  ILE32       0.1561
      3  C         27.2050  -20.3960   36.5050 C.2    32  ILE32       0.2260
      4  O         26.5040  -19.3890   36.5250 O.2    32  ILE32      -0.2867
      5  CB        29.3090  -20.0630   37.8660 C.3    32  ILE32       0.0252
      6  CG1       30.8420  -20.0470   37.8180 C.3    32  ILE32       0.0019
      7  CG2       28.8520  -21.1500   38.8210 C.3    32  ILE32       0.0019
      8  CD1       31.4830  -19.4510   38.9930 C.3    32  ILE32       0.0001
      9  N         27.0510   -8.5070   42.2750 N.3    55  LEU55      -0.1245
     10  CA        27.6600   -9.5180   43.1580 C.3    55  LEU55       0.1561
     11  C         27.6390   -9.1110   44.6450 C.2    55  LEU55       0.2260
     12  O         27.2840   -9.9340   45.4960 O.2    55  LEU55      -0.2867
     13  CB        29.0860   -9.8520   42.6980 C.3    55  LEU55       0.0270
     14  CG        29.8920  -10.8630   43.5140 C.3    55  LEU55       0.0019
     15  CD1       29.3840  -12.2730   43.3040 C.3    55  LEU55       0.0001
     16  CD2       31.3690  -10.7650   43.1690 C.3    55  LEU55       0.0001
     17  N         24.2460   -9.5760   46.0940 N.3    58  PHE58      -0.1227
     18  CA        23.9040  -10.9940   46.0370 C.3    58  PHE58       0.1736
     19  C         24.5910  -11.7710   47.1530 C.2    58  PHE58       0.2595
     20  O         23.9480  -12.6240   47.7780 O.2    58  PHE58      -0.2718
     21  CB        24.1920  -11.6200   44.6660 C.3    58  PHE58       0.0547
     22  CG        23.9350  -13.1160   44.6120 C.ar   58  PHE58      -0.0202
     23  CD1       22.6390  -13.6210   44.6140 C.ar   58  PHE58      -0.0042
     24  CD2       24.9870  -14.0170   44.5950 C.ar   58  PHE58      -0.0042
     25  CE1       22.4070  -14.9960   44.5630 C.ar   58  PHE58      -0.0003
     26  CE2       24.7480  -15.3960   44.5290 C.ar   58  PHE58      -0.0003
     27  CZ        23.4620  -15.8760   44.5260 C.ar   58  PHE58      -0.0000
     28  N         25.8850  -11.4720   47.4050 N.am   59  LEU59      -0.1980
     29  CA        26.6360  -12.1080   48.4800 C.3    59  LEU59       0.1596
     30  C         26.0670  -11.6950   49.8370 C.2    59  LEU59       0.2287
     31  O         26.0110  -12.5250   50.7460 O.2    59  LEU59      -0.2864
     32  CB        28.1060  -11.7680   48.4120 C.3    59  LEU59       0.0297
     33  CG        28.9070  -12.5630   47.4270 C.3    59  LEU59       0.0022
     34  CD1       30.2700  -11.9660   47.2730 C.3    59  LEU59       0.0001
     35  CD2       29.0580  -13.9940   47.8670 C.3    59  LEU59       0.0001
     36  N         28.1480  -20.2160   49.3420 N.3    69  TRP69      -0.1228
     37  CA        28.3510  -20.1130   47.9140 C.3    69  TRP69       0.1722
     38  C         29.5900  -20.9270   47.5040 C.2    69  TRP69       0.2437
     39  O         30.4710  -21.1350   48.3430 O.2    69  TRP69      -0.2733
     40  CB        28.4970  -18.6390   47.5280 C.3    69  TRP69       0.0563
     41  CG        29.6040  -17.9100   48.2430 C.ar   69  TRP69       0.0003
     42  CD1       30.9040  -17.7770   47.8340 C.ar   69  TRP69       0.0946
     43  CD2       29.4870  -17.1600   49.4640 C.ar   69  TRP69       0.0152
     44  NE1       31.6090  -17.0180   48.7380 N.ar   69  TRP69      -0.2442
     45  CE2       30.7590  -16.6170   49.7450 C.ar   69  TRP69       0.0810
     46  CE3       28.4250  -16.8750   50.3370 C.ar   69  TRP69       0.0012
     47  CZ2       30.9970  -15.8130   50.8710 C.ar   69  TRP69       0.0191
     48  CZ3       28.6670  -16.0820   51.4480 C.ar   69  TRP69       0.0001
     49  CH2       29.9380  -15.5600   51.7060 C.ar   69  TRP69       0.0015
     50  N         29.6870  -21.3910   46.2300 N.am   70  PRO70      -0.2718
     51  CA        30.8610  -22.1810   45.8220 C.3    70  PRO70       0.1535
     52  C         32.0960  -21.3030   45.6150 C.2    70  PRO70       0.2598
     53  O         32.4860  -20.9840   44.4820 O.2    70  PRO70      -0.2715
     54  CB        30.3890  -22.8730   44.5410 C.3    70  PRO70       0.0310
     55  CG        29.3890  -21.9510   43.9740 C.3    70  PRO70       0.0237
     56  CD        28.7290  -21.2480   45.1140 C.3    70  PRO70       0.0939
     57  N         32.7150  -20.9000   46.7320 N.am   71  ALA71      -0.1964
     58  CA        33.8890  -20.0520   46.7210 C.3    71  ALA71       0.1728
     59  C         34.9820  -20.7370   45.9160 C.2    71  ALA71       0.2616
     60  O         35.3050  -21.8970   46.1640 O.2    71  ALA71      -0.2715
     61  CB        34.3480  -19.7820   48.1480 C.3    71  ALA71       0.0334
     62  N         35.4710  -20.0490   44.8860 N.am   72  PHE72      -0.1974
     63  CA        36.5250  -20.5570   44.0090 C.3    72  PHE72       0.1639
     64  C         37.7500  -19.6330   43.9160 C.2    72  PHE72       0.2290
     65  O         37.6470  -18.4420   44.2300 O.2    72  PHE72      -0.2864
     66  CB        35.9580  -20.8530   42.6060 C.3    72  PHE72       0.0560
     67  CG        35.4860  -19.6300   41.8680 C.ar   72  PHE72      -0.0200
     68  CD1       36.3750  -18.8600   41.1270 C.ar   72  PHE72      -0.0042
     69  CD2       34.1590  -19.2270   41.9390 C.ar   72  PHE72      -0.0042
     70  CE1       35.9560  -17.6930   40.4910 C.ar   72  PHE72      -0.0003
     71  CE2       33.7380  -18.0600   41.2950 C.ar   72  PHE72      -0.0003
     72  CZ        34.6430  -17.3030   40.5700 C.ar   72  PHE72      -0.0000
     73  N         30.5650   -8.3680   36.9850 N.3    86  ARG86      -0.1245
     74  CA        30.3410   -9.3560   38.0380 C.3    86  ARG86       0.1563
     75  C         28.8430   -9.2520   38.3110 C.2    86  ARG86       0.2260
     76  O         28.3850   -8.4500   39.1360 O.2    86  ARG86      -0.2867
     77  CB        31.2160   -9.0750   39.2810 C.3    86  ARG86       0.0307
     78  CG        32.7220   -9.0910   39.0230 C.3    86  ARG86       0.0489
     79  CD        33.5100   -8.8480   40.2730 C.3    86  ARG86       0.2205
     80  NE        34.0240  -10.1030   40.8150 N.pl3  86  ARG86      -0.0865
     81  CZ        34.7220  -10.1990   41.9430 C.cat  86  ARG86       0.5346
     82  NH1       34.9780   -9.1190   42.6670 N.pl3  86  ARG86       0.1354
     83  NH2       35.1480  -11.3780   42.3690 N.pl3  86  ARG86       0.1354
     84  N         25.9380  -16.6750   36.9400 N.3    98  TYR98      -0.1241
     85  CA        26.9900  -15.7230   37.1990 C.3    98  TYR98       0.1605
     86  C         27.8910  -15.5240   36.0080 C.2    98  TYR98       0.2264
     87  O         28.2720  -16.4960   35.3610 O.2    98  TYR98      -0.2867
     88  CB        27.8120  -16.1690   38.4180 C.3    98  TYR98       0.0534
     89  CG        28.9060  -15.1990   38.8140 C.ar   98  TYR98      -0.0201
     90  CD1       28.6060  -13.8840   39.1620 C.ar   98  TYR98      -0.0009
     91  CD2       30.2370  -15.6000   38.8590 C.ar   98  TYR98      -0.0009
     92  CE1       29.6020  -12.9940   39.5490 C.ar   98  TYR98       0.0417
     93  CE2       31.2480  -14.7160   39.2290 C.ar   98  TYR98       0.0417
     94  CZ        30.9270  -13.4100   39.5710 C.ar   98  TYR98       0.1957
     95  OH        31.9310  -12.5360   39.9330 O.3    98  TYR98      -0.2866
     96  N         31.5470  -13.3590   35.0430 N.3   100  GLU100     -0.1196
     97  CA        32.7320  -12.6610   35.5360 C.3   100  GLU100      0.1783
     98  C         33.6280  -12.3360   34.3490 C.2   100  GLU100      0.2306
     99  O         34.2570  -13.2300   33.7840 O.2   100  GLU100     -0.2863
    100  CB        33.4810  -13.5300   36.5750 C.2   100  GLU100      0.0071
    101  CG        34.2550  -12.7550   37.6290 C.2   100  GLU100      0.0834
    102  CD        34.8990  -13.5680   38.7440 C.2   100  GLU100      0.3877
    103  OE1       35.7170  -14.4700   38.4540 O.co2 100  GLU100     -0.2406
    104  OE2       34.6490  -13.2380   39.9220 O.co2 100  GLU100     -0.2406
    105  N         37.2160  -23.8750   46.6710 N.3   130  ILE130     -0.1245
    106  CA        37.7960  -23.7690   48.0150 C.3   130  ILE130      0.1561
    107  C         37.1790  -24.8770   48.8890 C.2   130  ILE130      0.2260
    108  O         37.9210  -25.5660   49.6010 O.2   130  ILE130     -0.2867
    109  CB        37.6750  -22.3340   48.5860 C.3   130  ILE130      0.0252
    110  CG1       38.7260  -21.4430   47.9300 C.3   130  ILE130      0.0019
    111  CG2       37.8200  -22.2940   50.1090 C.3   130  ILE130      0.0019
    112  CD1       38.2180  -20.1650   47.5240 C.3   130  ILE130      0.0001
@<TRIPOS>BOND
     1    99    98    2
     2    98    97    1
     3    96    97    1
     4    87    86    2
     5     1     2    1
     6    97   100    1
     7    86    85    1
     8     2     3    1
     9     2     5    1
    10     3     4    2
    11   100   101    2
    12    84    85    1
    13    73    74    1
    14    85    88    1
    15   101   102    1
    16     6     5    1
    17     6     8    1
    18     5     7    1
    19    74    75    1
    20    74    77    1
    21    75    76    2
    22    88    89    1
    23   103   102   ar
    24   102   104   ar
    25    89    91   ar
    26    89    90   ar
    27    91    93   ar
    28    78    77    1
    29    78    79    1
    30    90    92   ar
    31    93    94   ar
    32    92    94   ar
    33    94    95    1
    34    79    80    1
    35    70    72   ar
    36    70    68   ar
    37    72    71   ar
    38    80    81    2
    39    68    67   ar
    40    71    69   ar
    41    67    69   ar
    42    67    66    1
    43    81    83    1
    44    81    82    1
    45     9    10    1
    46    66    63    1
    47    13    10    1
    48    13    14    1
    49    10    11    1
    50    16    14    1
    51    15    14    1
    52    64    63    1
    53    64    65    2
    54    55    54    1
    55    55    56    1
    56    63    62    1
    57    53    52    2
    58    27    26   ar
    59    27    25   ar
    60    26    24   ar
    61    54    51    1
    62    25    23   ar
    63    24    22   ar
    64    22    23   ar
    65    22    21    1
    66    11    12    2
    67    21    18    1
    68    62    59   am
    69    56    50    1
    70    52    51    1
    71    52    57   am
    72    51    50    1
    73    59    60    2
    74    59    58    1
    75    18    17    1
    76    18    19    1
    77    50    38   am
    78   105   106    1
    79    58    57    1
    80    58    61    1
    81    19    28   am
    82    19    20    2
    83    34    33    1
    84    28    29    1
    85    33    35    1
    86    33    32    1
    87    38    37    1
    88    38    39    2
    89   112   110    1
    90    40    37    1
    91    40    41    1
    92    42    41   ar
    93    42    44   ar
    94    37    36    1
    95   110   109    1
    96   106   109    1
    97   106   107    1
    98    41    43   ar
    99    32    29    1
   100    29    30    1
   101   109   111    1
   102    44    45   ar
   103   107   108    2
   104    43    45   ar
   105    43    46   ar
   106    45    47   ar
   107    30    31    2
   108    46    48   ar
   109    47    49   ar
   110    48    49   ar
