@<TRIPOS>MOLECULE
tmp/6fvsC01.pdb
 81 74 0 0 0
SMALL
GASTEIGER

@<TRIPOS>ATOM
      1  N        -16.0750    2.4350   30.4560 N.3   203  ILE203     -0.1245
      2  CA       -16.0560    2.9330   29.0780 C.3   203  ILE203      0.1561
      3  C        -14.9530    3.9690   28.9350 C.2   203  ILE203      0.2260
      4  O        -14.1800    3.8650   27.9980 O.2   203  ILE203     -0.2867
      5  CB       -17.4480    3.4570   28.6540 C.3   203  ILE203      0.0252
      6  CG1      -18.4460    2.2840   28.3800 C.3   203  ILE203      0.0019
      7  CG2      -17.3420    4.3880   27.4560 C.3   203  ILE203      0.0019
      8  CD1      -19.9040    2.6880   28.3900 C.3   203  ILE203      0.0001
      9  N        -11.2080    2.0250   29.7430 N.3   206  VAL206     -0.1231
     10  CA       -10.7470    1.1240   28.6690 C.3   206  VAL206      0.1692
     11  C        -10.5840    1.8930   27.3260 C.2   206  VAL206      0.2592
     12  O         -9.7480    1.4990   26.4980 O.2   206  VAL206     -0.2718
     13  CB       -11.5570   -0.1840   28.5320 C.3   206  VAL206      0.0266
     14  CG1      -11.0950   -0.9830   27.3550 C.3   206  VAL206      0.0020
     15  CG2      -11.4390   -1.0270   29.7780 C.3   206  VAL206      0.0020
     16  N        -11.3180    3.0180   27.1450 N.am  207  SER207     -0.1952
     17  CA       -11.1730    3.8200   25.9400 C.3   207  SER207      0.1924
     18  C         -9.8380    4.5220   25.9710 C.2   207  SER207      0.2314
     19  O         -9.2110    4.6650   24.9260 O.2   207  SER207     -0.2863
     20  CB       -12.3170    4.8090   25.7860 C.3   207  SER207      0.2116
     21  OG       -13.4910    4.1420   25.3530 O.3   207  SER207     -0.2180
     22  N         -6.6580    2.4280   24.7270 N.3   210  THR210     -0.1218
     23  CA        -6.4230    2.4030   23.2860 C.3   210  THR210      0.1862
     24  C         -5.6290    3.6150   22.7760 C.2   210  THR210      0.2287
     25  O         -5.1820    3.5900   21.6230 O.2   210  THR210     -0.2866
     26  CB        -7.7140    2.2080   22.5250 C.3   210  THR210      0.1770
     27  OG1       -8.4560    3.4080   22.6370 O.3   210  THR210     -0.2211
     28  CG2       -8.5280    1.0160   23.0360 C.3   210  THR210      0.0375
     29  N         -8.5240    6.0120   15.0320 N.3   218  LYS218     -0.1245
     30  CA        -9.1700    5.0520   15.9400 C.3   218  LYS218      0.1561
     31  C         -9.6780    5.7390   17.2070 C.2   218  LYS218      0.2260
     32  O        -10.7830    5.4240   17.6520 O.2   218  LYS218     -0.2867
     33  CB        -8.2520    3.8510   16.2400 C.3   218  LYS218      0.0271
     34  CG        -8.7440    2.7670   17.2280 C.3   218  LYS218      0.0035
     35  CD       -10.1760    2.2480   17.0610 C.3   218  LYS218      0.0206
     36  CE       -10.4630    1.1890   18.1100 C.3   218  LYS218      0.1093
     37  NZ       -11.8380    1.3070   18.6460 N.3   218  LYS218     -0.1314
     38  N        -12.9160    7.6760   16.2410 N.3   221  ASP221     -0.1225
     39  CA       -14.0240    6.7220   16.1350 C.3   221  ASP221      0.1805
     40  C        -14.4920    6.2720   17.5120 C.2   221  ASP221      0.2597
     41  O        -15.6900    6.1400   17.7360 O.2   221  ASP221     -0.2718
     42  CB       -13.6700    5.5200   15.2490 C.3   221  ASP221      0.1424
     43  CG       -13.3620    5.8660   13.8100 C.2   221  ASP221      0.3668
     44  OD1      -13.3880    7.0730   13.4660 O.co2 221  ASP221     -0.2456
     45  OD2      -13.0710    4.9340   13.0300 O.co2 221  ASP221     -0.2456
     46  N        -13.5490    6.0850   18.4350 N.am  222  LEU222     -0.1979
     47  CA       -13.8570    5.6490   19.7700 C.3   222  LEU222      0.1596
     48  C        -14.6020    6.7110   20.5660 C.2   222  LEU222      0.2287
     49  O        -15.6570    6.3940   21.1270 O.2   222  LEU222     -0.2864
     50  CB       -12.5970    5.1520   20.4820 C.3   222  LEU222      0.0297
     51  CG       -12.8300    4.2040   21.6390 C.3   222  LEU222      0.0022
     52  CD1      -13.7080    3.0430   21.2330 C.3   222  LEU222      0.0001
     53  CD2      -11.5440    3.6990   22.1560 C.3   222  LEU222      0.0001
     54  N        -18.2730    7.1840   19.2800 N.3   225  GLY225     -0.1210
     55  CA       -19.1850    6.1570   19.7580 C.3   225  GLY225      0.1956
     56  C        -19.4550    6.2980   21.2280 C.2   225  GLY225      0.2611
     57  O        -20.5780    6.0540   21.6570 O.2   225  GLY225     -0.2717
     58  N        -18.4360    6.7220   22.0110 N.am  226  ASN226     -0.1974
     59  CA       -18.5730    6.9500   23.4560 C.3   226  ASN226      0.1688
     60  C        -19.6050    8.0200   23.7100 C.2   226  ASN226      0.2292
     61  O        -20.4500    7.8540   24.5870 O.2   226  ASN226     -0.2864
     62  CB       -17.2590    7.3380   24.1070 C.3   226  ASN226      0.1181
     63  CG       -16.3140    6.1940   24.3570 C.2   226  ASN226      0.2629
     64  OD1      -16.6330    5.0050   24.1490 O.2   226  ASN226     -0.2716
     65  ND2      -15.1210    6.5510   24.8250 N.am  226  ASN226     -0.0877
     66  N        -22.1660    8.6680   21.8260 N.3   228  LEU228     -0.1231
     67  CA       -23.4850    8.0630   21.6100 C.3   228  LEU228      0.1693
     68  C        -23.9150    7.2460   22.8150 C.2   228  LEU228      0.2591
     69  O        -25.0690    7.3390   23.2190 O.2   228  LEU228     -0.2718
     70  CB       -23.5320    7.2280   20.3380 C.3   228  LEU228      0.0284
     71  CG       -23.1540    7.9200   19.0220 C.3   228  LEU228      0.0019
     72  CD1      -23.2540    6.9590   17.8730 C.3   228  LEU228      0.0001
     73  CD2      -24.0510    9.0940   18.7540 C.3   228  LEU228      0.0001
     74  N        -22.9740    6.5020   23.4390 N.am  229  LEU229     -0.1980
     75  CA       -23.2460    5.7080   24.6400 C.3   229  LEU229      0.1596
     76  C        -23.7160    6.5920   25.7540 C.2   229  LEU229      0.2287
     77  O        -24.7220    6.2550   26.3780 O.2   229  LEU229     -0.2864
     78  CB       -22.0100    4.9250   25.0790 C.3   229  LEU229      0.0297
     79  CG       -21.6750    3.7290   24.2020 C.3   229  LEU229      0.0022
     80  CD1      -20.2080    3.4060   24.2630 C.3   229  LEU229      0.0001
     81  CD2      -22.4760    2.5380   24.6340 C.3   229  LEU229      0.0001
@<TRIPOS>BOND
     1    45    43   ar
     2    44    43   ar
     3    43    42    1
     4    29    30    1
     5    42    39    1
     6    30    33    1
     7    30    31    1
     8    39    38    1
     9    39    40    1
    10    33    34    1
    11    35    34    1
    12    35    36    1
    13    31    32    2
    14    40    41    2
    15    40    46   am
    16    72    71    1
    17    36    37    1
    18    46    47    1
    19    73    71    1
    20    71    70    1
    21    54    55    1
    22    55    56    1
    23    47    50    1
    24    47    48    1
    25    70    67    1
    26    50    51    1
    27    48    49    2
    28    56    57    2
    29    56    58   am
    30    52    51    1
    31    67    66    1
    32    67    68    1
    33    25    24    2
    34    51    53    1
    35    58    59    1
    36    26    27    1
    37    26    28    1
    38    26    23    1
    39    24    23    1
    40    68    69    2
    41    68    74   am
    42    23    22    1
    43    74    75    1
    44    59    60    1
    45    59    62    1
    46    60    61    2
    47    62    63    1
    48    64    63    2
    49    79    80    1
    50    79    81    1
    51    79    78    1
    52    63    65   am
    53    75    78    1
    54    75    76    1
    55    19    18    2
    56    21    20    1
    57    76    77    2
    58    20    17    1
    59    17    18    1
    60    17    16    1
    61    12    11    2
    62    16    11   am
    63    11    10    1
    64    14    13    1
    65     7     5    1
    66     4     3    2
    67     6     8    1
    68     6     5    1
    69    13    10    1
    70    13    15    1
    71     5     2    1
    72    10     9    1
    73     3     2    1
    74     2     1    1
