@<TRIPOS>MOLECULE
tmp/6fw0A01.pdb
 169 164 0 0 0
SMALL
GASTEIGER

@<TRIPOS>ATOM
      1  N         59.9970  151.6400   22.5760 N.3    59  TYR59      -0.1241
      2  CA        60.4560  152.0880   23.8830 C.3    59  TYR59       0.1605
      3  C         60.8830  150.9590   24.7890 C.2    59  TYR59       0.2264
      4  O         60.2720  149.8910   24.8150 O.2    59  TYR59      -0.2867
      5  CB        59.3940  152.9350   24.6010 C.3    59  TYR59       0.0534
      6  CG        58.9590  154.0920   23.7480 C.ar   59  TYR59      -0.0201
      7  CD1       59.8100  155.1780   23.5310 C.ar   59  TYR59      -0.0009
      8  CD2       57.7410  154.0610   23.0590 C.ar   59  TYR59      -0.0009
      9  CE1       59.4540  156.2200   22.6810 C.ar   59  TYR59       0.0417
     10  CE2       57.3810  155.0960   22.2000 C.ar   59  TYR59       0.0417
     11  CZ        58.2390  156.1670   22.0240 C.ar   59  TYR59       0.1957
     12  OH        57.8880  157.1830   21.1790 O.3    59  TYR59      -0.2866
     13  N         55.4410  168.5520   30.1740 N.3    87  LEU87      -0.1245
     14  CA        54.4380  167.7340   29.4830 C.3    87  LEU87       0.1561
     15  C         53.1930  168.5990   29.3060 C.2    87  LEU87       0.2260
     16  O         53.0520  169.6170   29.9900 O.2    87  LEU87      -0.2867
     17  CB        54.0980  166.5000   30.3140 C.3    87  LEU87       0.0270
     18  CG        55.1980  165.4310   30.4900 C.3    87  LEU87       0.0019
     19  CD1       56.4210  165.9210   31.2650 C.3    87  LEU87       0.0001
     20  CD2       54.6100  164.1790   31.1360 C.3    87  LEU87       0.0001
     21  N         54.9010  162.4060   36.3490 N.3   101  PRO101     -0.2116
     22  CA        54.2840  161.5230   35.3660 C.3   101  PRO101      0.1372
     23  C         52.7630  161.6340   35.2530 C.2   101  PRO101      0.2244
     24  O         52.2140  161.4370   34.1530 O.2   101  PRO101     -0.2868
     25  CB        54.6930  160.1270   35.8520 C.3   101  PRO101      0.0268
     26  CG        54.9270  160.2910   37.3170 C.3   101  PRO101      0.0207
     27  CD        55.5410  161.6510   37.4440 C.3   101  PRO101      0.0892
     28  N         49.2100  163.4740   35.1250 N.3   103  PRO103     -0.2116
     29  CA        48.5610  164.7500   34.8880 C.3   103  PRO103      0.1372
     30  C         47.7840  165.2040   36.1470 C.2   103  PRO103      0.2244
     31  O         46.9040  164.4590   36.6320 O.2   103  PRO103     -0.2868
     32  CB        47.6090  164.4520   33.7220 C.3   103  PRO103      0.0268
     33  CG        48.1480  163.2270   33.0720 C.3   103  PRO103      0.0207
     34  CD        48.7690  162.4320   34.1710 C.3   103  PRO103      0.0892
     35  N         44.0770  155.8850   40.5510 N.3   118  TRP118     -0.1241
     36  CA        45.3650  155.2600   40.3220 C.3   118  TRP118      0.1605
     37  C         45.7170  154.2950   41.4600 C.2   118  TRP118      0.2264
     38  O         46.1900  153.1660   41.2370 O.2   118  TRP118     -0.2867
     39  CB        46.4430  156.3180   40.1620 C.3   118  TRP118      0.0550
     40  CG        46.2470  157.2440   38.9890 C.ar  118  TRP118      0.0003
     41  CD1       45.9210  158.5700   39.0330 C.ar  118  TRP118      0.0946
     42  CD2       46.4040  156.9200   37.5970 C.ar  118  TRP118      0.0152
     43  NE1       45.8730  159.0930   37.7650 N.ar  118  TRP118     -0.2442
     44  CE2       46.1570  158.1020   36.8620 C.ar  118  TRP118      0.0810
     45  CE3       46.7380  155.7540   36.9060 C.ar  118  TRP118      0.0012
     46  CZ2       46.2330  158.1470   35.4620 C.ar  118  TRP118      0.0191
     47  CZ3       46.8120  155.7910   35.5250 C.ar  118  TRP118      0.0001
     48  CH2       46.5660  156.9770   34.8120 C.ar  118  TRP118      0.0015
     49  N         40.4080  160.6920   31.8880 N.3   163  LEU163     -0.1245
     50  CA        41.8310  160.3550   31.9260 C.3   163  LEU163      0.1561
     51  C         42.0380  158.8360   32.0100 C.2   163  LEU163      0.2260
     52  O         42.9030  158.2860   31.3500 O.2   163  LEU163     -0.2867
     53  CB        42.5180  161.0420   33.1140 C.3   163  LEU163      0.0270
     54  CG        44.0360  160.8750   33.1340 C.3   163  LEU163      0.0019
     55  CD1       44.6940  161.4020   31.8690 C.3   163  LEU163      0.0001
     56  CD2       44.6030  161.5450   34.3700 C.3   163  LEU163      0.0001
     57  N         41.5100  157.2880   28.5960 N.3   166  LEU166     -0.1231
     58  CA        42.6970  157.4750   27.7770 C.3   166  LEU166      0.1693
     59  C         43.7900  156.4960   28.1840 C.2   166  LEU166      0.2592
     60  O         44.4520  155.9110   27.3330 O.2   166  LEU166     -0.2718
     61  CB        43.1760  158.9200   27.9220 C.3   166  LEU166      0.0284
     62  CG        44.3320  159.3520   27.0280 C.3   166  LEU166      0.0019
     63  CD1       44.2270  160.8560   26.8150 C.3   166  LEU166      0.0001
     64  CD2       45.6910  159.0200   27.6220 C.3   166  LEU166      0.0001
     65  N         43.9620  156.3150   29.4980 N.am  167  PHE167     -0.1976
     66  CA        44.9720  155.3590   30.0450 C.3   167  PHE167      0.1639
     67  C         44.7820  153.9650   29.4730 C.2   167  PHE167      0.2290
     68  O         45.7290  153.3570   28.9670 O.2   167  PHE167     -0.2864
     69  CB        44.8640  155.3480   31.5530 C.3   167  PHE167      0.0560
     70  CG        45.6790  154.2940   32.2540 C.ar  167  PHE167     -0.0200
     71  CD1       47.0440  154.2120   32.0540 C.ar  167  PHE167     -0.0042
     72  CD2       45.0930  153.4640   33.1920 C.ar  167  PHE167     -0.0042
     73  CE1       47.8000  153.2730   32.7560 C.ar  167  PHE167     -0.0003
     74  CE2       45.8480  152.5350   33.8980 C.ar  167  PHE167     -0.0003
     75  CZ        47.2030  152.4420   33.6700 C.ar  167  PHE167     -0.0000
     76  N         45.4040  153.8850   25.5950 N.3   170  LEU170     -0.1231
     77  CA        46.8180  154.0430   25.2680 C.3   170  LEU170      0.1693
     78  C         47.6350  152.8280   25.6700 C.2   170  LEU170      0.2592
     79  O         48.5750  152.4570   24.9920 O.2   170  LEU170     -0.2718
     80  CB        47.3480  155.2770   25.9810 C.3   170  LEU170      0.0284
     81  CG        48.8320  155.5980   25.8730 C.3   170  LEU170      0.0019
     82  CD1       49.3120  155.6890   24.4150 C.3   170  LEU170      0.0001
     83  CD2       49.0890  156.9050   26.6180 C.3   170  LEU170      0.0001
     84  N         47.2790  152.2200   26.7930 N.am  171  CYS171     -0.1970
     85  CA        47.9900  151.0530   27.3040 C.3   171  CYS171      0.1712
     86  C         47.7370  149.8090   26.4850 C.2   171  CYS171      0.2296
     87  O         48.6670  149.0220   26.2480 O.2   171  CYS171     -0.2864
     88  CB        47.5490  150.7070   28.7270 C.3   171  CYS171      0.0983
     89  SG        48.3800  151.5860   30.0340 S.3   171  CYS171     -0.0798
     90  N         54.1770  152.0040   34.3070 N.3   197  ILE197     -0.1231
     91  CA        53.6800  151.8320   32.9340 C.3   197  ILE197      0.1692
     92  C         53.4600  153.1670   32.2170 C.2   197  ILE197      0.2591
     93  O         53.6380  153.2360   31.0040 O.2   197  ILE197     -0.2718
     94  CB        52.4200  150.9330   32.8770 C.3   197  ILE197      0.0266
     95  CG1       52.3070  150.2520   31.5130 C.3   197  ILE197      0.0019
     96  CG2       51.1410  151.7080   33.2360 C.3   197  ILE197      0.0020
     97  CD1       51.2730  149.1440   31.4880 C.3   197  ILE197      0.0001
     98  N         53.0750  154.2090   32.9570 N.am  198  ILE198     -0.1980
     99  CA        52.7860  155.5080   32.3500 C.3   198  ILE198      0.1595
    100  C         53.9850  156.4300   32.2210 C.2   198  ILE198      0.2287
    101  O         53.9020  157.4570   31.5250 O.2   198  ILE198     -0.2864
    102  CB        51.6460  156.2960   33.0680 C.3   198  ILE198      0.0276
    103  CG1       52.0750  156.9030   34.4240 C.3   198  ILE198      0.0022
    104  CG2       50.3770  155.4500   33.1590 C.3   198  ILE198      0.0022
    105  CD1       51.2060  158.0610   34.8590 C.3   198  ILE198      0.0001
    106  N         58.5540  154.1840   28.9270 N.3   205  GLN205     -0.1245
    107  CA        58.8490  155.0070   27.7530 C.3   205  GLN205      0.1566
    108  C         60.1770  155.7760   27.8750 C.2   205  GLN205      0.2260
    109  O         60.4290  156.7040   27.1100 O.2   205  GLN205     -0.2867
    110  CB        57.6680  155.9320   27.4540 C.3   205  GLN205      0.0367
    111  CG        56.4760  155.1950   26.8640 C.3   205  GLN205      0.0905
    112  CD        55.8300  154.2450   27.8390 C.2   205  GLN205      0.2608
    113  OE1       55.8180  153.0400   27.6250 O.2   205  GLN205     -0.2717
    114  NE2       55.2850  154.7870   28.9200 N.am  205  GLN205     -0.0878
    115  N         49.1550  164.7190   26.1710 N.3   315  ILE315     -0.1245
    116  CA        48.1220  163.7950   26.5780 C.3   315  ILE315      0.1561
    117  C         46.8120  164.5080   26.2800 C.2   315  ILE315      0.2260
    118  O         46.5210  165.5170   26.8970 O.2   315  ILE315     -0.2867
    119  CB        48.2580  163.4630   28.0680 C.3   315  ILE315      0.0252
    120  CG1       49.6090  162.7690   28.3160 C.3   315  ILE315      0.0019
    121  CG2       47.0880  162.6140   28.5310 C.3   315  ILE315      0.0019
    122  CD1       50.2670  163.1570   29.6050 C.3   315  ILE315      0.0001
    123  N         47.9410  160.7340   22.3590 N.3   325  TYR325     -0.1241
    124  CA        49.2440  160.7180   23.0340 C.3   325  TYR325      0.1605
    125  C         50.3800  160.8910   22.0620 C.2   325  TYR325      0.2264
    126  O         50.4210  160.2310   21.0190 O.2   325  TYR325     -0.2867
    127  CB        49.4560  159.4160   23.7740 C.3   325  TYR325      0.0534
    128  CG        50.6270  159.4030   24.7330 C.ar  325  TYR325     -0.0201
    129  CD1       50.5890  160.1660   25.8920 C.ar  325  TYR325     -0.0009
    130  CD2       51.7470  158.5960   24.5050 C.ar  325  TYR325     -0.0009
    131  CE1       51.6240  160.1390   26.8030 C.ar  325  TYR325      0.0417
    132  CE2       52.8040  158.5710   25.4110 C.ar  325  TYR325      0.0417
    133  CZ        52.7240  159.3410   26.5590 C.ar  325  TYR325      0.1957
    134  OH        53.7340  159.3220   27.4880 O.3   325  TYR325     -0.2866
    135  N         50.1190  158.3660   18.5400 N.3   342  PHE342     -0.1241
    136  CA        49.2810  157.2010   18.3300 C.3   342  PHE342      0.1605
    137  C         47.8310  157.5940   18.0610 C.2   342  PHE342      0.2264
    138  O         47.2460  158.3920   18.8170 O.2   342  PHE342     -0.2867
    139  CB        49.2490  156.3060   19.5670 C.3   342  PHE342      0.0534
    140  CG        50.5430  155.6430   19.9040 C.ar  342  PHE342     -0.0203
    141  CD1       51.1870  154.8330   19.0020 C.ar  342  PHE342     -0.0042
    142  CD2       51.0990  155.8140   21.1690 C.ar  342  PHE342     -0.0042
    143  CE1       52.3830  154.1960   19.3410 C.ar  342  PHE342     -0.0003
    144  CE2       52.2950  155.1790   21.5220 C.ar  342  PHE342     -0.0003
    145  CZ        52.9290  154.3630   20.6070 C.ar  342  PHE342     -0.0000
    146  N         49.2660  146.9970   20.2440 N.3   397  TYR397     -0.1241
    147  CA        50.6060  146.4260   20.5150 C.3   397  TYR397      0.1605
    148  C         50.5380  144.9330   20.7240 C.2   397  TYR397      0.2264
    149  O         51.4910  144.2040   20.4130 O.2   397  TYR397     -0.2867
    150  CB        51.2400  147.0480   21.7770 C.3   397  TYR397      0.0534
    151  CG        50.8980  148.5030   22.0010 C.ar  397  TYR397     -0.0201
    152  CD1       51.1110  149.4610   20.9980 C.ar  397  TYR397     -0.0009
    153  CD2       50.3960  148.9390   23.2360 C.ar  397  TYR397     -0.0009
    154  CE1       50.7910  150.7990   21.2060 C.ar  397  TYR397      0.0417
    155  CE2       50.0690  150.2650   23.4360 C.ar  397  TYR397      0.0417
    156  CZ        50.2810  151.1950   22.4290 C.ar  397  TYR397      0.1957
    157  OH        49.9580  152.5230   22.6370 O.3   397  TYR397     -0.2866
    158  N         55.1400  143.7000   25.5580 N.3   434  TYR434     -0.1241
    159  CA        56.3110  144.4880   25.2220 C.3   434  TYR434      0.1605
    160  C         57.4490  143.6280   24.6670 C.2   434  TYR434      0.2264
    161  O         57.4220  142.3780   24.7340 O.2   434  TYR434     -0.2867
    162  CB        56.8080  145.2010   26.4990 C.3   434  TYR434      0.0534
    163  CG        55.8610  146.2470   27.0320 C.ar  434  TYR434     -0.0201
    164  CD1       54.6550  145.8840   27.6590 C.ar  434  TYR434     -0.0009
    165  CD2       56.1590  147.6060   26.9300 C.ar  434  TYR434     -0.0009
    166  CE1       53.7800  146.8320   28.1450 C.ar  434  TYR434      0.0417
    167  CE2       55.2780  148.5630   27.4290 C.ar  434  TYR434      0.0417
    168  CZ        54.0910  148.1630   28.0230 C.ar  434  TYR434      0.1957
    169  OH        53.2170  149.1060   28.4840 O.3   434  TYR434     -0.2866
@<TRIPOS>BOND
     1   137   136    1
     2   137   138    2
     3   136   135    1
     4   136   139    1
     5   141   143   ar
     6   141   140   ar
     7   143   145   ar
     8   139   140    1
     9   140   142   ar
    10   146   147    1
    11   149   148    2
    12   147   148    1
    13   147   150    1
    14   145   144   ar
    15   152   154   ar
    16   152   151   ar
    17   126   125    2
    18   142   144   ar
    19    12    11    1
    20   154   156   ar
    21   150   151    1
    22   151   153   ar
    23    11    10   ar
    24    11     9   ar
    25   125   124    1
    26    10     8   ar
    27   123   124    1
    28   156   157    1
    29   156   155   ar
    30     1     2    1
    31     9     7   ar
    32   124   127    1
    33     8     6   ar
    34   153   155   ar
    35     7     6   ar
    36     6     5    1
    37   127   128    1
    38     2     5    1
    39     2     3    1
    40    82    81    1
    41   130   128   ar
    42   130   132   ar
    43   160   161    2
    44   160   159    1
    45   128   129   ar
    46     3     4    2
    47    79    78    2
    48   159   158    1
    49   159   162    1
    50    77    76    1
    51    77    78    1
    52    77    80    1
    53   132   133   ar
    54    78    84   am
    55    81    80    1
    56    81    83    1
    57   129   131   ar
    58   115   116    1
    59    87    86    2
    60   117   116    1
    61   117   118    2
    62    86    85    1
    63   162   163    1
    64   133   131   ar
    65   133   134    1
    66   116   119    1
    67    84    85    1
    68    63    62    1
    69   111   110    1
    70   111   112    1
    71   165   163   ar
    72   165   167   ar
    73    62    64    1
    74    62    61    1
    75   163   164   ar
    76   109   108    2
    77    85    88    1
    78    60    59    2
    79   167   168   ar
    80   110   107    1
    81   113   112    2
    82   164   166   ar
    83   107   108    1
    84   107   106    1
    85    58    61    1
    86    58    59    1
    87    58    57    1
    88   112   114   am
    89   168   166   ar
    90   168   169    1
    91   119   120    1
    92   119   121    1
    93    59    65   am
    94   120   122    1
    95    88    89    1
    96    68    67    2
    97    15    14    1
    98    15    16    2
    99    67    66    1
   100    14    13    1
   101    14    17    1
   102    65    66    1
   103    66    69    1
   104    17    18    1
   105    18    20    1
   106    18    19    1
   107    93    92    2
   108    52    51    2
   109    97    95    1
   110    95    94    1
   111   101   100    2
   112    69    70    1
   113    55    54    1
   114    49    50    1
   115    50    51    1
   116    50    53    1
   117    71    70   ar
   118    71    73   ar
   119    92    91    1
   120    92    98   am
   121   100    99    1
   122    70    72   ar
   123    99    98    1
   124    99   102    1
   125    73    75   ar
   126    94    91    1
   127    94    96    1
   128    91    90    1
   129   102   104    1
   130   102   103    1
   131    33    32    1
   132    33    34    1
   133    53    54    1
   134    54    56    1
   135    72    74   ar
   136    75    74   ar
   137    32    29    1
   138    24    23    2
   139    34    28    1
   140   103   105    1
   141    48    46   ar
   142    48    47   ar
   143    29    28    1
   144    29    30    1
   145    23    22    1
   146    22    25    1
   147    22    21    1
   148    46    44   ar
   149    47    45   ar
   150    25    26    1
   151    30    31    2
   152    21    27    1
   153    44    42   ar
   154    44    43   ar
   155    45    42   ar
   156    26    27    1
   157    42    40   ar
   158    43    41   ar
   159    40    41   ar
   160    40    39    1
   161    39    36    1
   162    36    35    1
   163    36    37    1
   164    38    37    2
