@<TRIPOS>MOLECULE
tmp/6fw2A00.pdb
 191 185 0 0 0
SMALL
GASTEIGER

@<TRIPOS>ATOM
      1  N        -13.2220   -9.2320   -8.5250 N.3    16  LYS16      -0.1231
      2  CA       -12.7690   -8.2770   -9.5260 C.3    16  LYS16       0.1693
      3  C        -12.3190   -6.9490   -8.8260 C.2    16  LYS16       0.2592
      4  O        -12.9780   -6.4530   -7.8770 O.2    16  LYS16      -0.2718
      5  CB       -13.8930   -7.9880  -10.5490 C.3    16  LYS16       0.0285
      6  CG       -13.3680   -7.0930  -11.6780 C.3    16  LYS16       0.0035
      7  CD       -14.4420   -6.7870  -12.7310 C.3    16  LYS16       0.0206
      8  CE       -13.9050   -6.0540  -14.0070 C.3    16  LYS16       0.1093
      9  NZ       -12.8480   -6.9320  -14.7050 N.3    16  LYS16      -0.1314
     10  N        -11.1180   -6.5080   -9.2540 N.am   17  SER17      -0.1952
     11  CA       -10.4700   -5.2910   -8.7380 C.3    17  SER17       0.1924
     12  C        -10.0000   -5.3250   -7.2570 C.2    17  SER17       0.2314
     13  O         -9.3470   -4.3090   -6.8600 O.2    17  SER17      -0.2863
     14  CB       -11.3720   -4.0140   -8.9930 C.3    17  SER17       0.2116
     15  OG       -11.5390   -3.7900  -10.3630 O.3    17  SER17      -0.2180
     16  N        -10.6230  -17.2760  -10.2400 N.3    40  ASP40      -0.1225
     17  CA       -10.1240  -15.9140  -10.5510 C.3    40  ASP40       0.1805
     18  C        -11.3450  -15.0680  -11.1170 C.2    40  ASP40       0.2597
     19  O        -12.0070  -15.4920  -12.0880 O.2    40  ASP40      -0.2718
     20  CB        -9.1530  -16.0680  -11.6820 C.3    40  ASP40       0.1424
     21  CG        -8.2790  -14.8370  -11.8820 C.2    40  ASP40       0.3668
     22  OD1       -7.8600  -14.2000  -10.9110 O.co2  40  ASP40      -0.2456
     23  OD2       -8.0500  -14.4830  -13.0440 O.co2  40  ASP40      -0.2456
     24  N        -11.5330  -13.9230  -10.5110 N.am   41  ARG41      -0.1979
     25  CA       -12.6510  -13.0350  -10.8290 C.3    41  ARG41       0.1597
     26  C        -13.9890  -13.7970  -10.9810 C.2    41  ARG41       0.2287
     27  O        -14.7300  -13.5960  -11.9750 O.2    41  ARG41      -0.2864
     28  CB       -12.3600  -12.1330  -12.0190 C.3    41  ARG41       0.0334
     29  CG       -11.2710  -11.0770  -11.7240 C.3    41  ARG41       0.0492
     30  CD        -9.8930  -11.6050  -12.1510 C.3    41  ARG41       0.2205
     31  NE        -8.9050  -10.4570  -12.1620 N.pl3  41  ARG41      -0.0865
     32  CZ        -7.7050  -10.5270  -12.7450 C.cat  41  ARG41       0.5346
     33  NH1       -7.2610  -11.7150  -13.1780 N.pl3  41  ARG41       0.1354
     34  NH2       -6.8630   -9.4090  -12.7810 N.pl3  41  ARG41       0.1354
     35  N        -15.3340   -1.1750  -10.3620 N.3    54  THR54      -0.1218
     36  CA       -13.9870   -1.6080  -10.5020 C.3    54  THR54       0.1862
     37  C        -13.0980   -0.5630   -9.7830 C.2    54  THR54       0.2287
     38  O        -13.5800    0.4650   -9.2710 O.2    54  THR54      -0.2866
     39  CB       -13.5580   -1.7770  -11.9250 C.3    54  THR54       0.1770
     40  OG1      -13.3030   -0.4950  -12.5510 O.3    54  THR54      -0.2211
     41  CG2      -14.6010   -2.7080  -12.7280 C.3    54  THR54       0.0375
     42  N        -11.1980    1.3820  -11.1250 N.3    56  ARG56      -0.1245
     43  CA       -11.3740    2.6850  -11.7980 C.3    56  ARG56       0.1563
     44  C        -12.3620    3.5800  -11.0730 C.2    56  ARG56       0.2260
     45  O        -12.1690    4.7780  -11.0370 O.2    56  ARG56      -0.2867
     46  CB       -11.8270    2.4880  -13.2640 C.3    56  ARG56       0.0307
     47  CG       -10.7360    1.8150  -14.1110 C.3    56  ARG56       0.0489
     48  CD       -11.2320    1.3730  -15.4970 C.3    56  ARG56       0.2205
     49  NE       -10.5540    0.1610  -16.0110 N.pl3  56  ARG56      -0.0865
     50  CZ       -10.9160   -1.1160  -15.7600 C.cat  56  ARG56       0.5346
     51  NH1      -10.2120   -2.1260  -16.2950 N.pl3  56  ARG56       0.1354
     52  NH2      -11.9610   -1.4000  -14.9640 N.pl3  56  ARG56       0.1354
     53  N        -13.4740  -11.4370  -15.4380 N.3   316  SER316     -0.1202
     54  CA       -12.2060  -10.8000  -15.7640 C.3   316  SER316      0.2020
     55  C        -12.4250   -9.8340  -16.9390 C.2   316  SER316      0.2619
     56  O        -13.4650   -9.8940  -17.6120 O.2   316  SER316     -0.2717
     57  CB       -11.1920  -11.8660  -16.1910 C.3   316  SER316      0.2103
     58  OG       -11.2930  -12.9680  -15.3390 O.3   316  SER316     -0.2182
     59  N        -11.4450   -8.9700  -17.1810 N.am  317  ASP317     -0.1959
     60  CA       -11.5800   -7.9820  -18.2950 C.3   317  ASP317      0.1840
     61  C        -11.7940   -8.6130  -19.6450 C.2   317  ASP317      0.2623
     62  O        -12.7980   -8.3310  -20.3280 O.2   317  ASP317     -0.2715
     63  CB       -10.3420   -7.0260  -18.3250 C.3   317  ASP317      0.1450
     64  CG       -10.4030   -5.9540  -17.2480 C.2   317  ASP317      0.3671
     65  OD1      -11.4460   -5.7550  -16.6390 O.co2 317  ASP317     -0.2456
     66  OD2       -9.4210   -5.2100  -16.9910 O.co2 317  ASP317     -0.2456
     67  N        -10.9050   -9.5410  -20.0390 N.am  318  THR318     -0.1937
     68  CA       -10.8980  -10.0570  -21.3810 C.3   318  THR318      0.2028
     69  C        -10.5390  -11.5050  -21.4630 C.2   318  THR318      0.2643
     70  O        -11.0770  -12.2220  -22.2820 O.2   318  THR318     -0.2714
     71  CB        -9.8500   -9.2920  -22.2810 C.3   318  THR318      0.1808
     72  OG1      -10.1850   -7.8940  -22.2700 O.3   318  THR318     -0.2208
     73  CG2       -9.9220   -9.8060  -23.7070 C.3   318  THR318      0.0379
     74  N         -9.5750  -11.9010  -20.6190 N.am  319  SER319     -0.1935
     75  CA        -8.8710  -13.1950  -20.8670 C.3   319  SER319      0.2043
     76  C         -8.9910  -14.1280  -19.6610 C.2   319  SER319      0.2523
     77  O         -9.0320  -13.6830  -18.4810 O.2   319  SER319     -0.2726
     78  CB        -7.4130  -12.8530  -21.0970 C.3   319  SER319      0.2129
     79  OG        -6.6930  -14.0680  -21.3190 O.3   319  SER319     -0.2179
     80  N         -8.9650  -15.4310  -19.9050 N.am  320  PRO320     -0.2490
     81  CA        -8.8900  -16.3500  -18.7180 C.3   320  PRO320      0.1619
     82  C         -7.5480  -16.1940  -17.9490 C.2   320  PRO320      0.2605
     83  O         -7.5620  -16.3270  -16.7180 O.2   320  PRO320     -0.2715
     84  CB        -9.0470  -17.7640  -19.3430 C.3   320  PRO320      0.0570
     85  CG        -9.1610  -17.5760  -20.8040 C.2   320  PRO320     -0.0077
     86  CD        -9.2280  -16.1140  -21.1730 C.2   320  PRO320      0.0634
     87  N         -6.4260  -15.9040  -18.6720 N.am  321  PHE321     -0.1960
     88  CA        -5.0890  -15.7740  -18.0270 C.3   321  PHE321      0.1771
     89  C         -4.3130  -14.5530  -18.4540 C.2   321  PHE321      0.2619
     90  O         -4.3340  -14.1960  -19.6410 O.2   321  PHE321     -0.2715
     91  CB        -4.2050  -17.0040  -18.2920 C.3   321  PHE321      0.0574
     92  CG        -4.8310  -18.2970  -17.8790 C.ar  321  PHE321     -0.0200
     93  CD1       -5.5960  -19.0310  -18.7780 C.ar  321  PHE321     -0.0042
     94  CD2       -4.5950  -18.8110  -16.5900 C.ar  321  PHE321     -0.0042
     95  CE1       -6.1790  -20.2570  -18.3520 C.ar  321  PHE321     -0.0003
     96  CE2       -5.2040  -19.9980  -16.1480 C.ar  321  PHE321     -0.0003
     97  CZ        -5.9890  -20.7540  -17.0420 C.ar  321  PHE321     -0.0000
     98  N         -3.6320  -13.9380  -17.5050 N.am  322  LEU322     -0.1977
     99  CA        -2.5520  -12.9480  -17.8870 C.3   322  LEU322      0.1596
    100  C         -1.2050  -13.5060  -17.3340 C.2   322  LEU322      0.2287
    101  O         -1.0760  -13.7510  -16.1350 O.2   322  LEU322     -0.2864
    102  CB        -2.8180  -11.5940  -17.2690 C.3   322  LEU322      0.0297
    103  CG        -1.6540  -10.5460  -17.3210 C.3   322  LEU322      0.0022
    104  CD1       -1.5900  -10.2730  -18.8210 C.3   322  LEU322      0.0001
    105  CD2       -1.9710   -9.2740  -16.5910 C.3   322  LEU322      0.0001
    106  N         -0.0040   -4.9060  -11.9080 N.3   345  PHE345     -0.1227
    107  CA        -0.4210   -5.3110  -13.2180 C.3   345  PHE345      0.1736
    108  C         -1.3900   -6.5310  -13.2460 C.2   345  PHE345      0.2595
    109  O         -1.8730   -6.9210  -14.2840 O.2   345  PHE345     -0.2718
    110  CB         0.7810   -5.6130  -14.1050 C.3   345  PHE345      0.0547
    111  CG         1.7290   -4.4570  -14.0980 C.ar  345  PHE345     -0.0202
    112  CD1        1.4200   -3.3480  -14.8490 C.ar  345  PHE345     -0.0042
    113  CD2        2.7910   -4.4120  -13.1550 C.ar  345  PHE345     -0.0042
    114  CE1        2.2410   -2.2020  -14.7790 C.ar  345  PHE345     -0.0003
    115  CE2        3.6330   -3.2750  -13.0720 C.ar  345  PHE345     -0.0003
    116  CZ         3.3240   -2.1680  -13.8620 C.ar  345  PHE345     -0.0000
    117  N         -1.5950   -7.0710  -12.0620 N.am  346  ARG346     -0.1980
    118  CA        -2.6400   -8.0970  -11.8410 C.3   346  ARG346      0.1597
    119  C         -2.5000   -9.3300  -12.6960 C.2   346  ARG346      0.2287
    120  O         -3.4760   -9.8710  -13.2240 O.2   346  ARG346     -0.2864
    121  CB        -4.0780   -7.4560  -11.8820 C.3   346  ARG346      0.0334
    122  CG        -4.1310   -6.3730  -10.7970 C.3   346  ARG346      0.0492
    123  CD        -5.4540   -5.5510  -10.8540 C.3   346  ARG346      0.2205
    124  NE        -6.6090   -6.3910  -10.3970 N.pl3 346  ARG346     -0.0865
    125  CZ        -6.8380   -6.7490   -9.1100 C.cat 346  ARG346      0.5346
    126  NH1       -6.0880   -6.3270   -8.1150 N.pl3 346  ARG346      0.1354
    127  NH2       -7.8940   -7.5050   -8.8180 N.pl3 346  ARG346      0.1354
    128  N         -1.8310  -13.4130  -13.4540 N.3   348  ASN348     -0.1240
    129  CA        -2.0410  -14.6290  -12.7560 C.3   348  ASN348      0.1653
    130  C         -0.7740  -15.4690  -12.6380 C.2   348  ASN348      0.2266
    131  O         -0.7000  -16.2390  -11.6470 O.2   348  ASN348     -0.2867
    132  CB        -3.0630  -15.4670  -13.4720 C.3   348  ASN348      0.1155
    133  CG        -4.4030  -14.7120  -13.5710 C.2   348  ASN348      0.2627
    134  OD1       -4.7880  -14.3590  -14.6640 O.2   348  ASN348     -0.2716
    135  ND2       -5.0860  -14.5000  -12.4510 N.am  348  ASN348     -0.0877
    136  N         -1.3840   -7.6910  -23.2870 N.3   378  CYS378     -0.1221
    137  CA        -2.2590   -6.9720  -22.3800 C.3   378  CYS378      0.1808
    138  C         -1.8860   -5.5040  -22.4760 C.2   378  CYS378      0.2602
    139  O         -0.7410   -5.1420  -22.2580 O.2   378  CYS378     -0.2717
    140  CB        -2.0300   -7.4720  -20.9650 C.3   378  CYS378      0.0970
    141  SG        -2.9240   -6.5290  -19.7260 S.3   378  CYS378     -0.0800
    142  N         -2.8770   -4.6820  -22.7910 N.am  379  SER379     -0.1938
    143  CA        -2.6690   -3.2580  -22.9900 C.3   379  SER379      0.2055
    144  C         -3.1500   -2.5500  -21.7240 C.2   379  SER379      0.2643
    145  O         -4.2540   -2.8030  -21.1990 O.2   379  SER379     -0.2714
    146  CB        -3.3930   -2.7600  -24.2460 C.3   379  SER379      0.2130
    147  OG        -4.6350   -3.4040  -24.3880 O.3   379  SER379     -0.2179
    148  N         -2.2850   -1.6770  -21.2250 N.am  380  ARG380     -0.1963
    149  CA        -2.4530   -1.1530  -19.8540 C.3   380  ARG380      0.1729
    150  C         -3.2340    0.1600  -19.7520 C.2   380  ARG380      0.2616
    151  O         -3.2330    0.9970  -20.6830 O.2   380  ARG380     -0.2715
    152  CB        -1.1150   -1.0290  -19.1210 C.3   380  ARG380      0.0348
    153  CG        -0.1840   -2.2450  -19.1960 C.3   380  ARG380      0.0492
    154  CD        -0.9130   -3.5930  -19.0980 C.3   380  ARG380      0.2205
    155  NE        -1.6250   -3.7930  -17.8360 N.pl3 380  ARG380     -0.0865
    156  CZ        -1.5280   -4.8780  -17.0240 C.cat 380  ARG380      0.5346
    157  NH1       -2.2770   -4.9150  -15.9340 N.pl3 380  ARG380      0.1354
    158  NH2       -0.7000   -5.9250  -17.2750 N.pl3 380  ARG380      0.1354
    159  N         -3.8110    0.3330  -18.5620 N.am  381  CYS381     -0.1968
    160  CA        -4.7530    1.4020  -18.2110 C.3   381  CYS381      0.1712
    161  C         -4.3690    2.0000  -16.8260 C.2   381  CYS381      0.2296
    162  O         -3.4050    1.5320  -16.1700 O.2   381  CYS381     -0.2864
    163  CB        -6.1880    0.8230  -18.1730 C.3   381  CYS381      0.0983
    164  SG        -6.6500   -0.0600  -16.6370 S.3   381  CYS381     -0.0798
    165  N         -5.4910    1.4210  -13.9920 N.3   383  LEU383     -0.1231
    166  CA        -5.5350    0.5400  -12.7910 C.3   383  LEU383      0.1693
    167  C         -4.1050    0.2010  -12.2800 C.2   383  LEU383      0.2592
    168  O         -3.8820   -0.0190  -11.0710 O.2   383  LEU383     -0.2718
    169  CB        -6.4890   -0.6900  -12.9370 C.3   383  LEU383      0.0284
    170  CG        -7.9810   -0.2560  -13.0180 C.3   383  LEU383      0.0019
    171  CD1       -9.0800   -1.2660  -12.5780 C.3   383  LEU383      0.0001
    172  CD2       -8.1110    1.0280  -12.2090 C.3   383  LEU383      0.0001
    173  N         -3.1280    0.2630  -13.1810 N.am  384  THR384     -0.1953
    174  CA        -1.7490    0.0420  -12.8100 C.3   384  THR384      0.1897
    175  C         -1.1990    1.1280  -11.8860 C.2   384  THR384      0.2313
    176  O         -0.1660    0.9410  -11.2800 O.2   384  THR384     -0.2863
    177  CB        -0.8430   -0.0110  -14.0430 C.3   384  THR384      0.1794
    178  OG1       -0.9630    1.2110  -14.7670 O.3   384  THR384     -0.2208
    179  CG2       -1.2720   -1.1410  -14.9400 C.3   384  THR384      0.0378
    180  N         -1.9120  -12.1590  -22.7530 N.3   425  TYR425     -0.1241
    181  CA        -3.0580  -12.9820  -22.5090 C.3   425  TYR425      0.1605
    182  C         -2.9280  -14.3650  -23.1060 C.2   425  TYR425      0.2264
    183  O         -2.6120  -14.5460  -24.3150 O.2   425  TYR425     -0.2867
    184  CB        -4.2860  -12.3420  -23.1480 C.3   425  TYR425      0.0534
    185  CG        -4.7800  -11.0880  -22.4360 C.ar  425  TYR425     -0.0201
    186  CD1       -4.7220  -10.9820  -21.0830 C.ar  425  TYR425     -0.0009
    187  CD2       -5.4070  -10.0260  -23.1800 C.ar  425  TYR425     -0.0009
    188  CE1       -5.1740   -9.8500  -20.4310 C.ar  425  TYR425      0.0417
    189  CE2       -5.8700   -8.8920  -22.5360 C.ar  425  TYR425      0.0417
    190  CZ        -5.7640   -8.7980  -21.1850 C.ar  425  TYR425      0.1957
    191  OH        -6.2590   -7.6710  -20.4910 O.3   425  TYR425     -0.2866
@<TRIPOS>BOND
     1   147   146    1
     2   183   182    2
     3   146   143    1
     4    73    71    1
     5   136   137    1
     6   187   189   ar
     7   187   185   ar
     8   184   181    1
     9   184   185    1
    10   182   181    1
    11   143   142    1
    12   143   144    1
    13   142   138   am
    14   180   181    1
    15   189   190   ar
    16   138   137    1
    17   138   139    2
    18   185   186   ar
    19   137   140    1
    20    70    69    2
    21    71    72    1
    22    71    68    1
    23   144   148   am
    24   144   145    2
    25    69    68    1
    26    69    74   am
    27    68    67    1
    28    79    78    1
    29   148   149    1
    30   190   191    1
    31   190   188   ar
    32    86    85    2
    33    86    80    1
    34    78    75    1
    35   186   188   ar
    36   140   141    1
    37    75    74    1
    38    75    76    1
    39    85    84    1
    40   151   150    2
    41    62    61    2
    42    67    61   am
    43    80    76   am
    44    80    81    1
    45   149   150    1
    46   149   152    1
    47   150   159   am
    48    76    77    2
    49    61    60    1
    50    90    89    2
    51    84    81    1
    52   153   152    1
    53   153   154    1
    54   154   155    1
    55   104   103    1
    56    93    95   ar
    57    93    92   ar
    58    81    82    1
    59    87    88    1
    60    87    82   am
    61   159   160    1
    62    89    88    1
    63    89    98   am
    64    95    97   ar
    65    63    60    1
    66    63    64    1
    67    60    59    1
    68    91    88    1
    69    91    92    1
    70   160   163    1
    71   160   161    1
    72   163   164    1
    73    82    83    2
    74    99    98    1
    75    99   100    1
    76    99   102    1
    77    92    94   ar
    78   155   156    2
    79    56    55    2
    80   100   101    2
    81   103   102    1
    82   103   105    1
    83   158   156    1
    84    64    66   ar
    85    64    65   ar
    86    59    55   am
    87    97    96   ar
    88   156   157    1
    89    55    54    1
    90   161   162    2
    91    94    96   ar
    92    51    50    1
    93    57    54    1
    94    57    58    1
    95    49    50    2
    96    49    48    1
    97    54    53    1
    98    50    52    1
    99    48    47    1
   100   179   177    1
   101   112   114   ar
   102   112   111   ar
   103   114   116   ar
   104   178   177    1
   105     9     8    1
   106   134   133    2
   107   109   108    2
   108    47    46    1
   109   110   111    1
   110   110   107    1
   111   111   113   ar
   112   177   174    1
   113     8     7    1
   114   165   166    1
   115   116   115   ar
   116   133   132    1
   117   133   135   am
   118   132   129    1
   119   128   129    1
   120    46    43    1
   121   108   107    1
   122   108   117   am
   123   120   119    2
   124   107   106    1
   125   173   174    1
   126   173   167   am
   127    33    32    1
   128   113   115   ar
   129    23    21   ar
   130   170   169    1
   131   170   171    1
   132   170   172    1
   133   169   166    1
   134   174   175    1
   135   166   167    1
   136    34    32    1
   137   129   130    1
   138    32    31    2
   139     7     6    1
   140    41    39    1
   141   119   118    1
   142   130   131    2
   143    40    39    1
   144   167   168    2
   145    31    30    1
   146    30    29    1
   147    19    18    2
   148   117   118    1
   149    28    29    1
   150    28    25    1
   151    27    26    2
   152    39    36    1
   153   175   176    2
   154    21    20    1
   155    21    22   ar
   156   121   118    1
   157   121   122    1
   158    43    42    1
   159    43    44    1
   160    20    17    1
   161     6     5    1
   162    18    17    1
   163    18    24   am
   164    44    45    2
   165    26    25    1
   166   123   122    1
   167   123   124    1
   168    25    24    1
   169    17    16    1
   170     5     2    1
   171    36    35    1
   172    36    37    1
   173   124   125    2
   174    15    14    1
   175    37    38    2
   176     2     3    1
   177     2     1    1
   178    10     3   am
   179    10    11    1
   180   125   127    1
   181   125   126    1
   182    14    11    1
   183     3     4    2
   184    11    12    1
   185    12    13    2
