@<TRIPOS>MOLECULE
tmp/6fw2A01.pdb
 145 138 0 0 0
SMALL
GASTEIGER

@<TRIPOS>ATOM
      1  N         -5.9160    8.9240   12.9360 N.3    88  GLU88      -0.1301
      2  CA        -5.2660   10.2310   12.8180 C.3    88  GLU88       0.1252
      3  C         -6.1950   11.2400   12.1730 C.3    88  GLU88       0.2009
      4  O         -5.9650   12.5060   12.3050 O.3    88  GLU88      -0.2188
      5  CB        -3.9410   10.1370   12.0240 C.3    88  GLU88       0.0335
      6  CG        -2.8950    9.3010   12.8340 C.3    88  GLU88       0.1156
      7  CD        -2.1450   10.0810   13.8640 C.2    88  GLU88       0.3649
      8  OE1       -2.0890   11.3080   13.6940 O.co2  88  GLU88      -0.2457
      9  OE2       -1.5590    9.4830   14.7750 O.co2  88  GLU88      -0.2457
     10  N         -3.6320   22.9600   11.1530 N.3    95  TYR95      -0.1241
     11  CA        -4.3430   23.0660   12.4220 C.3    95  TYR95       0.1605
     12  C         -3.3580   22.8350   13.5130 C.2    95  TYR95       0.2264
     13  O         -2.2040   22.3870   13.2660 O.2    95  TYR95      -0.2867
     14  CB        -5.5150   22.0450   12.5020 C.3    95  TYR95       0.0534
     15  CG        -5.0480   20.5760   12.5340 C.ar   95  TYR95      -0.0201
     16  CD1       -4.6930   19.8990   11.3480 C.ar   95  TYR95      -0.0009
     17  CD2       -5.0050   19.8400   13.7370 C.ar   95  TYR95      -0.0009
     18  CE1       -4.2420   18.5820   11.3790 C.ar   95  TYR95       0.0417
     19  CE2       -4.5300   18.5220   13.7580 C.ar   95  TYR95       0.0417
     20  CZ        -4.1670   17.9190   12.5770 C.ar   95  TYR95       0.1957
     21  OH        -3.7580   16.5720   12.5460 O.3    95  TYR95      -0.2866
     22  N         -2.2760   20.5660   16.7340 N.3    97  ASP97      -0.1225
     23  CA        -2.5810   19.2390   17.3220 C.3    97  ASP97       0.1805
     24  C         -2.9140   19.4420   18.8130 C.2    97  ASP97       0.2598
     25  O         -3.1390   20.5900   19.2660 O.2    97  ASP97      -0.2718
     26  CB        -1.4230   18.1980   17.1810 C.3    97  ASP97       0.1424
     27  CG        -0.1280   18.6000   17.9040 C.2    97  ASP97       0.3668
     28  OD1       -0.1260   19.4720   18.8060 O.co2  97  ASP97      -0.2456
     29  OD2        0.9470   17.9810   17.6160 O.co2  97  ASP97      -0.2456
     30  N         -2.9690   18.3650   19.5930 N.am   98  THR98      -0.1939
     31  CA        -3.5570   18.5260   20.9180 C.3    98  THR98       0.2028
     32  C         -2.5100   19.0860   21.8450 C.2    98  THR98       0.2642
     33  O         -2.8560   19.5760   22.9220 O.2    98  THR98      -0.2714
     34  CB        -4.1010   17.1970   21.4820 C.3    98  THR98       0.1808
     35  OG1       -3.0280   16.2690   21.4100 O.3    98  THR98      -0.2208
     36  CG2       -5.2670   16.6860   20.6610 C.3    98  THR98       0.0379
     37  N         -1.2450   19.0740   21.4090 N.am   99  GLU99      -0.1976
     38  CA        -0.1540   19.7510   22.1190 C.3    99  GLU99       0.1602
     39  C          0.1710   21.1570   21.5850 C.2    99  GLU99       0.2287
     40  O          1.1770   21.7340   21.9530 O.2    99  GLU99      -0.2864
     41  CB         1.1060   18.9320   22.0470 C.3    99  GLU99       0.0415
     42  CG         0.9040   17.6110   22.7210 C.3    99  GLU99       0.1163
     43  CD         2.0180   16.6890   22.3950 C.2    99  GLU99       0.3649
     44  OE1        1.8320   15.9080   21.4190 O.co2  99  GLU99      -0.2457
     45  OE2        3.0550   16.8020   23.0830 O.co2  99  GLU99      -0.2457
     46  N          0.2720   21.3070   12.3750 N.3   103  THR103     -0.1218
     47  CA         0.1310   19.9490   11.7720 C.3   103  THR103      0.1862
     48  C         -0.7580   20.0780   10.5620 C.2   103  THR103      0.2287
     49  O         -1.5810   21.0230   10.4590 O.2   103  THR103     -0.2866
     50  CB        -0.6220   19.0890   12.8590 C.3   103  THR103      0.1770
     51  OG1        0.1480   19.1280   14.0740 O.3   103  THR103     -0.2211
     52  CG2       -0.7620   17.6190   12.4520 C.3   103  THR103      0.0375
     53  N         -2.1940   13.7050   10.4350 N.3   107  GLY107     -0.1210
     54  CA        -1.2690   13.6920   11.5760 C.3   107  GLY107      0.1956
     55  C          0.1780   14.1260   11.2420 C.2   107  GLY107      0.2612
     56  O          1.1230   13.7690   11.9710 O.2   107  GLY107     -0.2717
     57  N          0.3420   14.9260   10.1840 N.am  108  HIS108     -0.1961
     58  CA         1.7350   15.2830    9.8090 C.3   108  HIS108      0.1787
     59  C          2.1820   16.5520   10.5790 C.2   108  HIS108      0.2620
     60  O          1.7600   17.6790   10.3040 O.2   108  HIS108     -0.2715
     61  CB         1.8460   15.5370    8.2870 C.3   108  HIS108      0.0785
     62  CG         3.2330   15.9040    7.8840 C.ar  108  HIS108      0.0821
     63  ND1        4.2040   14.9520    7.6860 N.ar  108  HIS108     -0.2267
     64  CD2        3.8260   17.1180    7.6790 C.ar  108  HIS108      0.1154
     65  CE1        5.3530   15.5500    7.3860 C.ar  108  HIS108      0.1986
     66  NE2        5.1680   16.8620    7.4610 N.ar  108  HIS108     -0.2212
     67  N          3.0530   16.3640   11.5340 N.am  109  LEU109     -0.1977
     68  CA         3.5930   17.5270   12.3070 C.3   109  LEU109      0.1596
     69  C          4.4820   18.3930   11.3820 C.2   109  LEU109      0.2287
     70  O          5.3710   17.8710   10.7340 O.2   109  LEU109     -0.2864
     71  CB         4.4610   17.0410   13.4120 C.3   109  LEU109      0.0297
     72  CG         5.3130   18.0680   14.2280 C.3   109  LEU109      0.0022
     73  CD1        4.3480   18.8830   14.9820 C.3   109  LEU109      0.0001
     74  CD2        6.0340   17.2330   15.2510 C.3   109  LEU109      0.0001
     75  N          5.5050    9.2870    5.8610 N.3   147  ASP147     -0.1239
     76  CA         5.5340    9.2280    7.2970 C.3   147  ASP147      0.1674
     77  C          5.4530    7.7710    7.8110 C.2   147  ASP147      0.2266
     78  O          6.1810    7.4230    8.7700 O.2   147  ASP147     -0.2867
     79  CB         4.4020   10.0780    7.8990 C.3   147  ASP147      0.1410
     80  CG         4.6310   11.5790    7.7100 C.2   147  ASP147      0.3668
     81  OD1        5.8210   11.9470    7.3120 O.co2 147  ASP147     -0.2456
     82  OD2        3.6840   12.3700    7.9630 O.co2 147  ASP147     -0.2456
     83  N          8.7770    6.0540    7.0490 N.3   150  ALA150     -0.1231
     84  CA         9.7510    6.5170    7.9860 C.3   150  ALA150      0.1694
     85  C          9.5770    5.8860    9.3730 C.2   150  ALA150      0.2591
     86  O         10.6010    5.5670   10.0740 O.2   150  ALA150     -0.2718
     87  CB         9.6940    8.0260    8.1210 C.3   150  ALA150      0.0304
     88  N          8.3230    5.6810    9.8130 N.am  151  ALA151     -0.1980
     89  CA         8.1160    5.0550   11.1540 C.3   151  ALA151      0.1597
     90  C          8.6450    3.5890   11.1260 C.2   151  ALA151      0.2287
     91  O          9.2550    3.1500   12.1010 O.2   151  ALA151     -0.2864
     92  CB         6.6390    5.0680   11.5350 C.3   151  ALA151      0.0319
     93  N          4.3200    4.0320   17.3110 N.3   180  VAL180     -0.1231
     94  CA         5.4830    4.8130   16.9180 C.3   180  VAL180      0.1692
     95  C          5.0970    6.0150   16.0880 C.2   180  VAL180      0.2592
     96  O          5.6980    7.0940   16.2160 O.2   180  VAL180     -0.2718
     97  CB         6.4680    3.9150   16.1100 C.3   180  VAL180      0.0266
     98  CG1        7.6140    4.7610   15.4830 C.3   180  VAL180      0.0020
     99  CG2        7.0280    2.8690   17.0520 C.3   180  VAL180      0.0020
    100  N          4.1020    5.8700   15.2200 N.am  181  PHE181     -0.1962
    101  CA         3.6290    7.0130   14.4460 C.3   181  PHE181      0.1771
    102  C          3.0760    8.1070   15.3680 C.2   181  PHE181      0.2619
    103  O          3.3620    9.2720   15.1530 O.2   181  PHE181     -0.2715
    104  CB         2.5580    6.5420   13.4710 C.3   181  PHE181      0.0574
    105  CG         2.1770    7.5450   12.4080 C.ar  181  PHE181     -0.0200
    106  CD1        1.2490    8.5280   12.7040 C.ar  181  PHE181     -0.0042
    107  CD2        2.6390    7.4360   11.1530 C.ar  181  PHE181     -0.0042
    108  CE1        0.8720    9.4340   11.7740 C.ar  181  PHE181     -0.0003
    109  CE2        2.2280    8.3300   10.1600 C.ar  181  PHE181     -0.0003
    110  CZ         1.3310    9.3350   10.4660 C.ar  181  PHE181     -0.0000
    111  N          2.3400    7.7520   16.3820 N.am  182  GLN182     -0.1963
    112  CA         1.7260    8.7170   17.2650 C.3   182  GLN182      0.1733
    113  C          2.7780    9.4180   18.1550 C.2   182  GLN182      0.2616
    114  O          2.7480   10.6330   18.2970 O.2   182  GLN182     -0.2715
    115  CB         0.6870    8.0140   18.1690 C.3   182  GLN182      0.0408
    116  CG        -0.0210    8.9950   19.1270 C.3   182  GLN182      0.0908
    117  CD        -1.0230    8.3400   20.0210 C.2   182  GLN182      0.2608
    118  OE1       -1.2340    7.1460   20.0410 O.2   182  GLN182     -0.2717
    119  NE2       -1.7240    9.1940   20.8250 N.am  182  GLN182     -0.0878
    120  N          3.6610    8.6580   18.7780 N.am  183  MET183     -0.1977
    121  CA         4.4260    9.1870   19.9050 C.3   183  MET183      0.1605
    122  C          5.9250    9.1570   19.6350 C.2   183  MET183      0.2287
    123  O          6.7290    9.6920   20.4210 O.2   183  MET183     -0.2864
    124  CB         4.0120    8.4590   21.2160 C.3   183  MET183      0.0413
    125  CG         4.6320    7.1400   21.4780 C.3   183  MET183      0.0598
    126  SD         3.9260    6.3360   22.9400 S.3   183  MET183     -0.1393
    127  CE         2.3690    5.8400   22.3130 C.3   183  MET183      0.0692
    128  N         -4.9620    9.7200   25.4100 N.3   219  THR219     -0.1218
    129  CA        -5.8590    9.3780   24.2630 C.3   219  THR219      0.1862
    130  C         -6.3980    8.0110   24.5060 C.2   219  THR219      0.2287
    131  O         -5.9510    7.0050   23.8650 O.2   219  THR219     -0.2866
    132  CB        -5.0820    9.4080   22.8730 C.3   219  THR219      0.1770
    133  OG1       -4.0010    8.4790   22.9320 O.3   219  THR219     -0.2211
    134  CG2       -4.5620   10.7600   22.5500 C.3   219  THR219      0.0375
    135  N         -8.3020    6.0280   21.4710 N.3   222  ARG222     -0.1301
    136  CA        -7.3260    5.4870   20.4820 C.3   222  ARG222      0.1248
    137  C         -6.4910    4.3630   21.1210 C.3   222  ARG222      0.2009
    138  O         -6.2170    3.2760   20.4920 O.3   222  ARG222     -0.2188
    139  CB        -6.4890    6.5860   20.0000 C.3   222  ARG222      0.0254
    140  CG        -5.5850    6.0820   18.8310 C.3   222  ARG222      0.0485
    141  CD        -4.3510    6.8340   18.7690 C.3   222  ARG222      0.2205
    142  NE        -3.4390    6.4040   17.6900 N.pl3 222  ARG222     -0.0865
    143  CZ        -2.8630    7.3120   16.9130 C.cat 222  ARG222      0.5346
    144  NH1       -3.2440    8.5950   17.1010 N.pl3 222  ARG222      0.1354
    145  NH2       -1.9960    6.9700   15.9400 N.pl3 222  ARG222      0.1354
@<TRIPOS>BOND
     1    75    76    1
     2    83    84    1
     3    76    77    1
     4    76    79    1
     5    81    80   ar
     6    65    66   ar
     7    65    63   ar
     8    66    64   ar
     9    64    62   ar
    10    63    62   ar
    11    80    79    1
    12    80    82   ar
    13    77    78    2
    14    62    61    1
    15    84    87    1
    16    84    85    1
    17    61    58    1
    18    85    88   am
    19    85    86    2
    20    58    57    1
    21    58    59    1
    22    88    89    1
    23   109   110   ar
    24   109   107   ar
    25    57    55   am
    26    60    59    2
    27    53    54    1
    28    49    48    2
    29   110   108   ar
    30    48    47    1
    31    59    67   am
    32    70    69    2
    33    90    89    1
    34    90    91    2
    35   107   105   ar
    36    10    11    1
    37    89    92    1
    38    55    54    1
    39    55    56    2
    40    16    18   ar
    41    16    15   ar
    42    18    20   ar
    43    69    68    1
    44    67    68    1
    45    47    46    1
    46    47    50    1
    47   108   106   ar
    48     5     2    1
    49     5     6    1
    50     3     4    1
    51     3     2    1
    52    68    71    1
    53   105   106   ar
    54   105   104    1
    55    11    14    1
    56    11    12    1
    57    52    50    1
    58    14    15    1
    59    15    17   ar
    60    21    20    1
    61    20    19   ar
    62     2     1    1
    63     6     7    1
    64    50    51    1
    65    13    12    2
    66    71    72    1
    67   104   101    1
    68     8     7   ar
    69    17    19   ar
    70     7     9   ar
    71    72    73    1
    72    72    74    1
    73   101   100    1
    74   101   102    1
    75   103   102    2
    76   100    95   am
    77   102   111   am
    78    98    97    1
    79   145   143    1
    80    95    96    2
    81    95    94    1
    82    97    94    1
    83    97    99    1
    84   111   112    1
    85    22    23    1
    86   143   144    1
    87   143   142    2
    88    94    93    1
    89    26    23    1
    90    26    27    1
    91   112   113    1
    92   112   115    1
    93    23    24    1
    94    29    27   ar
    95   142   141    1
    96    27    28   ar
    97   113   114    2
    98   113   120   am
    99   115   116    1
   100   141   140    1
   101   120   121    1
   102    24    25    2
   103    24    30   am
   104   140   139    1
   105   116   117    1
   106    30    31    1
   107   122   121    1
   108   122   123    2
   109   121   124    1
   110   139   136    1
   111   117   118    2
   112   117   119   am
   113   136   137    1
   114   136   135    1
   115   138   137    1
   116    36    34    1
   117    31    34    1
   118    31    32    1
   119   124   125    1
   120    37    32   am
   121    37    38    1
   122    35    34    1
   123    44    43   ar
   124   125   126    1
   125    39    40    2
   126    39    38    1
   127    32    33    2
   128    41    38    1
   129    41    42    1
   130   127   126    1
   131    43    42    1
   132    43    45   ar
   133   134   132    1
   134   132   133    1
   135   132   129    1
   136   131   130    2
   137   129   130    1
   138   129   128    1
