@<TRIPOS>MOLECULE
tmp/6fw7A01.pdb
 150 142 0 0 0
SMALL
GASTEIGER

@<TRIPOS>ATOM
      1  N         39.3750   34.8900  -15.8900 N.3    61  ALA61      -0.1231
      2  CA        40.1540   35.5010  -16.9390 C.3    61  ALA61       0.1694
      3  C         40.1570   36.9800  -16.7820 C.2    61  ALA61       0.2593
      4  O         39.1870   37.5410  -16.3500 O.2    61  ALA61      -0.2718
      5  CB        39.5590   35.1440  -18.2590 C.3    61  ALA61       0.0304
      6  N         41.2870   37.6130  -17.0340 N.am   62  GLY62      -0.1942
      7  CA        41.3560   39.0460  -16.9080 C.3    62  GLY62       0.2014
      8  C         41.9460   39.8810  -18.0090 C.2    62  GLY62       0.2638
      9  O         41.8050   41.0810  -17.9920 O.2    62  GLY62      -0.2714
     10  N         42.6340   39.2580  -18.9460 N.am   63  ARG63      -0.1977
     11  CA        43.2400   40.0110  -20.0090 C.3    63  ARG63       0.1597
     12  C         43.4550   39.2390  -21.2700 C.2    63  ARG63       0.2287
     13  O         43.5000   38.0420  -21.2730 O.2    63  ARG63      -0.2864
     14  CB        44.5700   40.5660  -19.5550 C.3    63  ARG63       0.0334
     15  CG        45.6010   39.5230  -19.2360 C.3    63  ARG63       0.0492
     16  CD        45.8700   39.4370  -17.7600 C.3    63  ARG63       0.2205
     17  NE        46.4790   38.1730  -17.3950 N.pl3  63  ARG63      -0.0865
     18  CZ        47.3050   38.0060  -16.3760 C.cat  63  ARG63       0.5346
     19  NH1       47.6420   39.0340  -15.6300 N.pl3  63  ARG63       0.1354
     20  NH2       47.8030   36.8160  -16.1210 N.pl3  63  ARG63       0.1354
     21  N         55.2930   32.8500  -11.1940 N.3   142  TYR142     -0.1241
     22  CA        54.4500   31.7050  -11.4990 C.3   142  TYR142      0.1605
     23  C         55.1590   30.4440  -11.0320 C.2   142  TYR142      0.2264
     24  O         56.2580   30.1370  -11.5050 O.2   142  TYR142     -0.2867
     25  CB        54.1360   31.6480  -12.9930 C.3   142  TYR142      0.0534
     26  CG        53.2510   32.7800  -13.4730 C.ar  142  TYR142     -0.0201
     27  CD1       53.7610   34.0540  -13.6810 C.ar  142  TYR142     -0.0009
     28  CD2       51.9020   32.5650  -13.7150 C.ar  142  TYR142     -0.0009
     29  CE1       52.9510   35.0770  -14.1120 C.ar  142  TYR142      0.0417
     30  CE2       51.0780   33.5800  -14.1490 C.ar  142  TYR142      0.0417
     31  CZ        51.5990   34.8350  -14.3480 C.ar  142  TYR142      0.1957
     32  OH        50.7460   35.8370  -14.7780 O.3   142  TYR142     -0.2866
     33  N         54.1360   27.5380  -11.5660 N.3   144  ALA144     -0.1245
     34  CA        53.9650   26.5240  -12.5980 C.3   144  ALA144      0.1562
     35  C         55.2940   26.0330  -13.1540 C.2   144  ALA144      0.2260
     36  O         55.3370   24.9570  -13.7610 O.2   144  ALA144     -0.2867
     37  CB        53.1050   27.0940  -13.7280 C.3   144  ALA144      0.0290
     38  N         55.8350   19.8370  -16.8680 N.3   150  ILE150     -0.1245
     39  CA        56.2180   20.9190  -17.7680 C.3   150  ILE150      0.1561
     40  C         57.7160   20.8500  -18.0170 C.2   150  ILE150      0.2260
     41  O         58.5080   20.5010  -17.1300 O.2   150  ILE150     -0.2867
     42  CB        55.8120   22.3100  -17.2410 C.3   150  ILE150      0.0252
     43  CG1       56.6200   22.6970  -15.9980 C.3   150  ILE150      0.0019
     44  CG2       54.3120   22.3770  -16.9840 C.3   150  ILE150      0.0019
     45  CD1       57.7820   23.6330  -16.2880 C.3   150  ILE150      0.0001
     46  N         55.6270   30.0220  -21.6720 N.3   158  ILE158     -0.1245
     47  CA        54.8300   30.6440  -20.6210 C.3   158  ILE158      0.1561
     48  C         55.4190   31.9870  -20.2050 C.2   158  ILE158      0.2260
     49  O         54.6800   32.9140  -19.8530 O.2   158  ILE158     -0.2867
     50  CB        54.6620   29.6940  -19.4150 C.3   158  ILE158      0.0252
     51  CG1       53.8470   28.4530  -19.8040 C.3   158  ILE158      0.0019
     52  CG2       54.0390   30.4100  -18.2040 C.3   158  ILE158      0.0019
     53  CD1       54.5840   27.1490  -19.6560 C.3   158  ILE158      0.0001
     54  N         52.9290   35.8610  -20.9800 N.3   162  HIS162     -0.1241
     55  CA        52.2750   36.4000  -19.7820 C.3   162  HIS162      0.1621
     56  C         52.6950   37.8410  -19.5240 C.2   162  HIS162      0.2264
     57  O         53.8980   38.1340  -19.4700 O.2   162  HIS162     -0.2867
     58  CB        52.5800   35.5540  -18.5530 C.3   162  HIS162      0.0745
     59  CG        51.7170   34.3420  -18.4520 C.ar  162  HIS162      0.0817
     60  ND1       52.1470   33.0900  -18.8300 N.ar  162  HIS162     -0.2268
     61  CD2       50.4260   34.2000  -18.0710 C.ar  162  HIS162      0.1154
     62  CE1       51.1680   32.2210  -18.6570 C.ar  162  HIS162      0.1986
     63  NE2       50.1130   32.8700  -18.1990 N.ar  162  HIS162     -0.2212
     64  N         46.5730   22.6380  -13.1100 N.3   264  LEU264     -0.1245
     65  CA        47.1780   23.3700  -12.0140 C.3   264  LEU264      0.1561
     66  C         46.1310   24.2220  -11.3150 C.2   264  LEU264      0.2260
     67  O         45.2950   24.8440  -11.9790 O.2   264  LEU264     -0.2867
     68  CB        48.3010   24.2870  -12.5010 C.3   264  LEU264      0.0270
     69  CG        49.3850   23.6290  -13.3520 C.3   264  LEU264      0.0019
     70  CD1       50.2910   24.7090  -13.8560 C.3   264  LEU264      0.0001
     71  CD2       50.1910   22.5800  -12.5830 C.3   264  LEU264      0.0001
     72  N         44.7290   27.5060   -9.2480 N.3   266  LEU266     -0.1245
     73  CA        45.0020   28.9310   -9.1250 C.3   266  LEU266      0.1561
     74  C         44.1690   29.5120   -7.9960 C.2   266  LEU266      0.2260
     75  O         43.1340   28.9610   -7.6160 O.2   266  LEU266     -0.2867
     76  CB        44.6880   29.7030  -10.4090 C.3   266  LEU266      0.0270
     77  CG        45.0540   29.0570  -11.7370 C.3   266  LEU266      0.0019
     78  CD1       44.5440   29.9170  -12.8630 C.3   266  LEU266      0.0001
     79  CD2       46.5350   28.9200  -11.8390 C.3   266  LEU266      0.0001
     80  N         43.0170   33.5650   -6.3570 N.3   268  LYS268     -0.1245
     81  CA        43.0990   35.0220   -6.3230 C.3   268  LYS268      0.1561
     82  C         42.3300   35.5710   -5.1310 C.2   268  LYS268      0.2260
     83  O         41.2030   35.1430   -4.8660 O.2   268  LYS268     -0.2867
     84  CB        42.5140   35.6730   -7.5750 C.3   268  LYS268      0.0271
     85  CG        42.9490   35.1430   -8.9130 C.3   268  LYS268      0.0035
     86  CD        42.7160   36.2640   -9.9410 C.3   268  LYS268      0.0206
     87  CE        42.6870   35.8060  -11.4020 C.3   268  LYS268      0.1093
     88  NZ        42.3360   36.9710  -12.2920 N.3   268  LYS268     -0.1314
     89  N         47.6530   36.8200   -6.6440 N.3   308  TYR308     -0.1241
     90  CA        47.4030   35.7620   -7.6140 C.3   308  TYR308      0.1605
     91  C         48.5250   34.7580   -7.4420 C.2   308  TYR308      0.2264
     92  O         49.6840   35.1530   -7.5230 O.2   308  TYR308     -0.2867
     93  CB        47.3900   36.3690   -9.0190 C.3   308  TYR308      0.0534
     94  CG        47.1000   35.4660  -10.2100 C.ar  308  TYR308     -0.0201
     95  CD1       46.8430   34.1120  -10.0640 C.ar  308  TYR308     -0.0009
     96  CD2       47.1430   35.9830  -11.5050 C.ar  308  TYR308     -0.0009
     97  CE1       46.5900   33.3190  -11.1600 C.ar  308  TYR308      0.0417
     98  CE2       46.8970   35.1960  -12.6000 C.ar  308  TYR308      0.0417
     99  CZ        46.6200   33.8670  -12.4260 C.ar  308  TYR308      0.1957
    100  OH        46.3760   33.0890  -13.5230 O.3   308  TYR308     -0.2866
    101  N         49.6220   30.2170   -7.7960 N.3   310  ASP310     -0.1239
    102  CA        49.3130   28.9540   -8.4410 C.3   310  ASP310      0.1674
    103  C         50.0640   27.7910   -7.8710 C.2   310  ASP310      0.2266
    104  O         50.8680   27.9460   -6.9970 O.2   310  ASP310     -0.2867
    105  CB        49.4940   28.9920   -9.9430 C.3   310  ASP310      0.1410
    106  CG        50.7200   29.7020  -10.3610 C.2   310  ASP310      0.3668
    107  OD1       50.7270   30.9320  -10.3350 O.co2 310  ASP310     -0.2456
    108  OD2       51.6650   29.0330  -10.7750 O.co2 310  ASP310     -0.2456
    109  N         43.7970   25.7650  -14.6050 N.3   362  VAL362     -0.1245
    110  CA        44.2980   25.7010  -15.9700 C.3   362  VAL362      0.1561
    111  C         44.5350   24.2490  -16.3370 C.2   362  VAL362      0.2260
    112  O         45.2050   23.5220  -15.5980 O.2   362  VAL362     -0.2867
    113  CB        45.5890   26.5170  -16.1270 C.3   362  VAL362      0.0252
    114  CG1       46.4220   25.9600  -17.2370 C.3   362  VAL362      0.0019
    115  CG2       45.2440   27.9700  -16.3890 C.3   362  VAL362      0.0019
    116  N         45.8510   21.5380  -19.4450 N.3   364  PHE364     -0.1241
    117  CA        46.7940   21.5290  -20.5580 C.3   364  PHE364      0.1605
    118  C         47.0350   20.0960  -21.0230 C.2   364  PHE364      0.2264
    119  O         46.5410   19.1270  -20.4320 O.2   364  PHE364     -0.2867
    120  CB        48.1230   22.1700  -20.1530 C.3   364  PHE364      0.0534
    121  CG        48.8350   21.4020  -19.0930 C.ar  364  PHE364     -0.0203
    122  CD1       49.7460   20.4200  -19.4260 C.ar  364  PHE364     -0.0042
    123  CD2       48.5780   21.6500  -17.7570 C.ar  364  PHE364     -0.0042
    124  CE1       50.3920   19.6990  -18.4470 C.ar  364  PHE364     -0.0003
    125  CE2       49.2260   20.9390  -16.7670 C.ar  364  PHE364     -0.0003
    126  CZ        50.1330   19.9620  -17.1110 C.ar  364  PHE364     -0.0000
    127  N         46.4070   25.9710  -25.1530 N.3   391  CYS391     -0.1221
    128  CA        45.8560   25.3480  -23.9530 C.3   391  CYS391      0.1808
    129  C         46.0150   26.2970  -22.7670 C.2   391  CYS391      0.2602
    130  O         47.1330   26.5920  -22.3500 O.2   391  CYS391     -0.2717
    131  CB        46.5190   23.9840  -23.6710 C.3   391  CYS391      0.0970
    132  SG        48.3200   23.8060  -23.9770 S.3   391  CYS391     -0.0800
    133  N         44.9110   26.8190  -22.2470 N.am  392  GLY392     -0.1942
    134  CA        44.9500   27.6980  -21.0890 C.3   392  GLY392      0.2014
    135  C         44.5010   29.1240  -21.3400 C.2   392  GLY392      0.2638
    136  O         44.5470   29.9390  -20.4080 O.2   392  GLY392     -0.2714
    137  N         44.0650   29.4790  -22.5460 N.am  393  TRP393     -0.1973
    138  CA        43.5780   30.8180  -22.8640 C.3   393  TRP393      0.1640
    139  C         42.1650   30.7520  -23.4420 C.2   393  TRP393      0.2290
    140  O         41.7090   29.7090  -23.9250 O.2   393  TRP393     -0.2864
    141  CB        44.5310   31.5200  -23.8500 C.3   393  TRP393      0.0576
    142  CG        45.9170   31.7300  -23.3140 C.ar  393  TRP393      0.0006
    143  CD1       46.9860   30.8750  -23.4170 C.ar  393  TRP393      0.0946
    144  CD2       46.3990   32.8970  -22.6380 C.ar  393  TRP393      0.0152
    145  NE1       48.0860   31.4320  -22.8120 N.ar  393  TRP393     -0.2442
    146  CE2       47.7520   32.6710  -22.3270 C.ar  393  TRP393      0.0810
    147  CE3       45.8120   34.1030  -22.2470 C.ar  393  TRP393      0.0012
    148  CZ2       48.5230   33.6100  -21.6410 C.ar  393  TRP393      0.0191
    149  CZ3       46.5820   35.0360  -21.5680 C.ar  393  TRP393      0.0001
    150  CH2       47.9150   34.7870  -21.2740 C.ar  393  TRP393      0.0015
@<TRIPOS>BOND
     1   127   128    1
     2   132   131    1
     3   128   131    1
     4   128   129    1
     5   140   139    2
     6   141   142    1
     7   141   138    1
     8   139   138    1
     9   143   142   ar
    10   143   145   ar
    11   142   144   ar
    12   138   137    1
    13   145   146   ar
    14   129   130    2
    15   129   133   am
    16   144   146   ar
    17   144   147   ar
    18   137   135   am
    19   146   148   ar
    20   133   134    1
    21   147   149   ar
    22    46    47    1
    23   148   150   ar
    24   149   150   ar
    25   135   134    1
    26   135   136    2
    27    13    12    2
    28    12    11    1
    29   118   117    1
    30   118   119    2
    31    54    55    1
    32    47    48    1
    33    47    50    1
    34   117   120    1
    35   117   116    1
    36    48    49    2
    37   120   121    1
    38    11    14    1
    39    11    10    1
    40    51    53    1
    41    51    50    1
    42    55    56    1
    43    55    58    1
    44    14    15    1
    45    56    57    2
    46   122   121   ar
    47   122   124   ar
    48    50    52    1
    49    15    16    1
    50   121   123   ar
    51    10     8   am
    52    60    62   ar
    53    60    59   ar
    54    62    63   ar
    55    58    59    1
    56    59    61   ar
    57   124   126   ar
    58     5     2    1
    59    63    61   ar
    60    40    39    1
    61    40    41    2
    62     8     9    2
    63     8     7    1
    64    39    42    1
    65    39    38    1
    66    16    17    1
    67   123   125   ar
    68    17    18    2
    69    42    44    1
    70    42    43    1
    71   114   113    1
    72   126   125   ar
    73     6     7    1
    74     6     3   am
    75     2     3    1
    76     2     1    1
    77     3     4    2
    78   115   113    1
    79    18    20    1
    80    18    19    1
    81   111   110    1
    82   111   112    2
    83    45    43    1
    84   113   110    1
    85   110   109    1
    86    32    31    1
    87    31    30   ar
    88    31    29   ar
    89    30    28   ar
    90    29    27   ar
    91    70    69    1
    92    36    35    2
    93    37    34    1
    94    28    26   ar
    95    27    26   ar
    96   100    99    1
    97    26    25    1
    98    69    71    1
    99    69    68    1
   100    35    34    1
   101    64    65    1
   102    25    22    1
   103    78    77    1
   104    98    99   ar
   105    98    96   ar
   106    34    33    1
   107    68    65    1
   108    99    97   ar
   109    88    87    1
   110    65    66    1
   111    67    66    2
   112    79    77    1
   113    77    76    1
   114    96    94   ar
   115    24    23    2
   116    22    21    1
   117    22    23    1
   118    87    86    1
   119    97    95   ar
   120   108   106   ar
   121    76    73    1
   122   106   107   ar
   123   106   105    1
   124    94    95   ar
   125    94    93    1
   126   105   102    1
   127    86    85    1
   128    72    73    1
   129    73    74    1
   130    93    90    1
   131    85    84    1
   132   102   103    1
   133   102   101    1
   134    74    75    2
   135   103   104    2
   136    90    91    1
   137    90    89    1
   138    84    81    1
   139    92    91    2
   140    80    81    1
   141    81    82    1
   142    82    83    2
