@<TRIPOS>MOLECULE
tmp/6fw8B01.pdb
 150 142 0 0 0
SMALL
GASTEIGER

@<TRIPOS>ATOM
      1  N         10.3530   26.4780    6.1410 N.3    61  ALA61      -0.1231
      2  CA         9.4330   26.6370    7.2720 C.3    61  ALA61       0.1694
      3  C          8.8750   28.0480    7.3480 C.2    61  ALA61       0.2593
      4  O          9.6230   29.0220    7.2870 O.2    61  ALA61      -0.2718
      5  CB        10.1430   26.3030    8.5910 C.3    61  ALA61       0.0304
      6  N          7.5620   28.1560    7.5350 N.am   62  GLY62      -0.1942
      7  CA         6.9580   29.4690    7.6500 C.3    62  GLY62       0.2014
      8  C          6.0400   29.7830    8.8240 C.2    62  GLY62       0.2638
      9  O          5.7500   30.9650    9.0520 O.2    62  GLY62      -0.2714
     10  N          5.5410   28.7920    9.5650 N.am   63  ARG63      -0.1977
     11  CA         4.5820   29.1040   10.6270 C.3    63  ARG63       0.1597
     12  C          4.8180   28.2350   11.8650 C.2    63  ARG63       0.2287
     13  O          5.4490   27.1740   11.8040 O.2    63  ARG63      -0.2864
     14  CB         3.1280   28.9640   10.1270 C.3    63  ARG63       0.0334
     15  CG         2.7560   27.5830    9.6250 C.3    63  ARG63       0.0492
     16  CD         2.7790   27.4560    8.0460 C.3    63  ARG63       0.2205
     17  NE         2.5840   26.0550    7.6580 N.pl3  63  ARG63      -0.0865
     18  CZ         1.5100   25.5950    7.0220 C.cat  63  ARG63       0.5346
     19  NH1        0.5480   26.4330    6.6650 N.pl3  63  ARG63       0.1354
     20  NH2        1.4050   24.3040    6.7310 N.pl3  63  ARG63       0.1354
     21  N         -3.3980   18.0130    1.2400 N.3   142  TYR142     -0.1241
     22  CA        -2.0940   17.4080    1.5090 C.3   142  TYR142      0.1605
     23  C         -2.0860   16.0090    0.8940 C.2   142  TYR142      0.2264
     24  O         -2.6510   15.0670    1.4620 O.2   142  TYR142     -0.2867
     25  CB        -1.8100   17.3540    3.0030 C.3   142  TYR142      0.0534
     26  CG        -1.5220   18.7040    3.6410 C.ar  142  TYR142     -0.0201
     27  CD1       -2.5540   19.4930    4.1680 C.ar  142  TYR142     -0.0009
     28  CD2       -0.2150   19.1730    3.7520 C.ar  142  TYR142     -0.0009
     29  CE1       -2.2910   20.7220    4.7600 C.ar  142  TYR142      0.0417
     30  CE2        0.0640   20.3970    4.3510 C.ar  142  TYR142      0.0417
     31  CZ        -0.9750   21.1630    4.8530 C.ar  142  TYR142      0.1957
     32  OH        -0.6770   22.3710    5.4370 O.3   142  TYR142     -0.2866
     33  N          0.1350   13.7500    0.7240 N.3   144  ALA144     -0.1245
     34  CA         0.7330   12.6690    1.5010 C.3   144  ALA144      0.1562
     35  C         -0.3170   11.8240    2.2270 C.2   144  ALA144      0.2260
     36  O         -0.0360   10.6730    2.5790 O.2   144  ALA144     -0.2867
     37  CB         1.7380   13.2450    2.4980 C.3   144  ALA144      0.0290
     38  N          1.3560    5.9740    5.1570 N.3   150  ILE150     -0.1245
     39  CA         0.7610    6.9630    6.0490 C.3   150  ILE150      0.1561
     40  C         -0.4690    6.2970    6.6480 C.2   150  ILE150      0.2260
     41  O         -1.5100    6.1580    5.9940 O.2   150  ILE150     -0.2867
     42  CB         0.4070    8.2650    5.3260 C.3   150  ILE150      0.0252
     43  CG1        1.6670    8.9900    4.8590 C.3   150  ILE150      0.0019
     44  CG2       -0.3510    9.1780    6.2470 C.3   150  ILE150      0.0019
     45  CD1        2.5320    9.4960    5.9900 C.3   150  ILE150      0.0001
     46  N         -1.5680   14.3390   11.6260 N.3   158  ILE158     -0.1245
     47  CA        -1.1710   15.2750   10.5690 C.3   158  ILE158      0.1561
     48  C         -2.2530   16.3360   10.3560 C.2   158  ILE158      0.2260
     49  O         -1.9700   17.5400   10.2860 O.2   158  ILE158     -0.2867
     50  CB        -0.8430   14.5280    9.2550 C.3   158  ILE158      0.0252
     51  CG1        0.5290   13.8280    9.2780 C.3   158  ILE158      0.0019
     52  CG2       -0.8590   15.4760    8.0780 C.3   158  ILE158      0.0019
     53  CD1        0.7380   12.7200   10.3060 C.3   158  ILE158      0.0001
     54  N         -2.0890   20.9160   11.2610 N.3   162  HIS162     -0.1241
     55  CA        -1.8590   21.8550   10.1690 C.3   162  HIS162      0.1621
     56  C         -2.9370   22.9270   10.1340 C.2   162  HIS162      0.2264
     57  O         -4.1320   22.6150   10.1740 O.2   162  HIS162     -0.2867
     58  CB        -1.7820   21.1400    8.8160 C.3   162  HIS162      0.0745
     59  CG        -0.4930   20.4250    8.6250 C.ar  162  HIS162      0.0817
     60  ND1       -0.2940   19.1360    9.0660 N.ar  162  HIS162     -0.2268
     61  CD2        0.6950   20.8450    8.1310 C.ar  162  HIS162      0.1154
     62  CE1        0.9500   18.7750    8.8110 C.ar  162  HIS162      0.1986
     63  NE2        1.5690   19.7920    8.2380 N.ar  162  HIS162     -0.2212
     64  N          8.9240   12.9040    2.1630 N.3   264  LEU264     -0.1245
     65  CA         8.1100   13.4970    1.1110 C.3   264  LEU264      0.1561
     66  C          8.8090   14.7030    0.5200 C.2   264  LEU264      0.2260
     67  O          9.4090   15.4860    1.2630 O.2   264  LEU264     -0.2867
     68  CB         6.7520   13.9730    1.6400 C.3   264  LEU264      0.0270
     69  CG         6.1140   13.0470    2.6450 C.3   264  LEU264      0.0019
     70  CD1        5.0720   13.8060    3.4450 C.3   264  LEU264      0.0001
     71  CD2        5.4810   11.9030    1.8800 C.3   264  LEU264      0.0001
     72  N          8.4690   18.5330   -1.0980 N.3   266  LEU266     -0.1245
     73  CA         7.5970   19.6910   -1.0050 C.3   266  LEU266      0.1561
     74  C          7.9840   20.6780   -2.0910 C.2   266  LEU266      0.2260
     75  O          9.1380   20.7330   -2.5160 O.2   266  LEU266     -0.2867
     76  CB         7.6810   20.3800    0.3800 C.3   266  LEU266      0.0270
     77  CG         7.4380   19.4990    1.6200 C.3   266  LEU266      0.0019
     78  CD1        7.6980   20.1930    2.9890 C.3   266  LEU266      0.0001
     79  CD2        6.0470   18.9740    1.5620 C.3   266  LEU266      0.0001
     80  N          7.0570   24.8850   -3.2030 N.3   268  LYS268     -0.1245
     81  CA         6.3560   26.1450   -3.0140 C.3   268  LYS268      0.1561
     82  C          6.6870   27.0690   -4.1760 C.2   268  LYS268      0.2260
     83  O          7.8310   27.1110   -4.6410 O.2   268  LYS268     -0.2867
     84  CB         6.7410   26.8370   -1.7020 C.3   268  LYS268      0.0271
     85  CG         6.1620   26.2630   -0.4120 C.3   268  LYS268      0.0035
     86  CD         6.6400   27.1450    0.7510 C.3   268  LYS268      0.0206
     87  CE         6.0410   26.7990    2.1080 C.3   268  LYS268      0.1093
     88  NZ         6.5770   27.7470    3.1590 N.3   268  LYS268     -0.1314
     89  N          1.3670   25.6750   -2.5200 N.3   308  TYR308     -0.1241
     90  CA         2.1450   24.7590   -1.6900 C.3   308  TYR308      0.1605
     91  C          1.6490   23.3420   -1.9210 C.2   308  TYR308      0.2264
     92  O          0.4600   23.0760   -1.7370 O.2   308  TYR308     -0.2867
     93  CB         2.0030   25.1680   -0.2250 C.3   308  TYR308      0.0534
     94  CG         2.7820   24.3420    0.7700 C.ar  308  TYR308     -0.0201
     95  CD1        3.9720   23.7060    0.4240 C.ar  308  TYR308     -0.0009
     96  CD2        2.3050   24.1810    2.0610 C.ar  308  TYR308     -0.0009
     97  CE1        4.6570   22.9590    1.3470 C.ar  308  TYR308      0.0417
     98  CE2        2.9820   23.4490    2.9840 C.ar  308  TYR308      0.0417
     99  CZ         4.1570   22.8400    2.6330 C.ar  308  TYR308      0.1957
    100  OH         4.8180   22.1010    3.5910 O.3   308  TYR308     -0.2866
    101  N          2.8480   18.8200   -2.1620 N.3   310  ASP310     -0.1239
    102  CA         3.7500   17.8040   -1.6340 C.3   310  ASP310      0.1674
    103  C          3.5670   16.5120   -2.4080 C.2   310  ASP310      0.2266
    104  O          2.6500   16.3710   -3.2150 O.2   310  ASP310     -0.2867
    105  CB         3.5150   17.5420   -0.1440 C.3   310  ASP310      0.1410
    106  CG         2.0680   17.1500    0.1660 C.2   310  ASP310      0.3668
    107  OD1        1.1990   18.0470    0.2550 O.co2 310  ASP310     -0.2456
    108  OD2        1.7980   15.9440    0.3330 O.co2 310  ASP310     -0.2456
    109  N          9.8490   16.8880    4.1670 N.3   362  VAL362     -0.1245
    110  CA         9.5160   16.3110    5.4610 C.3   362  VAL362      0.1561
    111  C         10.2200   14.9720    5.5570 C.2   362  VAL362      0.2260
    112  O         10.1600   14.1650    4.6200 O.2   362  VAL362     -0.2867
    113  CB         8.0020   16.1040    5.6410 C.3   362  VAL362      0.0252
    114  CG1        7.7000   15.8940    7.1010 C.3   362  VAL362      0.0019
    115  CG2        7.2050   17.2410    5.0630 C.3   362  VAL362      0.0019
    116  N         10.3560   11.6690    8.2930 N.3   364  PHE364     -0.1241
    117  CA         9.5600   11.1210    9.3780 C.3   364  PHE364      0.1605
    118  C          9.9670    9.6770    9.6260 C.2   364  PHE364      0.2264
    119  O         10.4280    8.9820    8.7140 O.2   364  PHE364     -0.2867
    120  CB         8.0590   11.1940    9.0550 C.3   364  PHE364      0.0534
    121  CG         7.6910   10.5260    7.7630 C.ar  364  PHE364     -0.0203
    122  CD1        7.8760   11.1760    6.5460 C.ar  364  PHE364     -0.0042
    123  CD2        7.1680    9.2410    7.7540 C.ar  364  PHE364     -0.0042
    124  CE1        7.5470   10.5480    5.3310 C.ar  364  PHE364     -0.0003
    125  CE2        6.8340    8.6100    6.5480 C.ar  364  PHE364     -0.0003
    126  CZ         7.0250    9.2660    5.3360 C.ar  364  PHE364     -0.0000
    127  N          8.2340   15.1710   14.2670 N.3   394  CYS394     -0.1221
    128  CA         8.8230   15.0420   12.9440 C.3   394  CYS394      0.1808
    129  C          8.0810   15.9440   11.9700 C.2   394  CYS394      0.2602
    130  O          6.8470   16.0160   11.9890 O.2   394  CYS394     -0.2717
    131  CB         8.8120   13.5860   12.4620 C.3   394  CYS394      0.0970
    132  SG         7.2560   12.7100   12.5210 S.3   394  CYS394     -0.0800
    133  N          8.8560   16.6780   11.1650 N.am  395  GLY395     -0.1942
    134  CA         8.3380   17.6440   10.2210 C.3   395  GLY395      0.2014
    135  C          8.1520   19.0480   10.7530 C.2   395  GLY395      0.2638
    136  O          7.5550   19.8830   10.0530 O.2   395  GLY395     -0.2714
    137  N          8.6350   19.3390   11.9670 N.am  396  TRP396     -0.1973
    138  CA         8.4560   20.6450   12.5860 C.3   396  TRP396      0.1640
    139  C          9.7640   21.1270   13.2040 C.2   396  TRP396      0.2290
    140  O         10.5760   20.3300   13.6910 O.2   396  TRP396     -0.2864
    141  CB         7.3340   20.6030   13.6640 C.3   396  TRP396      0.0576
    142  CG         5.9840   20.2380   13.0990 C.ar  396  TRP396      0.0006
    143  CD1        5.4020   18.9930   13.0780 C.ar  396  TRP396      0.0946
    144  CD2        5.0580   21.1210   12.4530 C.ar  396  TRP396      0.0152
    145  NE1        4.1670   19.0540   12.4570 N.ar  396  TRP396     -0.2442
    146  CE2        3.9330   20.3490   12.0740 C.ar  396  TRP396      0.0810
    147  CE3        5.0660   22.4890   12.1680 C.ar  396  TRP396      0.0012
    148  CZ2        2.8340   20.9030   11.4240 C.ar  396  TRP396      0.0191
    149  CZ3        3.9740   23.0420   11.5230 C.ar  396  TRP396      0.0001
    150  CH2        2.8660   22.2490   11.1600 C.ar  396  TRP396      0.0015
@<TRIPOS>BOND
     1    83    82    2
     2    82    81    1
     3   104   103    2
     4    80    81    1
     5    81    84    1
     6    89    90    1
     7    75    74    2
     8   103   102    1
     9   101   102    1
    10    74    73    1
    11    91    92    2
    12    91    90    1
    13    84    85    1
    14    90    93    1
    15   102   105    1
    16    72    73    1
    17    73    76    1
    18    85    86    1
    19    93    94    1
    20   105   106    1
    21   106   107   ar
    22   106   108   ar
    23    76    77    1
    24    95    94   ar
    25    95    97   ar
    26    66    65    1
    27    66    67    2
    28    33    34    1
    29    86    87    1
    30    94    96   ar
    31    23    24    2
    32    23    22    1
    33    65    68    1
    34    65    64    1
    35    21    22    1
    36    97    99   ar
    37    34    35    1
    38    34    37    1
    39    22    25    1
    40    79    77    1
    41    77    78    1
    42    68    69    1
    43    71    69    1
    44    96    98   ar
    45    87    88    1
    46    35    36    2
    47    99    98   ar
    48    99   100    1
    49    69    70    1
    50    25    26    1
    51    26    28   ar
    52    26    27   ar
    53    28    30   ar
    54   109   110    1
    55    27    29   ar
    56    30    31   ar
    57   112   111    2
    58    29    31   ar
    59    31    32    1
    60    43    42    1
    61    43    45    1
    62   115   113    1
    63    38    39    1
    64    42    39    1
    65    42    44    1
    66   124   126   ar
    67   124   122   ar
    68   126   125   ar
    69   110   111    1
    70   110   113    1
    71   113   114    1
    72    41    40    2
    73    39    40    1
    74     1     2    1
    75   122   121   ar
    76   125   123   ar
    77    19    18    1
    78    20    18    1
    79    18    17    2
    80     2     3    1
    81     2     5    1
    82     4     3    2
    83     3     6   am
    84     6     7    1
    85     7     8    1
    86    17    16    1
    87   123   121   ar
    88   121   120    1
    89    16    15    1
    90    52    50    1
    91    61    63   ar
    92    61    59   ar
    93    63    62   ar
    94   116   117    1
    95    59    58    1
    96    59    60   ar
    97   119   118    2
    98    62    60   ar
    99    58    55    1
   100     8     9    2
   101     8    10   am
   102   120   117    1
   103    50    51    1
   104    50    47    1
   105    51    53    1
   106   117   118    1
   107    10    11    1
   108    15    14    1
   109   136   135    2
   110    14    11    1
   111    56    55    1
   112    56    57    2
   113    55    54    1
   114   134   135    1
   115   134   133    1
   116    49    48    2
   117    48    47    1
   118    47    46    1
   119    11    12    1
   120   135   137   am
   121   150   148   ar
   122   150   149   ar
   123   133   129   am
   124   148   146   ar
   125   149   147   ar
   126    13    12    2
   127   137   138    1
   128   129   130    2
   129   129   128    1
   130   146   144   ar
   131   146   145   ar
   132   147   144   ar
   133   144   142   ar
   134   145   143   ar
   135   131   132    1
   136   131   128    1
   137   138   139    1
   138   138   141    1
   139   128   127    1
   140   143   142   ar
   141   142   141    1
   142   139   140    2
