@<TRIPOS>MOLECULE
tmp/6fw9A01.pdb
 121 115 0 0 0
SMALL
GASTEIGER

@<TRIPOS>ATOM
      1  N         42.5610   39.1070  -18.8680 N.3    63  ARG63      -0.1245
      2  CA        43.3060   39.9110  -19.8320 C.3    63  ARG63       0.1563
      3  C         43.4520   39.1420  -21.1320 C.2    63  ARG63       0.2260
      4  O         43.5420   37.9140  -21.1390 O.2    63  ARG63      -0.2867
      5  CB        44.6870   40.3020  -19.2970 C.3    63  ARG63       0.0307
      6  CG        45.5280   39.1020  -18.9530 C.3    63  ARG63       0.0489
      7  CD        45.8320   39.0770  -17.4820 C.3    63  ARG63       0.2205
      8  NE        46.5250   37.8600  -17.0690 N.pl3  63  ARG63      -0.0865
      9  CZ        47.5240   37.8670  -16.1940 C.cat  63  ARG63       0.5346
     10  NH1       48.1340   36.7410  -15.8480 N.pl3  63  ARG63       0.1354
     11  NH2       47.9390   39.0260  -15.6930 N.pl3  63  ARG63       0.1354
     12  N         55.2270   32.7510  -11.0290 N.3   142  TYR142     -0.1241
     13  CA        54.3380   31.6660  -11.4390 C.3   142  TYR142      0.1605
     14  C         54.9590   30.3420  -10.9990 C.2   142  TYR142      0.2264
     15  O         55.9440   29.8780  -11.5860 O.2   142  TYR142     -0.2867
     16  CB        54.1140   31.6920  -12.9470 C.3   142  TYR142      0.0534
     17  CG        53.2370   32.8050  -13.4390 C.ar  142  TYR142     -0.0201
     18  CD1       53.7280   34.0960  -13.5940 C.ar  142  TYR142     -0.0009
     19  CD2       51.9130   32.5600  -13.7710 C.ar  142  TYR142     -0.0009
     20  CE1       52.9120   35.1190  -14.0570 C.ar  142  TYR142      0.0417
     21  CE2       51.0870   33.5670  -14.2340 C.ar  142  TYR142      0.0417
     22  CZ        51.5850   34.8460  -14.3780 C.ar  142  TYR142      0.1957
     23  OH        50.7380   35.8410  -14.8390 O.3   142  TYR142     -0.2866
     24  N         54.1090   27.4010  -11.3050 N.3   144  ALA144     -0.1231
     25  CA        54.0000   26.2340  -12.1640 C.3   144  ALA144      0.1694
     26  C         55.3320   25.8680  -12.7980 C.2   144  ALA144      0.2591
     27  O         55.5180   24.7140  -13.1880 O.2   144  ALA144     -0.2718
     28  CB        52.9530   26.4760  -13.2450 C.3   144  ALA144      0.0304
     29  N         56.2620   26.8160  -12.8970 N.am  145  LEU145     -0.1980
     30  CA        57.5730   26.6420  -13.5130 C.3   145  LEU145      0.1596
     31  C         58.5570   25.7810  -12.6400 C.2   145  LEU145      0.2287
     32  O         59.7270   25.6010  -13.0160 O.2   145  LEU145     -0.2864
     33  CB        58.1620   28.0220  -13.8120 C.3   145  LEU145      0.0297
     34  CG        57.2670   28.9230  -14.6680 C.3   145  LEU145      0.0022
     35  CD1       57.7490   30.3690  -14.6720 C.3   145  LEU145      0.0001
     36  CD2       57.1860   28.3840  -16.0850 C.3   145  LEU145      0.0001
     37  N         55.5450   30.0300  -21.6700 N.3   158  ILE158     -0.1245
     38  CA        54.7300   30.6440  -20.6290 C.3   158  ILE158      0.1561
     39  C         55.2830   32.0110  -20.2520 C.2   158  ILE158      0.2260
     40  O         54.5220   32.9580  -20.0310 O.2   158  ILE158     -0.2867
     41  CB        54.6140   29.7130  -19.4070 C.3   158  ILE158      0.0252
     42  CG1       53.8160   28.4610  -19.7720 C.3   158  ILE158      0.0019
     43  CG2       54.0100   30.4420  -18.1810 C.3   158  ILE158      0.0019
     44  CD1       54.2990   27.2200  -19.0920 C.3   158  ILE158      0.0001
     45  N         52.8820   35.7870  -20.7920 N.3   162  HIS162     -0.1241
     46  CA        52.1990   36.4260  -19.6720 C.3   162  HIS162      0.1621
     47  C         52.6660   37.8640  -19.4650 C.2   162  HIS162      0.2264
     48  O         53.8680   38.1450  -19.4930 O.2   162  HIS162     -0.2867
     49  CB        52.3950   35.6200  -18.3840 C.3   162  HIS162      0.0745
     50  CG        51.5850   34.3630  -18.3550 C.ar  162  HIS162      0.0817
     51  ND1       52.0410   33.1730  -18.8780 N.ar  162  HIS162     -0.2268
     52  CD2       50.3270   34.1220  -17.9150 C.ar  162  HIS162      0.1154
     53  CE1       51.1100   32.2460  -18.7400 C.ar  162  HIS162      0.1986
     54  NE2       50.0620   32.7940  -18.1520 N.ar  162  HIS162     -0.2212
     55  N         46.5300   22.6950  -13.1010 N.3   264  LEU264     -0.1245
     56  CA        47.0670   23.4920  -12.0120 C.3   264  LEU264      0.1561
     57  C         45.9610   24.2320  -11.2900 C.2   264  LEU264      0.2260
     58  O         45.0390   24.7410  -11.9300 O.2   264  LEU264     -0.2867
     59  CB        48.0850   24.5190  -12.4980 C.3   264  LEU264      0.0270
     60  CG        49.0880   24.0800  -13.5320 C.3   264  LEU264      0.0019
     61  CD1       49.6690   25.3400  -14.1640 C.3   264  LEU264      0.0001
     62  CD2       50.1650   23.2160  -12.8700 C.3   264  LEU264      0.0001
     63  N         44.5530   27.4970   -9.1970 N.3   266  LEU266     -0.1245
     64  CA        44.8070   28.9270   -9.1670 C.3   266  LEU266      0.1561
     65  C         44.0630   29.5280   -7.9890 C.2   266  LEU266      0.2260
     66  O         43.0510   28.9900   -7.5260 O.2   266  LEU266     -0.2867
     67  CB        44.3480   29.6130  -10.4390 C.3   266  LEU266      0.0270
     68  CG        44.8850   28.9960  -11.7200 C.3   266  LEU266      0.0019
     69  CD1       44.4400   29.8010  -12.9050 C.3   266  LEU266      0.0001
     70  CD2       46.3690   28.9760  -11.6600 C.3   266  LEU266      0.0001
     71  N         47.5950   36.8720   -6.6570 N.3   308  TYR308     -0.1241
     72  CA        47.2870   35.8240   -7.6160 C.3   308  TYR308      0.1605
     73  C         48.4220   34.8150   -7.5710 C.2   308  TYR308      0.2264
     74  O         49.5600   35.1560   -7.8960 O.2   308  TYR308     -0.2867
     75  CB        47.1130   36.4450   -9.0190 C.3   308  TYR308      0.0534
     76  CG        46.8860   35.4980  -10.1930 C.ar  308  TYR308     -0.0201
     77  CD1       46.6660   34.1420  -10.0080 C.ar  308  TYR308     -0.0009
     78  CD2       46.9100   35.9820  -11.5040 C.ar  308  TYR308     -0.0009
     79  CE1       46.4660   33.3030  -11.0800 C.ar  308  TYR308      0.0417
     80  CE2       46.7090   35.1510  -12.5840 C.ar  308  TYR308      0.0417
     81  CZ        46.4920   33.8130  -12.3630 C.ar  308  TYR308      0.1957
     82  OH        46.2940   32.9720  -13.4270 O.3   308  TYR308     -0.2866
     83  N         49.4270   30.3060   -7.9230 N.3   310  ASP310     -0.1239
     84  CA        49.1150   29.0530   -8.5420 C.3   310  ASP310      0.1674
     85  C         49.8870   27.9210   -7.9430 C.2   310  ASP310      0.2266
     86  O         50.7790   28.1200   -7.1650 O.2   310  ASP310     -0.2867
     87  CB        49.3570   29.1010  -10.0300 C.3   310  ASP310      0.1410
     88  CG        50.6550   29.7110  -10.3810 C.2   310  ASP310      0.3668
     89  OD1       50.7300   30.9370  -10.4270 O.co2 310  ASP310     -0.2456
     90  OD2       51.5950   28.9720  -10.6550 O.co2 310  ASP310     -0.2456
     91  N         43.9440   25.8860  -14.7840 N.3   362  VAL362     -0.1245
     92  CA        44.4470   25.7030  -16.1340 C.3   362  VAL362      0.1561
     93  C         44.5090   24.2130  -16.4000 C.2   362  VAL362      0.2260
     94  O         44.9940   23.4510  -15.5600 O.2   362  VAL362     -0.2867
     95  CB        45.8290   26.3520  -16.3130 C.3   362  VAL362      0.0252
     96  CG1       46.4900   25.8310  -17.5740 C.3   362  VAL362      0.0019
     97  CG2       45.6900   27.8680  -16.3640 C.3   362  VAL362      0.0019
     98  N         46.4460   26.0690  -24.9750 N.3   392  CYS392     -0.1221
     99  CA        46.0880   25.4300  -23.7120 C.3   392  CYS392      0.1808
    100  C         46.0330   26.4850  -22.6090 C.2   392  CYS392      0.2602
    101  O         47.0680   27.0120  -22.2000 O.2   392  CYS392     -0.2717
    102  CB        47.0900   24.2910  -23.3790 C.3   392  CYS392      0.0970
    103  SG        46.9690   22.8090  -24.5350 S.3   392  CYS392     -0.0800
    104  N         44.8340   26.8530  -22.1750 N.am  393  GLY393     -0.1942
    105  CA        44.6450   27.6990  -21.0120 C.3   393  GLY393      0.2014
    106  C         44.3040   29.1640  -21.2520 C.2   393  GLY393      0.2638
    107  O         44.4960   29.9810  -20.3440 O.2   393  GLY393     -0.2714
    108  N         43.8370   29.5220  -22.4350 N.am  394  TRP394     -0.1973
    109  CA        43.4260   30.8850  -22.7390 C.3   394  TRP394      0.1640
    110  C         42.0210   30.8380  -23.3260 C.2   394  TRP394      0.2290
    111  O         41.5970   29.8160  -23.8690 O.2   394  TRP394     -0.2864
    112  CB        44.4100   31.5790  -23.7280 C.3   394  TRP394      0.0576
    113  CG        45.7840   31.7610  -23.1810 C.ar  394  TRP394      0.0006
    114  CD1       46.8300   30.8840  -23.2690 C.ar  394  TRP394      0.0946
    115  CD2       46.2590   32.8800  -22.4280 C.ar  394  TRP394      0.0152
    116  NE1       47.9240   31.3950  -22.6200 N.ar  394  TRP394     -0.2442
    117  CE2       47.6010   32.6200  -22.0970 C.ar  394  TRP394      0.0810
    118  CE3       45.6790   34.0850  -22.0050 C.ar  394  TRP394      0.0012
    119  CZ2       48.3730   33.5180  -21.3680 C.ar  394  TRP394      0.0191
    120  CZ3       46.4480   34.9760  -21.2760 C.ar  394  TRP394      0.0001
    121  CH2       47.7780   34.6880  -20.9640 C.ar  394  TRP394      0.0015
@<TRIPOS>BOND
     1    98    99    1
     2   103   102    1
     3   111   110    2
     4   112   113    1
     5   112   109    1
     6    99   102    1
     7    99   100    1
     8   110   109    1
     9   114   113   ar
    10   114   116   ar
    11   113   115   ar
    12   109   108    1
    13   116   117   ar
    14   100   101    2
    15   100   104   am
    16   108   106   am
    17   115   117   ar
    18   115   118   ar
    19   104   105    1
    20   117   119   ar
    21   118   120   ar
    22    37    38    1
    23   119   121   ar
    24   120   121   ar
    25   106   105    1
    26   106   107    2
    27     4     3    2
    28     3     2    1
    29    45    46    1
    30    38    39    1
    31    38    41    1
    32    39    40    2
    33     2     5    1
    34     2     1    1
    35    42    41    1
    36    42    44    1
    37    46    47    1
    38    46    49    1
    39    48    47    2
    40    41    43    1
    41     5     6    1
    42     6     7    1
    43    51    53   ar
    44    51    50   ar
    45    53    54   ar
    46    49    50    1
    47    50    52   ar
    48    54    52   ar
    49    96    95    1
    50     7     8    1
    51     8     9    2
    52    93    92    1
    53    93    94    2
    54    97    95    1
    55    95    92    1
    56     9    10    1
    57     9    11    1
    58    92    91    1
    59    36    34    1
    60    23    22    1
    61    35    34    1
    62    34    33    1
    63    22    21   ar
    64    22    20   ar
    65    21    19   ar
    66    61    60    1
    67    20    18   ar
    68    33    30    1
    69    19    17   ar
    70    18    17   ar
    71    60    62    1
    72    60    59    1
    73    30    29    1
    74    30    31    1
    75    17    16    1
    76    82    81    1
    77    28    25    1
    78    27    26    2
    79    55    56    1
    80    32    31    2
    81    16    13    1
    82    69    68    1
    83    29    26   am
    84    26    25    1
    85    80    81   ar
    86    80    78   ar
    87    59    56    1
    88    81    79   ar
    89    25    24    1
    90    56    57    1
    91    58    57    2
    92    68    70    1
    93    68    67    1
    94    15    14    2
    95    78    76   ar
    96    13    12    1
    97    13    14    1
    98    79    77   ar
    99    90    88   ar
   100    67    64    1
   101    89    88   ar
   102    88    87    1
   103    76    77   ar
   104    76    75    1
   105    87    84    1
   106    63    64    1
   107    64    65    1
   108    75    72    1
   109    84    85    1
   110    84    83    1
   111    65    66    2
   112    85    86    2
   113    74    73    2
   114    72    73    1
   115    72    71    1
