@<TRIPOS>MOLECULE
tmp/6fwaA01.pdb
 149 141 0 0 0
SMALL
GASTEIGER

@<TRIPOS>ATOM
      1  N         42.5810   38.6050  -19.0760 N.3    63  ARG63      -0.1245
      2  CA        43.4740   39.2810  -20.0140 C.3    63  ARG63       0.1563
      3  C         43.4890   38.5990  -21.3700 C.2    63  ARG63       0.2260
      4  O         43.3600   37.3750  -21.4730 O.2    63  ARG63      -0.2867
      5  CB        44.9050   39.2690  -19.5290 C.3    63  ARG63       0.0307
      6  CG        45.0570   39.6180  -18.1440 C.3    63  ARG63       0.0489
      7  CD        46.4080   39.2410  -17.7300 C.3    63  ARG63       0.2205
      8  NE        46.6040   37.8250  -17.5260 N.pl3  63  ARG63      -0.0865
      9  CZ        47.4250   37.3650  -16.5880 C.cat  63  ARG63       0.5346
     10  NH1       47.5820   36.0760  -16.4340 N.pl3  63  ARG63       0.1354
     11  NH2       48.0910   38.2100  -15.7980 N.pl3  63  ARG63       0.1354
     12  N         55.3010   32.4690  -11.1360 N.3   142  TYR142     -0.1241
     13  CA        54.4410   31.3050  -11.3090 C.3   142  TYR142      0.1605
     14  C         55.1710   30.0730  -10.7770 C.2   142  TYR142      0.2264
     15  O         56.1910   29.6520  -11.3280 O.2   142  TYR142     -0.2867
     16  CB        54.0180   31.1220  -12.7700 C.3   142  TYR142      0.0534
     17  CG        53.2360   32.2870  -13.3780 C.ar  142  TYR142     -0.0201
     18  CD1       53.8180   33.5490  -13.5280 C.ar  142  TYR142     -0.0009
     19  CD2       51.9160   32.1250  -13.8020 C.ar  142  TYR142     -0.0009
     20  CE1       53.1110   34.6140  -14.0950 C.ar  142  TYR142      0.0417
     21  CE2       51.2010   33.1850  -14.3710 C.ar  142  TYR142      0.0417
     22  CZ        51.8050   34.4230  -14.5110 C.ar  142  TYR142      0.1957
     23  OH        51.1150   35.4800  -15.0630 O.3   142  TYR142     -0.2866
     24  N         54.1280   27.3230  -11.2040 N.3   144  ALA144     -0.1231
     25  CA        53.8390   26.2800  -12.1850 C.3   144  ALA144      0.1694
     26  C         55.1110   25.7550  -12.8370 C.2   144  ALA144      0.2591
     27  O         55.1410   24.6090  -13.3020 O.2   144  ALA144     -0.2718
     28  CB        52.8880   26.8210  -13.2540 C.3   144  ALA144      0.0304
     29  N         56.1610   26.5800  -12.8760 N.am  145  LEU145     -0.1980
     30  CA        57.4170   26.2990  -13.5540 C.3   145  LEU145      0.1596
     31  C         58.3750   25.4510  -12.7150 C.2   145  LEU145      0.2287
     32  O         59.5490   25.3290  -13.0750 O.2   145  LEU145     -0.2864
     33  CB        58.0790   27.6210  -13.9540 C.3   145  LEU145      0.0297
     34  CG        57.2350   28.5060  -14.8850 C.3   145  LEU145      0.0022
     35  CD1       57.5000   29.9850  -14.6560 C.3   145  LEU145      0.0001
     36  CD2       57.5050   28.1560  -16.3290 C.3   145  LEU145      0.0001
     37  N         55.9740   19.1900  -16.9520 N.3   150  ILE150     -0.1245
     38  CA        56.0420   19.9650  -18.1850 C.3   150  ILE150      0.1561
     39  C         57.3560   20.7310  -18.2570 C.2   150  ILE150      0.2260
     40  O         57.9060   21.1660  -17.2390 O.2   150  ILE150     -0.2867
     41  CB        54.8260   20.9050  -18.3420 C.3   150  ILE150      0.0252
     42  CG1       54.6940   21.4060  -19.7950 C.3   150  ILE150      0.0019
     43  CG2       54.8970   22.0790  -17.3790 C.3   150  ILE150      0.0019
     44  CD1       53.6470   22.5070  -19.9760 C.3   150  ILE150      0.0001
     45  N         55.7970   29.6130  -22.1310 N.3   158  ILE158     -0.1245
     46  CA        54.9490   30.1530  -21.0530 C.3   158  ILE158      0.1561
     47  C         55.4460   31.4430  -20.3950 C.2   158  ILE158      0.2260
     48  O         54.6370   32.2580  -19.9360 O.2   158  ILE158     -0.2867
     49  CB        54.6980   29.0670  -19.9880 C.3   158  ILE158      0.0252
     50  CG1       54.1150   27.8090  -20.6450 C.3   158  ILE158      0.0019
     51  CG2       53.7440   29.5440  -18.9120 C.3   158  ILE158      0.0019
     52  CD1       53.4860   26.8240  -19.7070 C.3   158  ILE158      0.0001
     53  N         52.7950   36.0160  -20.6440 N.3   162  HIS162     -0.1241
     54  CA        52.0950   36.4320  -19.4450 C.3   162  HIS162      0.1621
     55  C         52.5490   37.8510  -19.1820 C.2   162  HIS162      0.2264
     56  O         53.7500   38.0700  -18.9320 O.2   162  HIS162     -0.2867
     57  CB        52.3680   35.4830  -18.2910 C.3   162  HIS162      0.0745
     58  CG        51.7330   34.1450  -18.4660 C.ar  162  HIS162      0.0817
     59  ND1       52.3550   33.1110  -19.1250 N.ar  162  HIS162     -0.2268
     60  CD2       50.5150   33.6840  -18.0970 C.ar  162  HIS162      0.1154
     61  CE1       51.5600   32.0560  -19.1250 C.ar  162  HIS162      0.1986
     62  NE2       50.4400   32.3750  -18.5040 N.ar  162  HIS162     -0.2212
     63  N         46.4030   22.3050  -13.2320 N.3   264  LEU264     -0.1245
     64  CA        46.9750   23.0410  -12.1110 C.3   264  LEU264      0.1561
     65  C         45.9050   23.8170  -11.3760 C.2   264  LEU264      0.2260
     66  O         45.1760   24.5860  -12.0140 O.2   264  LEU264     -0.2867
     67  CB        48.0290   24.0310  -12.5910 C.3   264  LEU264      0.0270
     68  CG        49.2470   23.5330  -13.3330 C.3   264  LEU264      0.0019
     69  CD1       49.8150   24.7210  -14.0900 C.3   264  LEU264      0.0001
     70  CD2       50.2490   22.9900  -12.3480 C.3   264  LEU264      0.0001
     71  N         44.4940   26.9820   -9.2680 N.3   266  LEU266     -0.1245
     72  CA        44.8000   28.4050   -9.1140 C.3   266  LEU266      0.1561
     73  C         43.9960   29.0380   -7.9780 C.2   266  LEU266      0.2260
     74  O         43.0250   28.4680   -7.4670 O.2   266  LEU266     -0.2867
     75  CB        44.5630   29.1840  -10.4050 C.3   266  LEU266      0.0270
     76  CG        45.1510   28.4450  -11.6160 C.3   266  LEU266      0.0019
     77  CD1       44.6860   28.9370  -12.9910 C.3   266  LEU266      0.0001
     78  CD2       46.6460   28.5600  -11.4910 C.3   266  LEU266      0.0001
     79  N         52.3410   37.0270   -6.3870 N.3   296  LYS296     -0.1245
     80  CA        52.1390   38.2040   -7.2330 C.3   296  LYS296      0.1561
     81  C         51.0780   39.0950   -6.6080 C.2   296  LYS296      0.2260
     82  O         49.9890   38.6160   -6.2780 O.2   296  LYS296     -0.2867
     83  CB        51.7110   37.8310   -8.6670 C.3   296  LYS296      0.0271
     84  CG        52.3730   36.6050   -9.2690 C.3   296  LYS296      0.0035
     85  CD        51.7820   36.2920  -10.6260 C.3   296  LYS296      0.0206
     86  CE        51.8230   34.8040  -10.9340 C.3   296  LYS296      0.1093
     87  NZ        50.8650   34.0180  -10.1170 N.3   296  LYS296     -0.1314
     88  N         47.5350   36.7750   -7.0130 N.3   308  TYR308     -0.1241
     89  CA        47.3130   35.6190   -7.8610 C.3   308  TYR308      0.1605
     90  C         48.3860   34.5890   -7.5420 C.2   308  TYR308      0.2264
     91  O         49.5500   34.9390   -7.3510 O.2   308  TYR308     -0.2867
     92  CB        47.3340   36.0540   -9.3540 C.3   308  TYR308      0.0534
     93  CG        47.0070   35.0200  -10.4200 C.ar  308  TYR308     -0.0201
     94  CD1       46.5230   33.7630  -10.1020 C.ar  308  TYR308     -0.0009
     95  CD2       47.2150   35.3130  -11.7740 C.ar  308  TYR308     -0.0009
     96  CE1       46.2410   32.8310  -11.1010 C.ar  308  TYR308      0.0417
     97  CE2       46.9400   34.3920  -12.7650 C.ar  308  TYR308      0.0417
     98  CZ        46.4540   33.1560  -12.4210 C.ar  308  TYR308      0.1957
     99  OH        46.1880   32.2390  -13.3980 O.3   308  TYR308     -0.2866
    100  N         49.3820   30.0820   -7.9330 N.3   310  ASP310     -0.1239
    101  CA        49.1840   28.8970   -8.7170 C.3   310  ASP310      0.1674
    102  C         49.7880   27.6940   -8.1060 C.2   310  ASP310      0.2266
    103  O         50.5690   27.7750   -7.1950 O.2   310  ASP310     -0.2867
    104  CB        49.8730   29.0720  -10.0410 C.3   310  ASP310      0.1410
    105  CG        51.3000   29.4130   -9.8740 C.2   310  ASP310      0.3668
    106  OD1       51.6070   30.0720   -8.8720 O.co2 310  ASP310     -0.2456
    107  OD2       52.1140   29.0150  -10.7170 O.co2 310  ASP310     -0.2456
    108  N         43.6180   25.3240  -14.9160 N.3   362  VAL362     -0.1245
    109  CA        44.1030   25.2520  -16.2890 C.3   362  VAL362      0.1561
    110  C         44.4280   23.8040  -16.5770 C.2   362  VAL362      0.2260
    111  O         45.1600   23.1670  -15.8180 O.2   362  VAL362     -0.2867
    112  CB        45.3340   26.1440  -16.5740 C.3   362  VAL362      0.0252
    113  CG1       44.9130   27.6050  -16.8200 C.3   362  VAL362      0.0019
    114  CG2       46.3710   26.0260  -15.4820 C.3   362  VAL362      0.0019
    115  N         45.8900   21.2020  -19.6230 N.3   364  PHE364     -0.1241
    116  CA        46.8120   21.3490  -20.7400 C.3   364  PHE364      0.1605
    117  C         47.0420   20.0130  -21.4300 C.2   364  PHE364      0.2264
    118  O         46.9900   18.9510  -20.8010 O.2   364  PHE364     -0.2867
    119  CB        48.1540   21.9290  -20.2790 C.3   364  PHE364      0.0534
    120  CG        48.8610   21.0770  -19.2720 C.ar  364  PHE364     -0.0203
    121  CD1       48.6010   21.2230  -17.9190 C.ar  364  PHE364     -0.0042
    122  CD2       49.7820   20.1280  -19.6750 C.ar  364  PHE364     -0.0042
    123  CE1       49.2410   20.4340  -16.9800 C.ar  364  PHE364     -0.0003
    124  CE2       50.4250   19.3390  -18.7490 C.ar  364  PHE364     -0.0003
    125  CZ        50.1530   19.4920  -17.3930 C.ar  364  PHE364     -0.0000
    126  N         46.2760   25.5860  -25.2370 N.3   394  CYS394     -0.1221
    127  CA        45.7770   25.0410  -23.9790 C.3   394  CYS394      0.1808
    128  C         45.8500   26.0920  -22.8710 C.2   394  CYS394      0.2602
    129  O         46.8650   26.7730  -22.7000 O.2   394  CYS394     -0.2717
    130  CB        46.5560   23.7670  -23.5910 C.3   394  CYS394      0.0970
    131  SG        48.3490   23.9230  -23.2490 S.3   394  CYS394     -0.0800
    132  N         44.7360   26.2670  -22.1690 N.am  395  GLY395     -0.1942
    133  CA        44.6720   27.1630  -21.0400 C.3   395  GLY395      0.2014
    134  C         44.3750   28.6060  -21.3560 C.2   395  GLY395      0.2638
    135  O         44.4940   29.4520  -20.4610 O.2   395  GLY395     -0.2714
    136  N         44.0200   28.9330  -22.5900 N.am  396  TRP396     -0.1973
    137  CA        43.5930   30.2900  -22.9000 C.3   396  TRP396      0.1640
    138  C         42.1790   30.2830  -23.4730 C.2   396  TRP396      0.2290
    139  O         41.5930   29.2330  -23.7540 O.2   396  TRP396     -0.2864
    140  CB        44.5600   31.0050  -23.8620 C.3   396  TRP396      0.0576
    141  CG        45.9490   31.2270  -23.3020 C.ar  396  TRP396      0.0006
    142  CD1       46.9770   30.3200  -23.2530 C.ar  396  TRP396      0.0946
    143  CD2       46.4270   32.4070  -22.6390 C.ar  396  TRP396      0.0152
    144  NE1       48.0750   30.8800  -22.6400 N.ar  396  TRP396     -0.2442
    145  CE2       47.7620   32.1570  -22.2540 C.ar  396  TRP396      0.0810
    146  CE3       45.8630   33.6540  -22.3550 C.ar  396  TRP396      0.0012
    147  CZ2       48.5300   33.1020  -21.6010 C.ar  396  TRP396      0.0191
    148  CZ3       46.6270   34.5910  -21.7100 C.ar  396  TRP396      0.0001
    149  CH2       47.9460   34.3120  -21.3360 C.ar  396  TRP396      0.0015
@<TRIPOS>BOND
     1   126   127    1
     2   127   130    1
     3   127   128    1
     4   140   141    1
     5   140   137    1
     6   139   138    2
     7   130   131    1
     8   138   137    1
     9   141   142   ar
    10   141   143   ar
    11   142   144   ar
    12   137   136    1
    13   128   129    2
    14   128   132   am
    15   144   145   ar
    16   143   146   ar
    17   143   145   ar
    18   136   134   am
    19   146   148   ar
    20   145   147   ar
    21   132   133    1
    22    45    46    1
    23   148   149   ar
    24   147   149   ar
    25     4     3    2
    26   117   118    2
    27   117   116    1
    28     3     2    1
    29   134   133    1
    30   134   135    2
    31    46    47    1
    32    46    49    1
    33   116   119    1
    34   116   115    1
    35    50    49    1
    36    50    52    1
    37    53    54    1
    38    47    48    2
    39   119   120    1
    40     2     5    1
    41     2     1    1
    42    49    51    1
    43    44    42    1
    44    42    41    1
    45   122   120   ar
    46   122   124   ar
    47     5     6    1
    48    54    55    1
    49    54    57    1
    50   120   121   ar
    51    55    56    2
    52    59    61   ar
    53    59    58   ar
    54    61    62   ar
    55   124   125   ar
    56    62    60   ar
    57    58    57    1
    58    58    60   ar
    59    41    38    1
    60    41    43    1
    61    39    38    1
    62    39    40    2
    63    38    37    1
    64     6     7    1
    65   121   123   ar
    66     7     8    1
    67     8     9    2
    68   125   123   ar
    69   113   112    1
    70     9    10    1
    71     9    11    1
    72   110   109    1
    73   110   111    2
    74   112   109    1
    75   112   114    1
    76    36    34    1
    77   109   108    1
    78    23    22    1
    79    34    35    1
    80    34    33    1
    81    22    21   ar
    82    22    20   ar
    83    21    19   ar
    84    20    18   ar
    85    69    68    1
    86    33    30    1
    87    19    17   ar
    88    30    29    1
    89    30    31    1
    90    18    17   ar
    91    99    98    1
    92    17    16    1
    93    68    67    1
    94    68    70    1
    95    27    26    2
    96    28    25    1
    97    63    64    1
    98    32    31    2
    99    77    76    1
   100    29    26   am
   101    26    25    1
   102    16    13    1
   103    97    98   ar
   104    97    95   ar
   105    67    64    1
   106    98    96   ar
   107    25    24    1
   108    64    65    1
   109    66    65    2
   110    95    93   ar
   111    76    78    1
   112    76    75    1
   113    15    14    2
   114    13    12    1
   115    13    14    1
   116    96    94   ar
   117    86    85    1
   118    86    87    1
   119   107   105   ar
   120    85    84    1
   121    93    94   ar
   122    93    92    1
   123    75    72    1
   124   104   105    1
   125   104   101    1
   126   105   106   ar
   127    92    89    1
   128    84    83    1
   129    71    72    1
   130    72    73    1
   131   101   102    1
   132   101   100    1
   133    83    80    1
   134   102   103    2
   135    73    74    2
   136    89    90    1
   137    89    88    1
   138    90    91    2
   139    80    81    1
   140    80    79    1
   141    81    82    2
