@<TRIPOS>MOLECULE
tmp/6fwsA00.pdb
 209 195 0 0 0
SMALL
GASTEIGER

@<TRIPOS>ATOM
      1  N         30.4960   -3.3790  -13.7970 N.3    18  LEU18      -0.1245
      2  CA        29.5540   -2.3670  -13.3430 C.3    18  LEU18       0.1561
      3  C         28.6150   -1.9030  -14.4530 C.2    18  LEU18       0.2260
      4  O         27.4490   -1.6050  -14.1880 O.2    18  LEU18      -0.2867
      5  CB        30.3290   -1.1750  -12.8000 C.3    18  LEU18       0.0270
      6  CG        29.8780   -0.3500  -11.6110 C.3    18  LEU18       0.0019
      7  CD1       29.5310   -1.2200  -10.4150 C.3    18  LEU18       0.0001
      8  CD2       31.0160    0.6050  -11.2570 C.3    18  LEU18       0.0001
      9  N         24.6810   -1.9080  -13.3410 N.3    22  ILE22      -0.1245
     10  CA        23.8050   -0.7440  -13.3110 C.3    22  ILE22       0.1561
     11  C         23.2850   -0.5630  -14.7330 C.2    22  ILE22       0.2260
     12  O         23.9790    0.0440  -15.5590 O.2    22  ILE22      -0.2867
     13  CB        24.5540    0.4950  -12.8050 C.3    22  ILE22       0.0252
     14  CG1       25.0130    0.2580  -11.3690 C.3    22  ILE22       0.0019
     15  CG2       23.6840    1.7130  -12.8890 C.3    22  ILE22       0.0019
     16  CD1       26.0580    1.2430  -10.8760 C.3    22  ILE22       0.0001
     17  N         21.4170    1.3490  -16.2970 N.3    24  ASP24      -0.1225
     18  CA        21.4940    2.7350  -16.7460 C.3    24  ASP24       0.1805
     19  C         22.8420    3.3540  -16.4010 C.2    24  ASP24       0.2598
     20  O         22.9390    4.5250  -16.0260 O.2    24  ASP24      -0.2718
     21  CB        20.3380    3.5430  -16.1550 C.3    24  ASP24       0.1424
     22  CG        20.1900    3.3520  -14.6590 C.2    24  ASP24       0.3668
     23  OD1       19.6780    4.2750  -13.9960 O.co2  24  ASP24      -0.2456
     24  OD2       20.5940    2.2890  -14.1400 O.co2  24  ASP24      -0.2456
     25  N         23.9090    2.5800  -16.5210 N.am   25  PHE25      -0.1962
     26  CA        25.2420    3.0950  -16.2520 C.3    25  PHE25       0.1771
     27  C         25.6230    4.1340  -17.3010 C.2    25  PHE25       0.2619
     28  O         25.5300    3.8790  -18.5030 O.2    25  PHE25      -0.2715
     29  CB        26.2450    1.9360  -16.2350 C.3    25  PHE25       0.0574
     30  CG        27.6860    2.3600  -16.2080 C.ar   25  PHE25      -0.0200
     31  CD1       28.3540    2.6730  -17.3780 C.ar   25  PHE25      -0.0042
     32  CD2       28.3800    2.4070  -15.0140 C.ar   25  PHE25      -0.0042
     33  CE1       29.6680    3.0510  -17.3610 C.ar   25  PHE25      -0.0003
     34  CE2       29.7070    2.7820  -14.9870 C.ar   25  PHE25      -0.0003
     35  CZ        30.3510    3.1060  -16.1670 C.ar   25  PHE25      -0.0000
     36  N         26.0490    5.3070  -16.8460 N.am   26  ILE26      -0.1977
     37  CA        26.6290    6.3200  -17.7250 C.3    26  ILE26       0.1596
     38  C         28.0780    6.5330  -17.3040 C.2    26  ILE26       0.2287
     39  O         28.3540    6.6100  -16.1000 O.2    26  ILE26      -0.2864
     40  CB        25.8310    7.6300  -17.6690 C.3    26  ILE26       0.0276
     41  CG1       24.4130    7.3980  -18.1770 C.3    26  ILE26       0.0022
     42  CG2       26.5260    8.7150  -18.4740 C.3    26  ILE26       0.0022
     43  CD1       23.5090    8.5640  -17.9660 C.3    26  ILE26       0.0001
     44  N         31.3660    8.1420  -16.0280 N.3    28  ARG28      -0.1245
     45  CA        31.6390    9.3140  -15.1990 C.3    28  ARG28       0.1563
     46  C         33.1480    9.5100  -15.0980 C.2    28  ARG28       0.2260
     47  O         33.8430    8.7080  -14.4680 O.2    28  ARG28      -0.2867
     48  CB        31.0140    9.1580  -13.8140 C.3    28  ARG28       0.0307
     49  CG        29.5160    9.3680  -13.7670 C.3    28  ARG28       0.0489
     50  CD        28.9200    8.8110  -12.4900 C.3    28  ARG28       0.2205
     51  NE        27.4640    8.7880  -12.5390 N.pl3  28  ARG28      -0.0865
     52  CZ        26.6810    8.5880  -11.4850 C.cat  28  ARG28       0.5346
     53  NH1       25.3670    8.5890  -11.6290 N.pl3  28  ARG28       0.1354
     54  NH2       27.2070    8.3970  -10.2800 N.pl3  28  ARG28       0.1354
     55  N         34.6870    9.6880  -11.5200 N.3    31  GLN31      -0.1245
     56  CA        34.7030    8.3680  -10.9090 C.3    31  GLN31       0.1566
     57  C         35.9540    7.6010  -11.3120 C.2    31  GLN31       0.2260
     58  O         36.6590    7.0540  -10.4570 O.2    31  GLN31      -0.2867
     59  CB        33.4400    7.6130  -11.3080 C.3    31  GLN31       0.0367
     60  CG        33.2950    6.2350  -10.7260 C.3    31  GLN31       0.0905
     61  CD        31.9030    5.7080  -10.9640 C.2    31  GLN31       0.2608
     62  OE1       31.5740    5.2670  -12.0650 O.2    31  GLN31      -0.2717
     63  NE2       31.0620    5.7860   -9.9410 N.am   31  GLN31      -0.0878
     64  N         28.9690   16.0020   -4.8600 N.3    56  THR56      -0.1203
     65  CA        27.8480   15.1440   -4.4820 C.3    56  THR56       0.1994
     66  C         27.2500   14.4400   -5.7070 C.2    56  THR56       0.2618
     67  O         26.9900   15.0590   -6.7430 O.2    56  THR56      -0.2717
     68  CB        26.7700   15.9660   -3.7430 C.3    56  THR56       0.1784
     69  OG1       26.2210   16.9490   -4.6090 O.3    56  THR56      -0.2211
     70  CG2       27.3580   16.7130   -2.5230 C.3    56  THR56       0.0376
     71  N         27.0280   13.1310   -5.5880 N.am   57  GLY57      -0.1942
     72  CA        26.4680   12.3530   -6.6700 C.3    57  GLY57       0.2014
     73  C         27.4700   11.7590   -7.6410 C.2    57  GLY57       0.2639
     74  O         27.0860   10.9030   -8.4500 O.2    57  GLY57      -0.2714
     75  N         28.7330   12.1920   -7.5870 N.am   58  VAL58      -0.1963
     76  CA        29.7790   11.6820   -8.4790 C.3    58  VAL58       0.1727
     77  C         29.8110   10.1590   -8.4690 C.2    58  VAL58       0.2617
     78  O         30.0280    9.5130   -9.5060 O.2    58  VAL58      -0.2715
     79  CB        31.1480   12.2750   -8.0830 C.3    58  VAL58       0.0290
     80  CG1       32.2630   11.3450   -8.4680 C.3    58  VAL58       0.0023
     81  CG2       31.3350   13.6340   -8.7270 C.3    58  VAL58       0.0023
     82  N         29.5940    9.5630   -7.3020 N.am   59  GLY59      -0.1940
     83  CA        29.6410    8.1220   -7.1740 C.3    59  GLY59       0.2014
     84  C         30.8840    7.6810   -6.4340 C.2    59  GLY59       0.2639
     85  O         31.5410    6.7210   -6.8420 O.2    59  GLY59      -0.2714
     86  N         31.2110    8.3710   -5.3340 N.am   60  LYS60      -0.1963
     87  CA        32.4720    8.1090   -4.6430 C.3    60  LYS60       0.1728
     88  C         32.4900    6.7170   -4.0180 C.2    60  LYS60       0.2617
     89  O         33.5500    6.0810   -3.9700 O.2    60  LYS60      -0.2715
     90  CB        32.7270    9.1720   -3.5720 C.3    60  LYS60       0.0311
     91  CG        32.9910   10.5760   -4.1060 C.3    60  LYS60       0.0038
     92  CD        33.1070   11.6060   -2.9720 C.3    60  LYS60       0.0206
     93  CE        31.7390   12.0350   -2.4080 C.3    60  LYS60       0.1093
     94  NZ        30.9190   12.7700   -3.4050 N.3    60  LYS60      -0.1314
     95  N         31.3310    6.2310   -3.5440 N.am   61  THR61      -0.1937
     96  CA        31.2400    4.9510   -2.8420 C.3    61  THR61       0.2028
     97  C         31.8730    3.8330   -3.6570 C.2    61  THR61       0.2642
     98  O         32.7990    3.1600   -3.1990 O.2    61  THR61      -0.2714
     99  CB        29.7750    4.5980   -2.5440 C.3    61  THR61       0.1808
    100  OG1       29.0460    5.7950   -2.2370 O.3    61  THR61      -0.2208
    101  CG2       29.6780    3.6380   -1.3560 C.3    61  THR61       0.0379
    102  N         31.3560    3.5990   -4.8660 N.am   62  LEU62      -0.1977
    103  CA        31.9400    2.5730   -5.7280 C.3    62  LEU62       0.1596
    104  C         33.3780    2.9330   -6.0930 C.2    62  LEU62       0.2287
    105  O         34.2250    2.0480   -6.2700 O.2    62  LEU62      -0.2864
    106  CB        31.0970    2.4000   -6.9920 C.3    62  LEU62       0.0297
    107  CG        29.7270    1.7890   -6.7230 C.3    62  LEU62       0.0022
    108  CD1       28.8380    1.7780   -7.9620 C.3    62  LEU62       0.0001
    109  CD2       29.9080    0.3890   -6.1950 C.3    62  LEU62       0.0001
    110  N         23.3740    2.4270    4.6720 N.3    91  GLN91      -0.1245
    111  CA        23.2400    2.5690    3.2240 C.3    91  GLN91       0.1566
    112  C         24.3430    1.8210    2.4960 C.2    91  GLN91       0.2260
    113  O         24.0740    1.0940    1.5320 O.2    91  GLN91      -0.2867
    114  CB        23.2470    4.0390    2.8170 C.3    91  GLN91       0.0367
    115  CG        23.2930    4.2500    1.3140 C.3    91  GLN91       0.0905
    116  CD        23.0150    5.6880    0.9470 C.2    91  GLN91       0.2608
    117  OE1       21.8610    6.0990    0.8730 O.2    91  GLN91      -0.2717
    118  NE2       24.0760    6.4710    0.7350 N.am   91  GLN91      -0.0878
    119  N         22.9250   -1.4020    0.3830 N.3    95  LYS95      -0.1231
    120  CA        22.6670   -0.9910   -0.9910 C.3    95  LYS95       0.1693
    121  C         23.9270   -1.0280   -1.8460 C.2    95  LYS95       0.2592
    122  O         23.9510   -1.7470   -2.8460 O.2    95  LYS95      -0.2718
    123  CB        22.0110    0.4000   -0.9590 C.3    95  LYS95       0.0285
    124  CG        21.9580    1.1870   -2.2540 C.3    95  LYS95       0.0035
    125  CD        21.8240    2.6860   -1.9340 C.3    95  LYS95       0.0206
    126  CE        21.7480    3.5460   -3.1830 C.3    95  LYS95       0.1093
    127  NZ        22.8890    3.3160   -4.1270 N.3    95  LYS95      -0.1314
    128  N         24.9910   -0.3110   -1.4730 N.am   96  ASP96      -0.1974
    129  CA        26.2070   -0.2910   -2.2890 C.3    96  ASP96       0.1709
    130  C         26.9270   -1.6420   -2.2740 C.2    96  ASP96       0.2293
    131  O         27.2080   -2.2230   -3.3310 O.2    96  ASP96      -0.2864
    132  CB        27.1380    0.8260   -1.8100 C.3    96  ASP96       0.1436
    133  CG        26.4430    2.1850   -1.7400 C.2    96  ASP96       0.3671
    134  OD1       25.9320    2.6560   -2.7720 O.co2  96  ASP96      -0.2456
    135  OD2       26.3910    2.7870   -0.6520 O.co2  96  ASP96      -0.2456
    136  N         25.1640   -4.5710   -4.1790 N.3    99  LEU99      -0.1245
    137  CA        25.3480   -4.3980   -5.6180 C.3    99  LEU99       0.1561
    138  C         26.7510   -4.8080   -6.0460 C.2    99  LEU99       0.2260
    139  O         26.9230   -5.4290   -7.1000 O.2    99  LEU99      -0.2867
    140  CB        25.0640   -2.9530   -6.0280 C.3    99  LEU99       0.0270
    141  CG        25.4400   -2.6250   -7.4740 C.3    99  LEU99       0.0019
    142  CD1       24.3630   -1.7770   -8.1330 C.3    99  LEU99       0.0001
    143  CD2       26.7890   -1.9180   -7.5280 C.3    99  LEU99       0.0001
    144  N         35.1310    8.1330    4.5070 N.3   234  ASP234     -0.1225
    145  CA        34.0480    8.7500    3.7630 C.3   234  ASP234      0.1805
    146  C         33.4100    9.8420    4.6280 C.2   234  ASP234      0.2597
    147  O         33.4300    9.7710    5.8610 O.2   234  ASP234     -0.2718
    148  CB        33.0290    7.6710    3.3550 C.3   234  ASP234      0.1424
    149  CG        32.0810    8.1280    2.2670 C.2   234  ASP234      0.3668
    150  OD1       32.1890    9.2910    1.8370 O.co2 234  ASP234     -0.2456
    151  OD2       31.2230    7.3160    1.8460 O.co2 234  ASP234     -0.2456
    152  N         32.8330   10.8490    3.9660 N.am  235  GLU235     -0.1979
    153  CA        32.4010   12.0950    4.6120 C.3   235  GLU235      0.1602
    154  C         33.4730   12.5810    5.5830 C.2   235  GLU235      0.2287
    155  O         33.2030   12.9170    6.7380 O.2   235  GLU235     -0.2864
    156  CB        31.0600   11.9320    5.3250 C.3   235  GLU235      0.0415
    157  CG        29.9280   11.3660    4.4810 C.3   235  GLU235      0.1163
    158  CD        29.4980   12.2910    3.3350 C.2   235  GLU235      0.3649
    159  OE1       29.8410   13.4970    3.3560 O.co2 235  GLU235     -0.2457
    160  OE2       28.8200   11.8000    2.4050 O.co2 235  GLU235     -0.2457
    161  N         25.0180   12.3080    2.3670 N.3   580  GLY580     -0.1225
    162  CA        25.2500   10.9370    1.9630 C.3   580  GLY580      0.1811
    163  C         24.0600   10.1120    1.4960 C.2   580  GLY580      0.2280
    164  O         24.2290    9.1490    0.7420 O.2   580  GLY580     -0.2866
    165  N         21.2280    8.6590   -0.5920 N.3   582  ASP582     -0.1239
    166  CA        21.1960    8.5060   -2.0440 C.3   582  ASP582      0.1674
    167  C         19.8260    8.0250   -2.5130 C.2   582  ASP582      0.2266
    168  O         19.4990    6.8420   -2.3730 O.2   582  ASP582     -0.2867
    169  CB        22.2800    7.5290   -2.4980 C.3   582  ASP582      0.1410
    170  CG        22.2920    7.3210   -4.0100 C.2   582  ASP582      0.3668
    171  OD1       22.6720    8.2590   -4.7400 O.co2 582  ASP582     -0.2456
    172  OD2       21.9400    6.2090   -4.4730 O.co2 582  ASP582     -0.2456
    173  N         17.8180    8.0980   -6.0240 N.3   584  LYS584     -0.1245
    174  CA        17.9590    8.3900   -7.4470 C.3   584  LYS584      0.1561
    175  C         16.6250    8.7650   -8.0820 C.2   584  LYS584      0.2260
    176  O         15.5900    8.1450   -7.8110 O.2   584  LYS584     -0.2867
    177  CB        18.5320    7.1660   -8.1690 C.3   584  LYS584      0.0271
    178  CG        19.6640    7.4280   -9.1540 C.3   584  LYS584      0.0035
    179  CD        20.5690    6.2100   -9.1840 C.3   584  LYS584      0.0206
    180  CE        21.7440    6.3790  -10.1100 C.3   584  LYS584      0.1093
    181  NZ        22.3230    5.0470  -10.4160 N.3   584  LYS584     -0.1314
    182  N         21.6070   16.3960   -2.0250 N.3   639  ARG639     -0.1245
    183  CA        20.6740   15.2600   -2.0670 C.3   639  ARG639      0.1563
    184  C         19.9270   15.1200   -3.4020 C.2   639  ARG639      0.2260
    185  O         19.4970   14.0100   -3.7420 O.2   639  ARG639     -0.2867
    186  CB        19.6310   15.3390   -0.9430 C.3   639  ARG639      0.0307
    187  CG        20.1560   15.2490    0.5070 C.3   639  ARG639      0.0489
    188  CD        21.2660   14.2170    0.6870 C.3   639  ARG639      0.2205
    189  NE        22.5440   14.8450    0.3910 N.pl3 639  ARG639     -0.0865
    190  CZ        23.5820   14.2350   -0.1660 C.cat 639  ARG639      0.5346
    191  NH1       23.5250   12.9470   -0.4860 N.pl3 639  ARG639      0.1354
    192  NH2       24.6900   14.9310   -0.3990 N.pl3 639  ARG639      0.1354
    193  N         21.6720   12.8840   -8.2780 N.3   642  ARG642     -0.1231
    194  CA        22.4540   11.6720   -8.0610 C.3   642  ARG642      0.1694
    195  C         22.8210   10.9770   -9.3670 C.2   642  ARG642      0.2592
    196  O         23.5860    9.9980   -9.3520 O.2   642  ARG642     -0.2718
    197  CB        21.6830   10.7060   -7.1540 C.3   642  ARG642      0.0321
    198  CG        20.9670   11.4100   -6.0090 C.3   642  ARG642      0.0489
    199  CD        21.9550   12.1390   -5.1140 C.3   642  ARG642      0.2205
    200  NE        22.8930   11.2040   -4.5040 N.pl3 642  ARG642     -0.0865
    201  CZ        24.0080   11.5690   -3.8740 C.cat 642  ARG642      0.5346
    202  NH1       24.3360   12.8560   -3.7800 N.pl3 642  ARG642      0.1354
    203  NH2       24.8030   10.6470   -3.3440 N.pl3 642  ARG642      0.1354
    204  N         22.3260   11.4780  -10.4950 N.am  643  SER643     -0.1952
    205  CA        22.5300   10.8520  -11.7930 C.3   643  SER643      0.1924
    206  C         22.1890   11.8720  -12.8690 C.2   643  SER643      0.2314
    207  O         21.5910   12.9180  -12.5970 O.2   643  SER643     -0.2863
    208  CB        21.6540    9.6180  -11.9410 C.3   643  SER643      0.2116
    209  OG        20.3070    9.9950  -11.7240 O.3   643  SER643     -0.2180
@<TRIPOS>BOND
     1    28    27    2
     2    42    40    1
     3    41    43    1
     4    41    40    1
     5    37    40    1
     6    37    38    1
     7    37    36    1
     8    31    33   ar
     9    31    30   ar
    10    33    35   ar
    11    38    39    2
    12    27    36   am
    13    27    26    1
    14    18    19    1
    15    18    17    1
    16    18    21    1
    17    25    19   am
    18    25    26    1
    19    19    20    2
    20    26    29    1
    21    29    30    1
    22    30    32   ar
    23    35    34   ar
    24    21    22    1
    25    44    45    1
    26    12    11    2
    27    45    46    1
    28    45    48    1
    29    46    47    2
    30    32    34   ar
    31    11    10    1
    32    22    24   ar
    33    22    23   ar
    34     3     4    2
    35     3     2    1
    36    48    49    1
    37     1     2    1
    38    49    50    1
    39     2     5    1
    40     9    10    1
    41    10    13    1
    42    15    13    1
    43   206   207    2
    44   206   205    1
    45    13    14    1
    46     5     6    1
    47    51    50    1
    48    51    52    2
    49    62    61    2
    50   208   205    1
    51   208   209    1
    52   205   204    1
    53    53    52    1
    54     6     8    1
    55     6     7    1
    56    55    56    1
    57    52    54    1
    58    14    16    1
    59    57    56    1
    60    57    58    2
    61    59    56    1
    62    59    60    1
    63    61    60    1
    64    61    63   am
    65   204   195   am
    66   181   180    1
    67   180   179    1
    68    78    77    2
    69   195   196    2
    70   195   194    1
    71   179   178    1
    72   178   177    1
    73    81    79    1
    74    76    77    1
    75    76    79    1
    76    76    75    1
    77    77    82   am
    78    80    79    1
    79    74    73    2
    80   193   194    1
    81   177   174    1
    82   142   141    1
    83   175   176    2
    84   175   174    1
    85   194   197    1
    86   108   107    1
    87    73    75   am
    88    73    72    1
    89   143   141    1
    90   141   140    1
    91   174   173    1
    92    82    83    1
    93    83    84    1
    94   197   198    1
    95   139   138    2
    96   106   107    1
    97   106   103    1
    98    85    84    2
    99    67    66    2
   100   107   109    1
   101    72    71    1
   102    84    86   am
   103   105   104    2
   104   104   103    1
   105   138   137    1
   106   140   137    1
   107   198   199    1
   108   103   102    1
   109    66    71   am
   110    66    65    1
   111   137   136    1
   112    86    87    1
   113   199   200    1
   114   102    97   am
   115    64    65    1
   116   171   170   ar
   117    87    88    1
   118    87    90    1
   119    69    68    1
   120   200   201    2
   121    65    68    1
   122   172   170   ar
   123   127   126    1
   124    91    90    1
   125    91    92    1
   126    88    89    2
   127    88    95   am
   128   170   169    1
   129   201   202    1
   130   201   203    1
   131    68    70    1
   132   185   184    2
   133    97    98    2
   134    97    96    1
   135    95    96    1
   136    94    93    1
   137   184   183    1
   138   131   130    2
   139   126   125    1
   140    92    93    1
   141   122   121    2
   142    96    99    1
   143   134   133   ar
   144    99   100    1
   145    99   101    1
   146   167   168    2
   147   167   166    1
   148   169   166    1
   149   129   130    1
   150   129   132    1
   151   129   128    1
   152   124   125    1
   153   124   123    1
   154   183   182    1
   155   183   186    1
   156   166   165    1
   157   121   128   am
   158   121   120    1
   159   132   133    1
   160   133   135   ar
   161   120   123    1
   162   120   119    1
   163   186   187    1
   164   191   190    1
   165   192   190    1
   166   190   189    2
   167   189   188    1
   168   187   188    1
   169   118   116   am
   170   164   163    2
   171   117   116    2
   172   116   115    1
   173   115   114    1
   174   163   162    1
   175   113   112    2
   176   150   149   ar
   177   151   149   ar
   178   162   161    1
   179   149   148    1
   180   160   158   ar
   181   112   111    1
   182   114   111    1
   183   111   110    1
   184   158   159   ar
   185   158   157    1
   186   148   145    1
   187   145   144    1
   188   145   146    1
   189   152   153    1
   190   152   146   am
   191   157   156    1
   192   153   156    1
   193   153   154    1
   194   146   147    2
   195   154   155    2
