@<TRIPOS>MOLECULE
tmp/6fwyA00.pdb
 86 81 0 0 0
SMALL
GASTEIGER

@<TRIPOS>ATOM
      1  N        -32.8900   12.0590   18.3530 N.3    20  LYS20      -0.1231
      2  CA       -33.7680   11.5490   17.2930 C.3    20  LYS20       0.1693
      3  C        -33.3670   12.1190   15.9540 C.2    20  LYS20       0.2592
      4  O        -32.7200   13.1680   15.8730 O.2    20  LYS20      -0.2718
      5  CB       -35.2540   11.8200   17.5220 C.3    20  LYS20       0.0285
      6  CG       -35.8020   11.4870   18.8670 C.3    20  LYS20       0.0035
      7  CD       -37.2130   12.0170   19.0470 C.3    20  LYS20       0.0206
      8  CE       -37.6840   11.5990   20.4410 C.3    20  LYS20       0.1093
      9  NZ       -39.1320   11.9100   20.6390 N.3    20  LYS20      -0.1314
     10  N        -33.7880   11.4060   14.9220 N.am   21  THR21      -0.1953
     11  CA       -33.5110   11.7940   13.5490 C.3    21  THR21       0.1897
     12  C        -34.6470   11.3510   12.6320 C.2    21  THR21       0.2313
     13  O        -35.3060   10.3420   12.8710 O.2    21  THR21      -0.2863
     14  CB       -32.1780   11.2050   13.0420 C.3    21  THR21       0.1794
     15  OG1      -31.9420   11.6240   11.6990 O.3    21  THR21      -0.2208
     16  CG2      -32.1750    9.6880   13.0780 C.3    21  THR21       0.0378
     17  N        -31.1540    9.3010    7.5300 N.3    24  TYR24      -0.1241
     18  CA       -30.2160    9.7130    6.4770 C.3    24  TYR24       0.1605
     19  C        -30.4030    8.9460    5.1590 C.2    24  TYR24       0.2264
     20  O        -29.6800    9.1880    4.1990 O.2    24  TYR24      -0.2867
     21  CB       -28.7950    9.4770    6.9770 C.3    24  TYR24       0.0534
     22  CG       -28.4550   10.3560    8.1330 C.ar   24  TYR24      -0.0201
     23  CD1      -28.7460    9.9580    9.4290 C.ar   24  TYR24      -0.0009
     24  CD2      -27.8580   11.5970    7.9330 C.ar   24  TYR24      -0.0009
     25  CE1      -28.4570   10.7830   10.5020 C.ar   24  TYR24       0.0417
     26  CE2      -27.5410   12.4090    9.0020 C.ar   24  TYR24       0.0417
     27  CZ       -27.8320   11.9850   10.2790 C.ar   24  TYR24       0.1957
     28  OH       -27.5290   12.8140   11.3180 O.3    24  TYR24      -0.2866
     29  N        -19.4480   10.8560   10.9040 N.3    97  GLY97      -0.1210
     30  CA       -19.0180   12.2160   11.2460 C.3    97  GLY97       0.1956
     31  C        -19.4110   12.6950   12.6300 C.2    97  GLY97       0.2611
     32  O        -18.8680   13.6790   13.0760 O.2    97  GLY97      -0.2717
     33  N        -20.3850   12.0400   13.2570 N.am   98  ASN98      -0.1974
     34  CA       -20.8360   12.3700   14.6240 C.3    98  ASN98       0.1688
     35  C        -21.5810   11.1680   15.2260 C.2    98  ASN98       0.2292
     36  O        -21.8460   10.1930   14.5210 O.2    98  ASN98      -0.2864
     37  CB       -21.7180   13.6250   14.6210 C.3    98  ASN98       0.1181
     38  CG       -23.0020   13.4470   13.8210 C.2    98  ASN98       0.2629
     39  OD1      -23.8130   12.5660   14.0970 O.2    98  ASN98      -0.2716
     40  ND2      -23.1970   14.2840   12.8260 N.am   98  ASN98      -0.0877
     41  N        -24.7390   10.7990   16.1920 N.3   100  THR100     -0.1203
     42  CA       -26.0860   10.5530   15.6510 C.3   100  THR100      0.1994
     43  C        -25.9910    9.6930   14.4020 C.2   100  THR100      0.2617
     44  O        -26.7530    8.7520   14.2570 O.2   100  THR100     -0.2717
     45  CB       -26.8390   11.8420   15.3100 C.3   100  THR100      0.1784
     46  OG1      -26.9170   12.6620   16.4590 O.3   100  THR100     -0.2211
     47  CG2      -28.2690   11.5310   14.8700 C.3   100  THR100      0.0376
     48  N        -25.0530   10.0340   13.5200 N.am  101  GLU101     -0.1979
     49  CA       -24.7800    9.2370   12.3180 C.3   101  GLU101      0.1602
     50  C        -24.3150    7.8200   12.6670 C.2   101  GLU101      0.2287
     51  O        -24.7410    6.8620   12.0310 O.2   101  GLU101     -0.2864
     52  CB       -23.7250    9.9120   11.4270 C.3   101  GLU101      0.0415
     53  CG       -24.2150   11.1620   10.7080 C.3   101  GLU101      0.1163
     54  CD       -23.1280   11.9590   10.0120 C.2   101  GLU101      0.3649
     55  OE1      -22.0230   11.4100    9.7440 O.co2 101  GLU101     -0.2457
     56  OE2      -23.3890   13.1450    9.7140 O.co2 101  GLU101     -0.2457
     57  N        -30.8230   15.8750    4.4090 N.3   129  HIS129     -0.1241
     58  CA       -29.4070   15.6570    4.6950 C.3   129  HIS129      0.1621
     59  C        -28.5920   15.6590    3.4190 C.2   129  HIS129      0.2264
     60  O        -29.0760   15.2580    2.3450 O.2   129  HIS129     -0.2867
     61  CB       -29.2010   14.3540    5.4800 C.3   129  HIS129      0.0745
     62  CG       -29.9920   14.2950    6.7570 C.ar  129  HIS129      0.0817
     63  ND1      -29.5730   14.8850    7.9260 N.ar  129  HIS129     -0.2268
     64  CD2      -31.2050   13.7530    7.0220 C.ar  129  HIS129      0.1154
     65  CE1      -30.4890   14.6910    8.8610 C.ar  129  HIS129      0.1986
     66  NE2      -31.4920   14.0120    8.3370 N.ar  129  HIS129     -0.2212
     67  N        -23.2240   13.5960    4.3420 N.3   133  GLU133     -0.1245
     68  CA       -23.8000   13.0200    5.5750 C.3   133  GLU133      0.1567
     69  C        -24.2490   11.5710    5.3530 C.2   133  GLU133      0.2260
     70  O        -23.8560   10.6560    6.0660 O.2   133  GLU133     -0.2867
     71  CB       -24.9870   13.8520    6.0790 C.3   133  GLU133      0.0388
     72  CG       -24.6010   15.1850    6.7130 C.3   133  GLU133      0.1160
     73  CD       -25.8120   15.9860    7.1930 C.2   133  GLU133      0.3649
     74  OE1      -26.7380   16.2680    6.3920 O.co2 133  GLU133     -0.2457
     75  OE2      -25.8330   16.3620    8.3750 O.co2 133  GLU133     -0.2457
     76  N        -21.2710    9.1020    4.7660 N.3   136  ARG136     -0.1245
     77  CA       -20.6440    8.6880    6.0320 C.3   136  ARG136      0.1563
     78  C        -21.4790    7.6030    6.7190 C.2   136  ARG136      0.2260
     79  O        -20.9440    6.5940    7.1690 O.2   136  ARG136     -0.2867
     80  CB       -20.4490    9.8840    6.9660 C.3   136  ARG136      0.0307
     81  CG       -19.3320   10.8190    6.5400 C.3   136  ARG136      0.0489
     82  CD       -18.9770   11.8020    7.6360 C.3   136  ARG136      0.2205
     83  NE       -20.1020   12.6770    7.9700 N.pl3 136  ARG136     -0.0865
     84  CZ       -20.3360   13.8830    7.4400 C.cat 136  ARG136      0.5346
     85  NH1      -19.5350   14.3990    6.5150 N.pl3 136  ARG136      0.1354
     86  NH2      -21.4060   14.5780    7.8320 N.pl3 136  ARG136      0.1354
@<TRIPOS>BOND
     1    60    59    2
     2    59    58    1
     3    20    19    2
     4    67    68    1
     5    57    58    1
     6    58    61    1
     7    76    77    1
     8    19    18    1
     9    69    68    1
    10    69    70    2
    11    61    62    1
    12    68    71    1
    13    77    78    1
    14    77    80    1
    15    71    72    1
    16    74    73   ar
    17    18    21    1
    18    18    17    1
    19    85    84    1
    20    81    80    1
    21    81    82    1
    22    72    73    1
    23    78    79    2
    24    62    64   ar
    25    62    63   ar
    26    21    22    1
    27    64    66   ar
    28    73    75   ar
    29    84    86    1
    30    84    83    2
    31    82    83    1
    32    63    65   ar
    33    24    22   ar
    34    24    26   ar
    35    22    23   ar
    36    66    65   ar
    37    26    27   ar
    38    23    25   ar
    39    56    54   ar
    40    55    54   ar
    41    54    53    1
    42    27    25   ar
    43    27    28    1
    44    53    52    1
    45    29    30    1
    46    30    31    1
    47    52    49    1
    48    15    14    1
    49    51    50    2
    50    49    50    1
    51    49    48    1
    52    31    32    2
    53    31    33   am
    54    12    13    2
    55    12    11    1
    56    40    38   am
    57    14    16    1
    58    14    11    1
    59    33    34    1
    60    48    43   am
    61    11    10    1
    62    38    39    2
    63    38    37    1
    64    44    43    2
    65    43    42    1
    66    36    35    2
    67    37    34    1
    68    34    35    1
    69    47    45    1
    70    10     3   am
    71    45    42    1
    72    45    46    1
    73    42    41    1
    74     4     3    2
    75     3     2    1
    76     2     5    1
    77     2     1    1
    78     5     6    1
    79     6     7    1
    80     7     8    1
    81     8     9    1
