@<TRIPOS>MOLECULE
tmp/6fwzA02.pdb
 159 151 0 0 0
SMALL
GASTEIGER

@<TRIPOS>ATOM
      1  N         42.2880   48.3740  120.2870 N.3   169  GLY169     -0.1225
      2  CA        43.1300   48.6320  119.1180 C.3   169  GLY169      0.1811
      3  C         44.5900   48.9180  119.4220 C.2   169  GLY169      0.2280
      4  O         45.4600   48.3510  118.7990 O.2   169  GLY169     -0.2866
      5  N         46.3080   45.7970  120.5820 N.3   172  LEU172     -0.1231
      6  CA        46.4490   44.9520  119.4040 C.3   172  LEU172      0.1693
      7  C         47.7080   45.3050  118.5940 C.2   172  LEU172      0.2591
      8  O         48.3950   44.4030  118.1200 O.2   172  LEU172     -0.2718
      9  CB        45.1820   45.0910  118.5410 C.3   172  LEU172      0.0284
     10  CG        44.6440   43.8800  117.8030 C.3   172  LEU172      0.0019
     11  CD1       44.7300   42.6100  118.6340 C.3   172  LEU172      0.0001
     12  CD2       43.1960   44.1780  117.4190 C.3   172  LEU172      0.0001
     13  N         48.0220   46.6060  118.4870 N.am  173  VAL173     -0.1980
     14  CA        49.2420   47.0950  117.8280 C.3   173  VAL173      0.1595
     15  C         50.4500   46.7950  118.7020 C.2   173  VAL173      0.2287
     16  O         51.4650   46.3090  118.1870 O.2   173  VAL173     -0.2864
     17  CB        49.1800   48.6220  117.5000 C.3   173  VAL173      0.0276
     18  CG1       50.5340   49.1390  117.0020 C.3   173  VAL173      0.0022
     19  CG2       48.0950   48.9310  116.4660 C.3   173  VAL173      0.0022
     20  N         51.1720   43.0070  118.6840 N.3   176  ALA176     -0.1231
     21  CA        51.7360   42.7240  117.3670 C.3   176  ALA176      0.1694
     22  C         53.2010   43.1560  117.2700 C.2   176  ALA176      0.2592
     23  O         54.0280   42.3990  116.7590 O.2   176  ALA176     -0.2718
     24  CB        50.9070   43.4040  116.2870 C.3   176  ALA176      0.0304
     25  N         53.5060   44.3540  117.7890 N.am  177  SER177     -0.1952
     26  CA        54.8870   44.8820  117.8290 C.3   177  SER177      0.1924
     27  C         55.7920   44.0450  118.7280 C.2   177  SER177      0.2314
     28  O         56.9670   43.8330  118.3870 O.2   177  SER177     -0.2863
     29  CB        54.9090   46.3380  118.3210 C.3   177  SER177      0.2116
     30  OG        54.0380   47.1670  117.5940 O.3   177  SER177     -0.2180
     31  N         56.3720   40.7620  116.6860 N.3   180  VAL180     -0.1245
     32  CA        57.3880   41.0470  115.6460 C.3   180  VAL180      0.1561
     33  C         58.7990   41.1240  116.2670 C.2   180  VAL180      0.2260
     34  O         59.7110   40.4830  115.7640 O.2   180  VAL180     -0.2867
     35  CB        57.0490   42.3420  114.8270 C.3   180  VAL180      0.0252
     36  CG1       58.2020   42.7420  113.8960 C.3   180  VAL180      0.0019
     37  CG2       55.7650   42.1650  114.0090 C.3   180  VAL180      0.0019
     38  N         46.8140   38.4880  121.4050 N.3   205  PHE205     -0.1241
     39  CA        46.4910   39.1020  120.1180 C.3   205  PHE205      0.1605
     40  C         45.1520   38.6020  119.5460 C.2   205  PHE205      0.2264
     41  O         44.2540   39.4060  119.2690 O.2   205  PHE205     -0.2867
     42  CB        47.6290   38.8760  119.0940 C.3   205  PHE205      0.0534
     43  CG        47.4000   39.5850  117.7930 C.ar  205  PHE205     -0.0203
     44  CD1       47.8330   40.9050  117.6200 C.ar  205  PHE205     -0.0042
     45  CD2       46.7080   38.9560  116.7470 C.ar  205  PHE205     -0.0042
     46  CE1       47.5980   41.5790  116.4270 C.ar  205  PHE205     -0.0003
     47  CE2       46.4580   39.6280  115.5740 C.ar  205  PHE205     -0.0003
     48  CZ        46.9070   40.9430  115.4120 C.ar  205  PHE205     -0.0000
     49  N         41.6500   40.4290  119.1050 N.3   209  LEU209     -0.1245
     50  CA        41.1050   40.5210  117.7510 C.3   209  LEU209      0.1561
     51  C         39.6290   40.1330  117.7350 C.2   209  LEU209      0.2260
     52  O         38.8220   40.7630  117.0600 O.2   209  LEU209     -0.2867
     53  CB        41.9110   39.6210  116.8000 C.3   209  LEU209      0.0270
     54  CG        41.8350   39.9320  115.3020 C.3   209  LEU209      0.0019
     55  CD1       42.3970   41.3150  114.9730 C.3   209  LEU209      0.0001
     56  CD2       42.6060   38.8370  114.5900 C.3   209  LEU209      0.0001
     57  N         37.7610   43.1000  119.4200 N.3   212  LEU212     -0.1231
     58  CA        37.7160   44.2380  118.5250 C.3   212  LEU212      0.1693
     59  C         36.7280   43.9630  117.3820 C.2   212  LEU212      0.2592
     60  O         36.1810   44.8920  116.7790 O.2   212  LEU212     -0.2718
     61  CB        39.1170   44.5650  117.9820 C.3   212  LEU212      0.0284
     62  CG        39.2240   45.9240  117.2750 C.3   212  LEU212      0.0019
     63  CD1       39.7660   47.0060  118.1990 C.3   212  LEU212      0.0001
     64  CD2       40.0960   45.8180  116.0460 C.3   212  LEU212      0.0001
     65  N         36.4720   42.6900  117.0880 N.am  213  TYR213     -0.1976
     66  CA        35.4730   42.3360  116.0840 C.3   213  TYR213      0.1639
     67  C         34.1080   42.9530  116.4370 C.2   213  TYR213      0.2290
     68  O         33.4400   43.4910  115.5750 O.2   213  TYR213     -0.2864
     69  CB        35.3960   40.8100  115.9270 C.3   213  TYR213      0.0560
     70  CG        34.3400   40.3400  114.9610 C.ar  213  TYR213     -0.0198
     71  CD1       34.6120   40.2230  113.6000 C.ar  213  TYR213     -0.0009
     72  CD2       33.0640   40.0290  115.4060 C.ar  213  TYR213     -0.0009
     73  CE1       33.6420   39.7960  112.7090 C.ar  213  TYR213      0.0417
     74  CE2       32.0840   39.6300  114.5200 C.ar  213  TYR213      0.0417
     75  CZ        32.3820   39.5110  113.1760 C.ar  213  TYR213      0.1957
     76  OH        31.3900   39.0870  112.3400 O.3   213  TYR213     -0.2866
     77  N         34.9000   47.3160  117.3270 N.3   216  TRP216     -0.1227
     78  CA        35.2760   48.3000  116.3160 C.3   216  TRP216      0.1737
     79  C         34.0470   49.0940  115.8620 C.2   216  TRP216      0.2595
     80  O         32.9450   48.5560  115.8730 O.2   216  TRP216     -0.2718
     81  CB        35.9930   47.6530  115.1170 C.3   216  TRP216      0.0564
     82  CG        36.5170   48.6980  114.1920 C.ar  216  TRP216      0.0003
     83  CD1       35.9820   49.0910  113.0140 C.ar  216  TRP216      0.0946
     84  CD2       37.6430   49.5420  114.4270 C.ar  216  TRP216      0.0152
     85  NE1       36.7250   50.1130  112.4700 N.ar  216  TRP216     -0.2442
     86  CE2       37.7500   50.4110  113.3260 C.ar  216  TRP216      0.0810
     87  CE3       38.5960   49.6170  115.4440 C.ar  216  TRP216      0.0012
     88  CZ2       38.7640   51.3490  113.2170 C.ar  216  TRP216      0.0191
     89  CZ3       39.5930   50.5410  115.3380 C.ar  216  TRP216      0.0001
     90  CH2       39.6770   51.3960  114.2300 C.ar  216  TRP216      0.0015
     91  N         34.2530   50.3640  115.4850 N.am  217  TYR217     -0.1976
     92  CA        33.1790   51.2690  115.0830 C.3   217  TYR217      0.1639
     93  C         32.2200   50.6380  114.0300 C.2   217  TYR217      0.2290
     94  O         32.6840   50.2170  112.9710 O.2   217  TYR217     -0.2864
     95  CB        33.7850   52.5760  114.5430 C.3   217  TYR217      0.0560
     96  CG        32.7530   53.6490  114.2820 C.ar  217  TYR217     -0.0198
     97  CD1       32.0740   53.7190  113.0680 C.ar  217  TYR217     -0.0009
     98  CD2       32.4570   54.5880  115.2440 C.ar  217  TYR217     -0.0009
     99  CE1       31.1140   54.7000  112.8310 C.ar  217  TYR217      0.0417
    100  CE2       31.5020   55.5670  115.0130 C.ar  217  TYR217      0.0417
    101  CZ        30.8350   55.6390  113.8000 C.ar  217  TYR217      0.1957
    102  OH        29.8740   56.6110  113.5950 O.3   217  TYR217     -0.2866
    103  N         35.3860   57.0860  113.6020 N.3   350  ARG350     -0.1245
    104  CA        36.0670   55.9310  112.9980 C.3   350  ARG350      0.1563
    105  C         37.4770   56.2880  112.5390 C.2   350  ARG350      0.2260
    106  O         38.4240   55.5550  112.8410 O.2   350  ARG350     -0.2867
    107  CB        35.2650   55.3290  111.8510 C.3   350  ARG350      0.0307
    108  CG        35.7090   53.9260  111.4480 C.3   350  ARG350      0.0489
    109  CD        35.2790   53.6410  110.0300 C.3   350  ARG350      0.2205
    110  NE        35.9670   54.5100  109.0560 N.pl3 350  ARG350     -0.0865
    111  CZ        37.0760   54.1900  108.3870 C.cat 350  ARG350      0.5346
    112  NH1       37.6440   53.0040  108.5560 N.pl3 350  ARG350      0.1354
    113  NH2       37.6330   55.0460  107.5380 N.pl3 350  ARG350      0.1354
    114  N         41.4300   55.1790  114.1580 N.3   354  LEU354     -0.1245
    115  CA        42.3000   54.6920  113.1030 C.3   354  LEU354      0.1561
    116  C         43.5200   55.5710  112.9330 C.2   354  LEU354      0.2260
    117  O         44.5590   55.0790  112.5120 O.2   354  LEU354     -0.2867
    118  CB        41.4800   54.6190  111.7990 C.3   354  LEU354      0.0270
    119  CG        41.7870   53.5310  110.7710 C.3   354  LEU354      0.0019
    120  CD1       41.7120   52.1100  111.3100 C.3   354  LEU354      0.0001
    121  CD2       40.8030   53.6920  109.6300 C.3   354  LEU354      0.0001
    122  N         45.6940   54.8220  115.9590 N.3   357  LEU357     -0.1245
    123  CA        46.2280   53.4780  115.7130 C.3   357  LEU357      0.1561
    124  C         47.4170   53.5230  114.7470 C.2   357  LEU357      0.2260
    125  O         48.3840   52.7790  114.8680 O.2   357  LEU357     -0.2867
    126  CB        45.1190   52.5470  115.1700 C.3   357  LEU357      0.0270
    127  CG        43.9490   52.2400  116.1140 C.3   357  LEU357      0.0019
    128  CD1       42.8340   51.4960  115.3990 C.3   357  LEU357      0.0001
    129  CD2       44.3960   51.4700  117.3270 C.3   357  LEU357      0.0001
    130  N         51.3090   52.6760  115.2990 N.3   361  ILE361     -0.1245
    131  CA        52.1460   51.9370  114.3490 C.3   361  ILE361      0.1561
    132  C         53.4440   52.7390  114.0890 C.2   361  ILE361      0.2260
    133  O         54.5420   52.1690  114.1110 O.2   361  ILE361     -0.2867
    134  CB        51.3730   51.6170  113.0320 C.3   361  ILE361      0.0252
    135  CG1       50.2880   50.5730  113.2880 C.3   361  ILE361      0.0019
    136  CG2       52.3130   51.0860  111.9580 C.3   361  ILE361      0.0019
    137  CD1       49.1260   50.6840  112.3250 C.3   361  ILE361      0.0001
    138  N         55.9400   52.4200  117.0540 N.3   364  SER364     -0.1202
    139  CA        56.5340   51.0690  117.0130 C.3   364  SER364      0.2020
    140  C         57.6230   50.9710  115.9400 C.2   364  SER364      0.2618
    141  O         58.7050   50.4330  116.1990 O.2   364  SER364     -0.2717
    142  CB        55.4520   49.9900  116.7790 C.3   364  SER364      0.2103
    143  OG        54.7000   49.7570  117.9700 O.3   364  SER364     -0.2182
    144  N         57.3280   51.5060  114.7540 N.am  365  ALA365     -0.1979
    145  CA        58.2860   51.6350  113.6450 C.3   365  ALA365      0.1597
    146  C         59.4880   52.5120  114.0130 C.2   365  ALA365      0.2287
    147  O         60.6030   52.1780  113.6670 O.2   365  ALA365     -0.2864
    148  CB        57.5740   52.1910  112.4220 C.3   365  ALA365      0.0319
    149  N         61.5460   50.2900  116.4250 N.3   368  PHE368     -0.1241
    150  CA        62.2610   49.2840  115.5990 C.3   368  PHE368      0.1605
    151  C         63.4190   49.9510  114.8450 C.2   368  PHE368      0.2264
    152  O         64.4500   49.3390  114.6490 O.2   368  PHE368     -0.2867
    153  CB        61.3170   48.5630  114.5960 C.3   368  PHE368      0.0534
    154  CG        60.4810   47.4480  115.2000 C.ar  368  PHE368     -0.0203
    155  CD1       61.0740   46.2610  115.6160 C.ar  368  PHE368     -0.0042
    156  CD2       59.0920   47.5570  115.3110 C.ar  368  PHE368     -0.0042
    157  CE1       60.3180   45.2130  116.1620 C.ar  368  PHE368     -0.0003
    158  CE2       58.3310   46.5200  115.8600 C.ar  368  PHE368     -0.0003
    159  CZ        58.9450   45.3470  116.2870 C.ar  368  PHE368     -0.0000
@<TRIPOS>BOND
     1   113   111    1
     2   111   112    1
     3   111   110    2
     4   110   109    1
     5   121   119    1
     6   109   108    1
     7   119   120    1
     8   119   118    1
     9   108   107    1
    10   118   115    1
    11   107   104    1
    12   136   134    1
    13   137   135    1
    14    76    75    1
    15   148   145    1
    16    85    83   ar
    17    85    86   ar
    18   117   116    2
    19   105   106    2
    20   105   104    1
    21    73    75   ar
    22    73    71   ar
    23    99    97   ar
    24    99   101   ar
    25   116   115    1
    26    94    93    2
    27   104   103    1
    28    83    82   ar
    29   134   135    1
    30   134   131    1
    31    97    96   ar
    32   115   114    1
    33    75    74   ar
    34    88    86   ar
    35    88    90   ar
    36    86    84   ar
    37   102   101    1
    38    71    70   ar
    39   145   146    1
    40   145   144    1
    41   147   146    2
    42   101   100   ar
    43    36    35    1
    44    37    35    1
    45    93    92    1
    46   132   133    2
    47   132   131    1
    48    82    84   ar
    49    82    81    1
    50    90    89   ar
    51    96    95    1
    52    96    98   ar
    53   131   130    1
    54    84    87   ar
    55    74    72   ar
    56    95    92    1
    57    56    54    1
    58   153   154    1
    59   153   150    1
    60   152   151    2
    61   124   125    2
    62   124   123    1
    63   144   140   am
    64    35    32    1
    65   151   150    1
    66    70    72   ar
    67    70    69    1
    68    55    54    1
    69   100    98   ar
    70    92    91    1
    71    81    78    1
    72   126   123    1
    73   126   127    1
    74   154   156   ar
    75   154   155   ar
    76    54    53    1
    77   156   158   ar
    78    89    87   ar
    79   128   127    1
    80    48    47   ar
    81    48    46   ar
    82    91    79   am
    83    47    45   ar
    84    68    67    2
    85   150   149    1
    86   155   157   ar
    87    32    33    1
    88    32    31    1
    89   123   122    1
    90    34    33    2
    91   158   159   ar
    92    79    80    2
    93    79    78    1
    94    69    66    1
    95   140   141    2
    96   140   139    1
    97    64    62    1
    98    66    67    1
    99    66    65    1
   100   127   129    1
   101   157   159   ar
   102    24    21    1
   103    78    77    1
   104    46    44   ar
   105    19    17    1
   106    45    43   ar
   107    23    22    2
   108    60    59    2
   109   142   139    1
   110   142   143    1
   111    53    50    1
   112    18    17    1
   113   139   138    1
   114    52    51    2
   115    65    59   am
   116    22    21    1
   117    22    25   am
   118    62    61    1
   119    62    63    1
   120    21    20    1
   121    59    58    1
   122    12    10    1
   123    17    14    1
   124    30    29    1
   125    44    43   ar
   126    51    50    1
   127    50    49    1
   128    25    26    1
   129    43    42    1
   130    10     9    1
   131    10    11    1
   132    14    13    1
   133    14    15    1
   134    26    29    1
   135    26    27    1
   136    61    58    1
   137     8     7    2
   138    16    15    2
   139    28    27    2
   140    13     7   am
   141    58    57    1
   142     9     6    1
   143     7     6    1
   144     4     3    2
   145    42    39    1
   146     2     3    1
   147     2     1    1
   148    41    40    2
   149     6     5    1
   150    40    39    1
   151    39    38    1
