@<TRIPOS>MOLECULE
tmp/6fwzA01.pdb
 91 89 0 0 0
SMALL
GASTEIGER

@<TRIPOS>ATOM
      1  N         70.4740   47.2940  136.6540 N.3   132  ILE132     -0.1231
      2  CA        69.9740   47.9490  135.4290 C.3   132  ILE132      0.1692
      3  C         71.1060   48.6680  134.6560 C.2   132  ILE132      0.2591
      4  O         72.1090   49.0830  135.2510 O.2   132  ILE132     -0.2718
      5  CB        68.8570   48.9670  135.7580 C.3   132  ILE132      0.0266
      6  CG1       68.0350   49.3060  134.5130 C.3   132  ILE132      0.0019
      7  CG2       69.3970   50.1550  136.5560 C.3   132  ILE132      0.0020
      8  CD1       66.7230   49.9430  134.8240 C.3   132  ILE132      0.0001
      9  N         70.9490   48.7870  133.3300 N.am  133  VAL133     -0.1980
     10  CA        71.8930   49.5190  132.4480 C.3   133  VAL133      0.1595
     11  C         71.2780   50.8940  132.1370 C.2   133  VAL133      0.2287
     12  O         70.0930   50.9620  131.7340 O.2   133  VAL133     -0.2864
     13  CB        72.1930   48.7420  131.1350 C.3   133  VAL133      0.0276
     14  CG1       73.1550   49.5060  130.2320 C.3   133  VAL133      0.0022
     15  CG2       72.8370   47.4020  131.4970 C.3   133  VAL133      0.0022
     16  N         69.7590   48.3850  141.4810 N.3   138  LEU138     -0.1245
     17  CA        68.5960   48.9960  142.1440 C.3   138  LEU138      0.1561
     18  C         68.0300   48.1980  143.3230 C.2   138  LEU138      0.2260
     19  O         67.3550   48.7750  144.1790 O.2   138  LEU138     -0.2867
     20  CB        67.4810   49.2590  141.1260 C.3   138  LEU138      0.0270
     21  CG        67.7480   50.4430  140.1880 C.3   138  LEU138      0.0019
     22  CD1       67.0450   50.2210  138.8520 C.3   138  LEU138      0.0001
     23  CD2       67.3260   51.7480  140.8640 C.3   138  LEU138      0.0001
     24  N         64.2740   48.1130  142.2860 N.3   142  TYR142     -0.1241
     25  CA        63.9520   47.4050  141.0480 C.3   142  TYR142      0.1605
     26  C         62.5890   46.6940  141.1680 C.2   142  TYR142      0.2264
     27  O         61.8190   46.6730  140.2080 O.2   142  TYR142     -0.2867
     28  CB        65.0640   46.4200  140.6310 C.3   142  TYR142      0.0534
     29  CG        64.9330   45.9900  139.1710 C.ar  142  TYR142     -0.0201
     30  CD1       65.5470   46.7140  138.1410 C.ar  142  TYR142     -0.0009
     31  CD2       64.1610   44.8780  138.8230 C.ar  142  TYR142     -0.0009
     32  CE1       65.4000   46.3250  136.8140 C.ar  142  TYR142      0.0417
     33  CE2       64.0070   44.4810  137.5050 C.ar  142  TYR142      0.0417
     34  CZ        64.6280   45.2060  136.5030 C.ar  142  TYR142      0.1957
     35  OH        64.4790   44.8230  135.1880 O.3   142  TYR142     -0.2866
     36  N         59.9450   49.2400  140.8910 N.3   145  TYR145     -0.1241
     37  CA        59.7690   49.4790  139.4480 C.3   145  TYR145      0.1605
     38  C         58.8350   48.4370  138.7720 C.2   145  TYR145      0.2264
     39  O         57.9230   48.8110  138.0380 O.2   145  TYR145     -0.2867
     40  CB        61.1360   49.5810  138.7260 C.3   145  TYR145      0.0534
     41  CG        61.0160   49.4120  137.2320 C.ar  145  TYR145     -0.0201
     42  CD1       60.4830   50.4290  136.4350 C.ar  145  TYR145     -0.0009
     43  CD2       61.3740   48.2210  136.6120 C.ar  145  TYR145     -0.0009
     44  CE1       60.3210   50.2700  135.0590 C.ar  145  TYR145      0.0417
     45  CE2       61.2110   48.0520  135.2360 C.ar  145  TYR145      0.0417
     46  CZ        60.6870   49.0760  134.4590 C.ar  145  TYR145      0.1957
     47  OH        60.5380   48.9070  133.0930 O.3   145  TYR145     -0.2866
     48  N         62.6440   40.3300  130.1250 N.3   243  HIS243     -0.1226
     49  CA        63.7190   41.2790  130.3960 C.3   243  HIS243      0.1752
     50  C         63.8110   42.4060  129.3650 C.2   243  HIS243      0.2596
     51  O         64.8800   42.9820  129.1740 O.2   243  HIS243     -0.2718
     52  CB        65.0700   40.5720  130.6100 C.3   243  HIS243      0.0759
     53  CG        65.0710   39.5920  131.7440 C.ar  243  HIS243      0.0818
     54  ND1       64.1530   38.5640  131.8510 N.ar  243  HIS243     -0.2268
     55  CD2       65.9080   39.4620  132.8040 C.ar  243  HIS243      0.1154
     56  CE1       64.4170   37.8530  132.9340 C.ar  243  HIS243      0.1986
     57  NE2       65.4750   38.3780  133.5310 N.ar  243  HIS243     -0.2212
     58  N         62.6760   42.7550  128.7510 N.am  244  PHE244     -0.1962
     59  CA        62.6560   43.7530  127.6760 C.3   244  PHE244      0.1771
     60  C         61.6620   44.8810  127.9260 C.2   244  PHE244      0.2620
     61  O         61.1230   45.4820  126.9610 O.2   244  PHE244     -0.2715
     62  CB        62.4230   43.1190  126.2850 C.3   244  PHE244      0.0574
     63  CG        61.2150   42.2510  126.1650 C.ar  244  PHE244     -0.0200
     64  CD1       59.9610   42.8050  125.9390 C.ar  244  PHE244     -0.0042
     65  CD2       61.3460   40.8670  126.1460 C.ar  244  PHE244     -0.0042
     66  CE1       58.8330   41.9990  125.7750 C.ar  244  PHE244     -0.0003
     67  CE2       60.2420   40.0420  125.9770 C.ar  244  PHE244     -0.0003
     68  CZ        58.9750   40.6160  125.7980 C.ar  244  PHE244     -0.0000
     69  N         61.4740   45.2090  129.2140 N.am  245  SER245     -0.1936
     70  CA        60.5260   46.2400  129.6510 C.3   245  SER245      0.2055
     71  C         60.8770   47.6020  129.0450 C.2   245  SER245      0.2642
     72  O         59.9680   48.3290  128.6710 O.2   245  SER245     -0.2714
     73  CB        60.4670   46.3080  131.1870 C.3   245  SER245      0.2130
     74  OG        61.7650   46.4820  131.7470 O.3   245  SER245     -0.2179
     75  N         62.1800   47.9030  128.9080 N.am  246  LYS246     -0.1977
     76  CA        62.6880   49.1480  128.2780 C.3   246  LYS246      0.1596
     77  C         62.1690   49.2830  126.8300 C.2   246  LYS246      0.2287
     78  O         61.5520   50.2870  126.4730 O.2   246  LYS246     -0.2864
     79  CB        64.2460   49.2280  128.3260 C.3   246  LYS246      0.0298
     80  CG        64.8960   49.0980  129.7330 C.3   246  LYS246      0.0038
     81  CD        64.3150   50.0470  130.7180 C.3   246  LYS246      0.0206
     82  CE        64.8200   49.8660  132.1340 C.3   246  LYS246      0.1093
     83  NZ        64.3860   48.5300  132.7030 N.3   246  LYS246     -0.1314
     84  N         58.3330   49.5820  126.7820 N.3   249  LEU249     -0.1245
     85  CA        57.8770   50.9230  127.1590 C.3   249  LEU249      0.1561
     86  C         57.9790   51.9150  125.9970 C.2   249  LEU249      0.2260
     87  O         57.2120   52.8810  125.9390 O.2   249  LEU249     -0.2867
     88  CB        58.6380   51.4550  128.3860 C.3   249  LEU249      0.0270
     89  CG        58.1920   50.8840  129.7440 C.3   249  LEU249      0.0019
     90  CD1       59.2360   51.2240  130.8000 C.3   249  LEU249      0.0001
     91  CD2       56.8020   51.3660  130.1740 C.3   249  LEU249      0.0001
@<TRIPOS>BOND
     1    66    68   ar
     2    66    64   ar
     3    68    67   ar
     4    64    63   ar
     5    87    86    2
     6    67    65   ar
     7    86    85    1
     8    65    63   ar
     9    63    62    1
    10    62    59    1
    11    78    77    2
    12    84    85    1
    13    77    76    1
    14    61    60    2
    15    85    88    1
    16    59    60    1
    17    59    58    1
    18    60    69   am
    19    76    79    1
    20    76    75    1
    21    79    80    1
    22    88    89    1
    23    72    71    2
    24    58    50   am
    25    75    71   am
    26    71    70    1
    27    51    50    2
    28    69    70    1
    29    50    49    1
    30    70    73    1
    31    80    81    1
    32    89    91    1
    33    89    90    1
    34    48    49    1
    35    14    13    1
    36    49    52    1
    37    52    53    1
    38    81    82    1
    39    13    15    1
    40    13    10    1
    41    73    74    1
    42    12    11    2
    43    53    54   ar
    44    53    55   ar
    45    54    56   ar
    46    82    83    1
    47    11    10    1
    48    10     9    1
    49    55    57   ar
    50    56    57   ar
    51    47    46    1
    52     9     3   am
    53    46    44   ar
    54    46    45   ar
    55     6     8    1
    56     6     5    1
    57     3     4    2
    58     3     2    1
    59    44    42   ar
    60    35    34    1
    61    45    43   ar
    62     2     5    1
    63     2     1    1
    64     5     7    1
    65    42    41   ar
    66    34    32   ar
    67    34    33   ar
    68    43    41   ar
    69    32    30   ar
    70    41    40    1
    71    33    31   ar
    72    39    38    2
    73    30    29   ar
    74    40    37    1
    75    38    37    1
    76    31    29   ar
    77    22    21    1
    78    29    28    1
    79    37    36    1
    80    21    23    1
    81    21    20    1
    82    27    26    2
    83    28    25    1
    84    25    26    1
    85    25    24    1
    86    20    17    1
    87    16    17    1
    88    17    18    1
    89    18    19    2
