@<TRIPOS>MOLECULE
tmp/6fwzA00.pdb
 213 204 0 0 0
SMALL
GASTEIGER

@<TRIPOS>ATOM
      1  N         26.8280   47.6750  131.4870 N.3    36  CYS36      -0.1221
      2  CA        26.6360   48.3010  130.1950 C.3    36  CYS36       0.1808
      3  C         26.8200   49.8250  130.3270 C.2    36  CYS36       0.2602
      4  O         27.1860   50.3340  131.4060 O.2    36  CYS36      -0.2717
      5  CB        25.2530   47.9310  129.6800 C.3    36  CYS36       0.0970
      6  SG        23.9980   48.3090  130.8980 S.3    36  CYS36      -0.0800
      7  N         26.6370   50.5330  129.2120 N.am   37  GLY37      -0.1942
      8  CA        26.7450   51.9950  129.1480 C.3    37  GLY37       0.2014
      9  C         26.4230   52.5450  127.7740 C.2    37  GLY37       0.2639
     10  O         26.5650   51.8270  126.7830 O.2    37  GLY37      -0.2714
     11  N         26.0000   53.8090  127.7100 N.am   38  GLN38      -0.1963
     12  CA        25.6900   54.4700  126.4220 C.3    38  GLN38       0.1733
     13  C         26.9650   54.8160  125.6460 C.2    38  GLN38       0.2616
     14  O         28.0300   54.9230  126.2350 O.2    38  GLN38      -0.2715
     15  CB        24.8780   55.7520  126.6340 C.3    38  GLN38       0.0408
     16  CG        23.5190   55.5440  127.2770 C.3    38  GLN38       0.0908
     17  CD        22.7790   56.8540  127.5240 C.2    38  GLN38       0.2608
     18  OE1       23.1180   57.9110  126.9450 O.2    38  GLN38      -0.2717
     19  NE2       21.7420   56.7960  128.3830 N.am   38  GLN38      -0.0878
     20  N         26.8510   54.9760  124.3280 N.am   39  ASP39      -0.1957
     21  CA        27.9770   55.3880  123.4790 C.3    39  ASP39       0.1840
     22  C         27.9850   56.9070  123.5240 C.2    39  ASP39       0.2622
     23  O         27.3920   57.5800  122.6830 O.2    39  ASP39      -0.2715
     24  CB        27.8050   54.8450  122.0580 C.3    39  ASP39       0.1450
     25  CG        29.1020   54.7930  121.2760 C.2    39  ASP39       0.3671
     26  OD1       29.8340   55.8020  121.2010 O.co2  39  ASP39      -0.2456
     27  OD2       29.3360   53.7310  120.6550 O.co2  39  ASP39      -0.2456
     28  N         28.6670   57.4370  124.5370 N.am   40  LEU40      -0.1963
     29  CA        28.6740   58.8620  124.8570 C.3    40  LEU40       0.1728
     30  C         29.0270   59.7990  123.6890 C.2    40  LEU40       0.2616
     31  O         28.7750   61.0010  123.7960 O.2    40  LEU40      -0.2715
     32  CB        29.6420   59.1200  126.0250 C.3    40  LEU40       0.0311
     33  CG        29.3680   58.5130  127.4030 C.3    40  LEU40       0.0022
     34  CD1       30.4080   58.9940  128.4170 C.3    40  LEU40       0.0001
     35  CD2       27.9730   58.8560  127.8800 C.3    40  LEU40       0.0001
     36  N         29.6020   59.2800  122.5950 N.am   41  ASN41      -0.1972
     37  CA        29.9480   60.0980  121.4120 C.3    41  ASN41       0.1688
     38  C         29.0030   59.8720  120.2060 C.2    41  ASN41       0.2292
     39  O         29.3580   60.1930  119.0360 O.2    41  ASN41      -0.2864
     40  CB        31.3810   59.7800  121.0120 C.3    41  ASN41       0.1181
     41  CG        32.3650   60.0670  122.1140 C.2    41  ASN41       0.2629
     42  OD1       32.2990   61.1270  122.7600 O.2    41  ASN41      -0.2716
     43  ND2       33.2770   59.1070  122.3580 N.am   41  ASN41      -0.0877
     44  N         29.0900   46.2790  128.5850 N.3    50  GLU50      -0.1245
     45  CA        30.4440   46.7110  128.9720 C.3    50  GLU50       0.1567
     46  C         31.2250   45.4740  129.4820 C.2    50  GLU50       0.2260
     47  O         30.7190   44.3430  129.4670 O.2    50  GLU50      -0.2867
     48  CB        30.3190   47.7970  130.0380 C.3    50  GLU50       0.0388
     49  CG        31.6050   48.5410  130.4410 C.3    50  GLU50       0.1160
     50  CD        32.0710   49.6240  129.4830 C.2    50  GLU50       0.3649
     51  OE1       31.2320   50.4370  129.0850 O.co2  50  GLU50      -0.2457
     52  OE2       33.2800   49.7320  129.1910 O.co2  50  GLU50      -0.2457
     53  N         42.5960   51.8260  141.6290 N.3   108  LYS108     -0.1245
     54  CA        43.1860   51.8280  140.2540 C.3   108  LYS108      0.1561
     55  C         44.7190   51.6880  140.2730 C.2   108  LYS108      0.2260
     56  O         45.3410   51.4560  139.2190 O.2   108  LYS108     -0.2867
     57  CB        42.7690   53.0790  139.4430 C.3   108  LYS108      0.0271
     58  CG        41.3540   52.9990  138.8610 C.3   108  LYS108      0.0035
     59  CD        41.3450   52.9690  137.3340 C.3   108  LYS108      0.0206
     60  CE        39.9500   53.2620  136.7750 C.3   108  LYS108      0.1093
     61  NZ        39.0510   52.0840  136.8000 N.3   108  LYS108     -0.1314
     62  N         44.0030   52.7010  129.9250 N.3   158  ASN158     -0.1225
     63  CA        42.7200   53.1770  130.4340 C.3   158  ASN158      0.1785
     64  C         42.4430   54.7060  130.2940 C.2   158  ASN158      0.2597
     65  O         41.2860   55.1020  130.0940 O.2   158  ASN158     -0.2718
     66  CB        42.5580   52.7500  131.8910 C.3   158  ASN158      0.1169
     67  CG        41.1940   53.0810  132.4310 C.2   158  ASN158      0.2627
     68  OD1       40.1690   52.8570  131.7780 O.2   158  ASN158     -0.2716
     69  ND2       41.1750   53.6690  133.6010 N.am  158  ASN158     -0.0877
     70  N         43.4690   55.5580  130.3880 N.am  159  ILE159     -0.1980
     71  CA        43.2770   56.9970  130.2110 C.3   159  ILE159      0.1595
     72  C         43.4030   57.4300  128.7350 C.2   159  ILE159      0.2287
     73  O         43.0180   58.5670  128.4000 O.2   159  ILE159     -0.2864
     74  CB        44.1140   57.8900  131.1790 C.3   159  ILE159      0.0276
     75  CG1       45.6270   57.8250  130.9330 C.3   159  ILE159      0.0022
     76  CG2       43.7550   57.5760  132.6140 C.3   159  ILE159      0.0022
     77  CD1       46.3460   59.1030  131.3820 C.3   159  ILE159      0.0001
     78  N         41.5710   56.4260  126.0500 N.3   161  ALA161     -0.1231
     79  CA        40.3560   55.6510  125.7630 C.3   161  ALA161      0.1694
     80  C         39.1700   56.5620  125.5410 C.2   161  ALA161      0.2593
     81  O         39.3000   57.8150  125.6950 O.2   161  ALA161     -0.2718
     82  CB        40.0580   54.6980  126.9270 C.3   161  ALA161      0.0304
     83  N         38.0410   55.9070  125.1970 N.am  162  GLY162     -0.1942
     84  CA        36.7160   56.5130  125.1280 C.3   162  GLY162      0.2014
     85  C         36.1620   56.7160  123.7250 C.2   162  GLY162      0.2639
     86  O         35.1490   57.4140  123.5590 O.2   162  GLY162     -0.2714
     87  N         36.8240   56.1410  122.7140 N.am  163  ILE163     -0.1963
     88  CA        36.3350   56.1560  121.3190 C.3   163  ILE163      0.1727
     89  C         36.4350   54.7160  120.7780 C.2   163  ILE163      0.2616
     90  O         37.2990   53.9280  121.1870 O.2   163  ILE163     -0.2715
     91  CB        37.0280   57.2310  120.4020 C.3   163  ILE163      0.0290
     92  CG1       38.5530   57.0570  120.3150 C.3   163  ILE163      0.0022
     93  CG2       36.6880   58.6570  120.8640 C.3   163  ILE163      0.0023
     94  CD1       39.2140   57.8940  119.2480 C.3   163  ILE163      0.0001
     95  N         35.4700   54.3750  119.9290 N.am  164  ASN164     -0.1958
     96  CA        35.2230   53.0190  119.4440 C.3   164  ASN164      0.1819
     97  C         36.4810   52.3550  118.8600 C.2   164  ASN164      0.2621
     98  O         36.9780   52.7580  117.7630 O.2   164  ASN164     -0.2715
     99  CB        34.1310   53.0490  118.3400 C.3   164  ASN164      0.1195
    100  CG        32.6990   53.2290  118.8640 C.2   164  ASN164      0.2630
    101  OD1       31.7480   52.9280  118.1360 O.2   164  ASN164     -0.2716
    102  ND2       32.5350   53.7040  120.0930 N.am  164  ASN164     -0.0877
    103  N         36.9500   51.3220  119.5740 N.am  165  GLY165     -0.1954
    104  CA        38.0850   50.4890  119.1540 C.3   165  GLY165      0.1869
    105  C         39.4880   50.9720  119.5270 C.2   165  GLY165      0.2309
    106  O         40.4720   50.3990  119.0650 O.2   165  GLY165     -0.2863
    107  N         41.0530   51.3680  122.8440 N.3   167  GLU167     -0.1245
    108  CA        41.6490   50.5840  123.9470 C.3   167  GLU167      0.1567
    109  C         42.1140   49.2190  123.4800 C.2   167  GLU167      0.2260
    110  O         43.2400   48.8170  123.7210 O.2   167  GLU167     -0.2867
    111  CB        40.6300   50.3540  125.0950 C.3   167  GLU167      0.0388
    112  CG        39.8790   51.5760  125.6200 C.3   167  GLU167      0.1160
    113  CD        38.6200   51.9000  124.8330 C.2   167  GLU167      0.3649
    114  OE1       38.4460   51.3900  123.6990 O.co2 167  GLU167     -0.2457
    115  OE2       37.8090   52.6940  125.3570 O.co2 167  GLU167     -0.2457
    116  N         33.8640   45.3220  119.0260 N.3   215  ASN215     -0.1240
    117  CA        34.1440   46.6570  119.5770 C.3   215  ASN215      0.1653
    118  C         34.3910   47.7050  118.4960 C.2   215  ASN215      0.2266
    119  O         34.1090   48.8770  118.7260 O.2   215  ASN215     -0.2867
    120  CB        35.3660   46.6060  120.5120 C.3   215  ASN215      0.1155
    121  CG        35.5840   47.8920  121.3090 C.2   215  ASN215      0.2627
    122  OD1       36.6960   48.4260  121.3570 O.2   215  ASN215     -0.2716
    123  ND2       34.5360   48.3720  121.9650 N.am  215  ASN215     -0.0877
    124  N         30.6870   50.3540  117.7920 N.3   219  SER219     -0.1217
    125  CA        30.8230   49.4490  118.9270 C.3   219  SER219      0.1889
    126  C         29.5000   48.7780  119.2290 C.2   219  SER219      0.2288
    127  O         28.5090   49.4830  119.4050 O.2   219  SER219     -0.2866
    128  CB        31.3060   50.1920  120.1770 C.3   219  SER219      0.2089
    129  OG        32.6410   50.6480  120.0440 O.3   219  SER219     -0.2183
    130  N         31.4430   47.1000  124.6570 N.3   222  PHE222     -0.1241
    131  CA        32.5100   47.9050  125.2220 C.3   222  PHE222      0.1605
    132  C         33.4300   46.9680  126.0160 C.2   222  PHE222      0.2264
    133  O         32.9770   45.9460  126.5660 O.2   222  PHE222     -0.2867
    134  CB        31.9540   49.0380  126.0900 C.3   222  PHE222      0.0534
    135  CG        31.3600   50.1940  125.3260 C.ar  222  PHE222     -0.0203
    136  CD1       31.9410   50.6670  124.1630 C.ar  222  PHE222     -0.0042
    137  CD2       30.2200   50.8410  125.8060 C.ar  222  PHE222     -0.0042
    138  CE1       31.3900   51.7400  123.4700 C.ar  222  PHE222     -0.0003
    139  CE2       29.6540   51.9040  125.1180 C.ar  222  PHE222     -0.0003
    140  CZ        30.2500   52.3620  123.9530 C.ar  222  PHE222     -0.0000
    141  N         35.4780   47.6240  128.7830 N.3   224  GLY224     -0.1210
    142  CA        35.5350   47.8740  130.2320 C.3   224  GLY224      0.1956
    143  C         36.9400   48.0600  130.7680 C.2   224  GLY224      0.2611
    144  O         37.9110   47.8560  130.0320 O.2   224  GLY224     -0.2717
    145  N         37.0610   48.4370  132.0470 N.am  225  ASP225     -0.1973
    146  CA        38.3960   48.5160  132.6880 C.3   225  ASP225      0.1709
    147  C         39.0420   47.1180  132.7880 C.2   225  ASP225      0.2293
    148  O         40.2620   47.0200  132.7930 O.2   225  ASP225     -0.2864
    149  CB        38.4110   49.1890  134.0830 C.3   225  ASP225      0.1436
    150  CG        37.8930   50.6170  134.0780 C.2   225  ASP225      0.3671
    151  OD1       38.2500   51.3600  133.1440 O.co2 225  ASP225     -0.2456
    152  OD2       37.1580   51.0010  135.0400 O.co2 225  ASP225     -0.2456
    153  N         44.9430   65.0220  136.0050 N.3   266  LEU266     -0.1245
    154  CA        44.9710   63.8650  136.9430 C.3   266  LEU266      0.1561
    155  C         45.3010   64.3230  138.3810 C.2   266  LEU266      0.2260
    156  O         44.6170   63.9300  139.3280 O.2   266  LEU266     -0.2867
    157  CB        45.9810   62.7890  136.5030 C.3   266  LEU266      0.0270
    158  CG        45.9030   62.2080  135.0820 C.3   266  LEU266      0.0019
    159  CD1       47.2280   61.5660  134.6620 C.3   266  LEU266      0.0001
    160  CD2       44.7310   61.2570  134.9140 C.3   266  LEU266      0.0001
    161  N         39.5640   68.5140  136.5070 N.3   272  CYS272     -0.1221
    162  CA        39.4760   67.3250  135.6490 C.3   272  CYS272      0.1794
    163  C         38.0660   66.7200  135.6190 C.2   272  CYS272      0.2443
    164  O         37.6250   66.1750  136.6270 O.2   272  CYS272     -0.2733
    165  CB        40.4730   66.2660  136.1170 C.3   272  CYS272      0.0970
    166  SG        40.5270   64.7940  135.0420 S.3   272  CYS272     -0.0800
    167  N         37.3590   66.7980  134.4600 N.am  273  PRO273     -0.2718
    168  CA        36.0440   66.1590  134.3850 C.3   273  PRO273      0.1535
    169  C         36.1690   64.6540  134.3370 C.2   273  PRO273      0.2598
    170  O         37.1860   64.1490  133.8750 O.2   273  PRO273     -0.2715
    171  CB        35.4490   66.7040  133.0860 C.3   273  PRO273      0.0310
    172  CG        36.6030   67.1020  132.2620 C.3   273  PRO273      0.0237
    173  CD        37.7170   67.4620  133.1880 C.3   273  PRO273      0.0939
    174  N         35.1480   63.9630  134.8490 N.am  274  ARG274     -0.1964
    175  CA        35.1250   62.4840  134.9410 C.3   274  ARG274      0.1729
    176  C         35.3280   61.8570  133.5650 C.2   274  ARG274      0.2616
    177  O         36.0380   60.8590  133.4340 O.2   274  ARG274     -0.2715
    178  CB        33.8230   61.9930  135.6100 C.3   274  ARG274      0.0348
    179  CG        33.2430   60.6900  135.0890 C.3   274  ARG274      0.0492
    180  CD        33.6490   59.5570  135.9590 C.3   274  ARG274      0.2205
    181  NE        33.3820   58.2810  135.3160 N.pl3 274  ARG274     -0.0865
    182  CZ        34.2580   57.5790  134.5960 C.cat 274  ARG274      0.5346
    183  NH1       33.8940   56.4170  134.0770 N.pl3 274  ARG274      0.1354
    184  NH2       35.4970   58.0090  134.3750 N.pl3 274  ARG274      0.1354
    185  N         34.7130   62.4630  132.5420 N.am  275  HIS275     -0.1959
    186  CA        34.8890   62.0330  131.1560 C.3   275  HIS275      0.1787
    187  C         35.5510   63.1430  130.3690 C.2   275  HIS275      0.2620
    188  O         35.0310   64.2380  130.3170 O.2   275  HIS275     -0.2715
    189  CB        33.5640   61.6130  130.5380 C.3   275  HIS275      0.0785
    190  CG        33.1700   60.2380  130.9210 C.ar  275  HIS275      0.0821
    191  ND1       33.7880   59.1320  130.3960 N.ar  275  HIS275     -0.2267
    192  CD2       32.2780   59.7820  131.8250 C.ar  275  HIS275      0.1154
    193  CE1       33.2650   58.0470  130.9310 C.ar  275  HIS275      0.1986
    194  NE2       32.3460   58.4150  131.8050 N.ar  275  HIS275     -0.2212
    195  N         36.7280   62.8600  129.8110 N.am  276  ARG276     -0.1963
    196  CA        37.4820   63.8150  129.0060 C.3   276  ARG276      0.1729
    197  C         37.4550   63.4370  127.5250 C.2   276  ARG276      0.2616
    198  O         38.2710   63.9150  126.7360 O.2   276  ARG276     -0.2715
    199  CB        38.9080   63.9140  129.5320 C.3   276  ARG276      0.0348
    200  CG        38.9460   64.2710  131.0100 C.3   276  ARG276      0.0492
    201  CD        40.3420   64.6110  131.4570 C.3   276  ARG276      0.2205
    202  NE        41.2320   63.4910  131.2250 N.pl3 276  ARG276     -0.0865
    203  CZ        42.5420   63.5960  131.0700 C.cat 276  ARG276      0.5346
    204  NH1       43.1290   64.7810  131.1520 N.pl3 276  ARG276      0.1354
    205  NH2       43.2580   62.5000  130.8390 N.pl3 276  ARG276      0.1354
    206  N         36.4770   62.6060  127.1600 N.am  277  ILE277     -0.1977
    207  CA        36.2430   62.2090  125.7740 C.3   277  ILE277      0.1596
    208  C         35.7150   63.4140  124.9700 C.2   277  ILE277      0.2287
    209  O         34.9940   64.2580  125.5210 O.2   277  ILE277     -0.2864
    210  CB        35.2800   60.9930  125.6660 C.3   277  ILE277      0.0276
    211  CG1       33.9290   61.2710  126.3160 C.3   277  ILE277      0.0022
    212  CG2       35.9030   59.7950  126.3170 C.3   277  ILE277      0.0022
    213  CD1       32.9100   60.1890  126.0740 C.3   277  ILE277      0.0001
@<TRIPOS>BOND
     1    98    97    2
     2   124   125    1
     3   101   100    2
     4    99   100    1
     5    99    96    1
     6   118   119    2
     7   118   117    1
     8    97    96    1
     9    97   103   am
    10   100   102   am
    11   125   126    1
    12   125   128    1
    13   116   117    1
    14    39    38    2
    15   106   105    2
    16   104   105    1
    17   104   103    1
    18   126   127    2
    19    94    92    1
    20    96    95    1
    21   117   120    1
    22    95    89   am
    23   129   128    1
    24    38    37    1
    25    92    91    1
    26    91    93    1
    27    91    88    1
    28   120   121    1
    29    27    25   ar
    30    89    90    2
    31    89    88    1
    32    40    37    1
    33    40    41    1
    34    26    25   ar
    35    25    24    1
    36   121   122    2
    37   121   123   am
    38    88    87    1
    39    37    36    1
    40    24    21    1
    41    41    43   am
    42    41    42    2
    43    36    30   am
    44    23    22    2
    45    87    85   am
    46   107   108    1
    47   138   140   ar
    48   138   136   ar
    49    21    22    1
    50    21    20    1
    51   109   110    2
    52   109   108    1
    53    22    28   am
    54    86    85    2
    55    30    31    2
    56    30    29    1
    57   114   113   ar
    58    85    84    1
    59   108   111    1
    60   140   139   ar
    61   136   135   ar
    62    20    13   am
    63    28    29    1
    64   130   131    1
    65   113   115   ar
    66   113   112    1
    67    29    32    1
    68   208   209    2
    69   208   207    1
    70   111   112    1
    71   139   137   ar
    72    84    83    1
    73    83    80   am
    74   131   132    1
    75   131   134    1
    76   135   137   ar
    77   135   134    1
    78    80    81    2
    79    80    79    1
    80    13    14    2
    81    13    12    1
    82   210   207    1
    83   210   211    1
    84   210   212    1
    85    79    78    1
    86    79    82    1
    87   207   206    1
    88   132   133    2
    89    32    33    1
    90   213   211    1
    91    12    15    1
    92    12    11    1
    93    15    16    1
    94   198   197    2
    95    10     9    2
    96    18    17    2
    97   206   197   am
    98    16    17    1
    99    33    35    1
   100    33    34    1
   101    17    19   am
   102   197   196    1
   103    11     9   am
   104     9     8    1
   105    73    72    2
   106    44    45    1
   107    72    71    1
   108   141   142    1
   109    45    46    1
   110    45    48    1
   111   196   199    1
   112   196   195    1
   113    51    50   ar
   114     8     7    1
   115    52    50   ar
   116     7     3   am
   117    47    46    2
   118    50    49    1
   119   199   200    1
   120     5     2    1
   121     5     6    1
   122   195   187   am
   123    62    63    1
   124   144   143    2
   125    48    49    1
   126    65    64    2
   127     2     3    1
   128     2     1    1
   129    71    70    1
   130    71    74    1
   131   142   143    1
   132    64    70   am
   133    64    63    1
   134   188   187    2
   135     3     4    2
   136   187   186    1
   137   191   190   ar
   138   191   193   ar
   139    63    66    1
   140   189   190    1
   141   189   186    1
   142   143   145   am
   143   205   203    1
   144   190   192   ar
   145   193   194   ar
   146    75    74    1
   147    75    77    1
   148   200   201    1
   149   203   204    1
   150   203   202    2
   151   186   185    1
   152    74    76    1
   153   202   201    1
   154    68    67    2
   155   194   192   ar
   156    66    67    1
   157   145   146    1
   158   172   171    1
   159   172   173    1
   160    67    69   am
   161   185   176   am
   162   146   147    1
   163   146   149    1
   164   147   148    2
   165   171   168    1
   166   151   150   ar
   167   173   167    1
   168   177   176    2
   169   176   175    1
   170   170   169    2
   171   183   182    1
   172   150   149    1
   173   150   152   ar
   174   169   168    1
   175   169   174   am
   176   184   182    1
   177   168   167    1
   178   167   163   am
   179   182   181    2
   180   159   158    1
   181   174   175    1
   182   160   158    1
   183   175   178    1
   184   166   165    1
   185   158   157    1
   186   179   178    1
   187   179   180    1
   188   181   180    1
   189   163   162    1
   190   163   164    2
   191   162   165    1
   192   162   161    1
   193   153   154    1
   194   157   154    1
   195    60    61    1
   196    60    59    1
   197   154   155    1
   198    59    58    1
   199   155   156    2
   200    58    57    1
   201    56    55    2
   202    57    54    1
   203    54    55    1
   204    54    53    1
