@<TRIPOS>MOLECULE
tmp/6fx0A00.pdb
 217 204 0 0 0
SMALL
GASTEIGER

@<TRIPOS>ATOM
      1  N         11.9050   -2.7460  -19.2890 N.3    22  PHE22      -0.1241
      2  CA        12.6100   -2.2660  -18.1100 C.3    22  PHE22       0.1605
      3  C         12.7740   -0.7510  -18.0680 C.2    22  PHE22       0.2264
      4  O         13.7080   -0.2280  -18.6810 O.2    22  PHE22      -0.2867
      5  CB        13.9730   -2.9730  -17.9890 C.3    22  PHE22       0.0534
      6  CG        14.6120   -2.8210  -16.6310 C.ar   22  PHE22      -0.0203
      7  CD1       13.9880   -3.3190  -15.4900 C.ar   22  PHE22      -0.0042
      8  CD2       15.8140   -2.1390  -16.4840 C.ar   22  PHE22      -0.0042
      9  CE1       14.5640   -3.1540  -14.2320 C.ar   22  PHE22      -0.0003
     10  CE2       16.3980   -1.9860  -15.2210 C.ar   22  PHE22      -0.0003
     11  CZ        15.7660   -2.4860  -14.1050 C.ar   22  PHE22      -0.0000
     12  N          8.5740   -8.3960    2.4700 N.3    48  TRP48      -0.1241
     13  CA         8.7460   -9.6190    1.6630 C.3    48  TRP48       0.1605
     14  C          7.5890   -9.7800    0.6720 C.2    48  TRP48       0.2264
     15  O          7.8180  -10.1640   -0.4650 O.2    48  TRP48      -0.2867
     16  CB         8.8980  -10.8680    2.5490 C.3    48  TRP48       0.0550
     17  CG         8.6520  -12.1610    1.8210 C.ar   48  TRP48       0.0003
     18  CD1        7.5580  -12.9760    1.9430 C.ar   48  TRP48       0.0946
     19  CD2        9.4420  -12.7060    0.7500 C.ar   48  TRP48       0.0152
     20  NE1        7.6580  -14.0330    1.0600 N.ar   48  TRP48      -0.2442
     21  CE2        8.8000  -13.8880    0.3120 C.ar   48  TRP48       0.0810
     22  CE3       10.6470  -12.3150    0.1220 C.ar   48  TRP48       0.0012
     23  CZ2        9.3220  -14.6890   -0.7160 C.ar   48  TRP48       0.0191
     24  CZ3       11.1680  -13.1150   -0.8850 C.ar   48  TRP48       0.0001
     25  CH2       10.5070  -14.2820   -1.2990 C.ar   48  TRP48       0.0015
     26  N          8.1740   -7.0760   -2.0770 N.3    51  PHE51      -0.1241
     27  CA         9.3970   -7.4240   -2.8080 C.3    51  PHE51       0.1605
     28  C          9.2500   -8.6630   -3.6830 C.2    51  PHE51       0.2264
     29  O          9.6490   -8.6180   -4.8500 O.2    51  PHE51      -0.2867
     30  CB        10.5760   -7.5570   -1.8450 C.3    51  PHE51       0.0534
     31  CG        11.8530   -8.0680   -2.4540 C.ar   51  PHE51      -0.0203
     32  CD1       12.5660   -7.2980   -3.3720 C.ar   51  PHE51      -0.0042
     33  CD2       12.3600   -9.3140   -2.0980 C.ar   51  PHE51      -0.0042
     34  CE1       13.7730   -7.7600   -3.9030 C.ar   51  PHE51      -0.0003
     35  CE2       13.5480   -9.7930   -2.6640 C.ar   51  PHE51      -0.0003
     36  CZ        14.2450   -9.0120   -3.5610 C.ar   51  PHE51      -0.0000
     37  N          7.2240   -7.8980   -6.6880 N.3    54  LEU54      -0.1231
     38  CA         8.0320   -7.1230   -7.6380 C.3    54  LEU54       0.1693
     39  C          9.0230   -8.0330   -8.3690 C.2    54  LEU54       0.2591
     40  O          9.2330   -7.8480   -9.5680 O.2    54  LEU54      -0.2718
     41  CB         8.7550   -5.9450   -6.9390 C.3    54  LEU54       0.0284
     42  CG         7.8490   -4.8050   -6.4890 C.3    54  LEU54       0.0019
     43  CD1        8.5080   -4.0010   -5.4210 C.3    54  LEU54       0.0001
     44  CD2        7.4470   -3.9000   -7.6640 C.3    54  LEU54       0.0001
     45  N          9.5410   -9.0750   -7.6770 N.am   55  ALA55      -0.1980
     46  CA        10.4300  -10.0890   -8.2790 C.3    55  ALA55       0.1597
     47  C          9.6540  -10.9280   -9.3040 C.2    55  ALA55       0.2287
     48  O         10.1240  -11.0680  -10.4360 O.2    55  ALA55      -0.2864
     49  CB        11.0490  -10.9840   -7.2040 C.3    55  ALA55       0.0319
     50  N          9.1070   -8.8190  -12.4000 N.3    58  CYS58      -0.1235
     51  CA        10.3510   -8.6570  -13.1740 C.3    58  CYS58       0.1677
     52  C         10.7640   -9.9320  -13.9180 C.2    58  CYS58       0.2270
     53  O         11.2150   -9.8400  -15.0660 O.2    58  CYS58      -0.2867
     54  CB        11.4900   -8.1030  -12.3270 C.3    58  CYS58       0.0956
     55  SG        12.9000   -7.5200  -13.3080 S.3    58  CYS58      -0.0801
     56  N         18.3640  -15.1040  -12.5490 N.3    89  LEU89      -0.1245
     57  CA        18.9850  -14.4720  -11.3760 C.3    89  LEU89       0.1561
     58  C         20.0960  -13.4990  -11.7940 C.2    89  LEU89       0.2260
     59  O         20.2330  -12.4330  -11.1780 O.2    89  LEU89      -0.2867
     60  CB        19.5470  -15.5040  -10.3880 C.3    89  LEU89       0.0270
     61  CG        18.7570  -15.6820   -9.1060 C.3    89  LEU89       0.0019
     62  CD1       19.3880  -16.7290   -8.2170 C.3    89  LEU89       0.0001
     63  CD2       18.6080  -14.3620   -8.3570 C.3    89  LEU89       0.0001
     64  N         18.2330  -10.4480  -13.1240 N.3    92  LEU92      -0.1231
     65  CA        17.6080   -9.6740  -12.0220 C.3    92  LEU92       0.1693
     66  C         18.6590   -8.7970  -11.3330 C.2    92  LEU92       0.2591
     67  O         18.3700   -7.6380  -10.9680 O.2    92  LEU92      -0.2718
     68  CB        16.9460  -10.6310  -10.9880 C.3    92  LEU92       0.0284
     69  CG        15.5840  -11.2390  -11.3660 C.3    92  LEU92       0.0019
     70  CD1       15.2450  -12.3910  -10.4320 C.3    92  LEU92       0.0001
     71  CD2       14.4450  -10.2100  -11.2290 C.3    92  LEU92       0.0001
     72  N         19.8770   -9.3570  -11.1480 N.am   93  MET93      -0.1979
     73  CA        21.0000   -8.6270  -10.5350 C.3    93  MET93       0.1605
     74  C         21.4260   -7.4480  -11.3990 C.2    93  MET93       0.2287
     75  O         21.5080   -6.3390  -10.8670 O.2    93  MET93      -0.2864
     76  CB        22.1910   -9.5480  -10.1980 C.3    93  MET93       0.0413
     77  CG        23.3390   -8.8280   -9.4440 C.3    93  MET93       0.0598
     78  SD        22.9110   -7.9880   -7.8590 S.3    93  MET93      -0.1393
     79  CE        21.9870   -9.2910   -7.0320 C.3    93  MET93       0.0692
     80  N         19.7570   -5.7990  -13.6300 N.3    95  ARG95      -0.1231
     81  CA        18.6100   -4.8940  -13.5870 C.3    95  ARG95       0.1694
     82  C         18.5580   -4.0830  -12.2910 C.2    95  ARG95       0.2591
     83  O         18.4980   -2.8580  -12.3710 O.2    95  ARG95      -0.2718
     84  CB        17.2860   -5.6430  -13.8320 C.3    95  ARG95       0.0321
     85  CG        17.0160   -5.8240  -15.3190 C.3    95  ARG95       0.0489
     86  CD        15.8120   -6.7200  -15.6010 C.3    95  ARG95       0.2205
     87  NE        15.6400   -6.7610  -17.0510 N.pl3  95  ARG95      -0.0865
     88  CZ        14.4940   -6.5820  -17.7040 C.cat  95  ARG95       0.5346
     89  NH1       13.3510   -6.4870  -17.0420 N.pl3  95  ARG95       0.1354
     90  NH2       14.4810   -6.5300  -19.0230 N.pl3  95  ARG95       0.1354
     91  N         18.5970   -4.7350  -11.1140 N.am   96  ILE96      -0.1980
     92  CA        18.5050   -3.9720   -9.8560 C.3    96  ILE96       0.1595
     93  C         19.7470   -3.0630   -9.6410 C.2    96  ILE96       0.2287
     94  O         19.6320   -2.0150   -9.0060 O.2    96  ILE96      -0.2864
     95  CB        18.1630   -4.8530   -8.6210 C.3    96  ILE96       0.0276
     96  CG1       17.5430   -4.0120   -7.4620 C.3    96  ILE96       0.0022
     97  CG2       19.3420   -5.7060   -8.1490 C.3    96  ILE96       0.0022
     98  CD1       16.1660   -3.3710   -7.7790 C.3    96  ILE96       0.0001
     99  N         19.4130    0.3080  -10.8640 N.3    99  ARG99      -0.1245
    100  CA        18.4340    1.0530  -10.0660 C.3    99  ARG99       0.1563
    101  C         18.9830    1.5190   -8.7210 C.2    99  ARG99       0.2260
    102  O         18.2350    1.9710   -7.8540 O.2    99  ARG99      -0.2867
    103  CB        17.1550    0.2090   -9.9210 C.3    99  ARG99       0.0307
    104  CG        16.4980   -0.0420  -11.2710 C.3    99  ARG99       0.0489
    105  CD        15.5700    1.1030  -11.6960 C.3    99  ARG99       0.2205
    106  NE        14.7330    0.7100  -12.8300 N.pl3  99  ARG99      -0.0865
    107  CZ        13.6800   -0.1020  -12.7490 C.cat  99  ARG99       0.5346
    108  NH1       13.3150   -0.6160  -11.5800 N.pl3  99  ARG99       0.1354
    109  NH2       12.9890   -0.4100  -13.8360 N.pl3  99  ARG99       0.1354
    110  N         12.4750   -0.0420   -7.5450 N.3   109  PHE109     -0.1227
    111  CA        11.8030   -1.1110   -8.2780 C.3   109  PHE109      0.1736
    112  C         10.9520   -0.5050   -9.3920 C.2   109  PHE109      0.2596
    113  O         10.7940    0.7170   -9.4270 O.2   109  PHE109     -0.2718
    114  CB        10.9910   -1.9870   -7.3150 C.3   109  PHE109      0.0547
    115  CG        11.9020   -2.7050   -6.3330 C.ar  109  PHE109     -0.0202
    116  CD1       12.4930   -3.9160   -6.6670 C.ar  109  PHE109     -0.0042
    117  CD2       12.2340   -2.1240   -5.1160 C.ar  109  PHE109     -0.0042
    118  CE1       13.3660   -4.5600   -5.7770 C.ar  109  PHE109     -0.0003
    119  CE2       13.1240   -2.7550   -4.2370 C.ar  109  PHE109     -0.0003
    120  CZ        13.6780   -3.9750   -4.5720 C.ar  109  PHE109     -0.0000
    121  N         10.4250   -1.3360  -10.3060 N.am  110  SER110     -0.1952
    122  CA         9.6950   -0.8510  -11.5050 C.3   110  SER110      0.1924
    123  C          8.3610   -0.1070  -11.2670 C.2   110  SER110      0.2314
    124  O          7.8300    0.4730  -12.2130 O.2   110  SER110     -0.2863
    125  CB         9.4800   -1.9820  -12.4990 C.3   110  SER110      0.2116
    126  OG        10.7290   -2.2610  -13.1120 O.3   110  SER110     -0.2180
    127  N         14.0580   -9.4790    2.3750 N.3   124  GLY124     -0.1210
    128  CA        14.4670  -10.8280    1.9880 C.3   124  GLY124      0.1956
    129  C         15.9260  -11.0740    1.6960 C.2   124  GLY124      0.2611
    130  O         16.3710  -12.2290    1.7430 O.2   124  GLY124     -0.2717
    131  N         16.6910  -10.0190    1.3660 N.am  125  PHE125     -0.1976
    132  CA        18.1190  -10.1910    1.0380 C.3   125  PHE125      0.1639
    133  C         18.9290  -10.7030    2.2160 C.2   125  PHE125      0.2290
    134  O         19.8620  -11.4780    2.0180 O.2   125  PHE125     -0.2864
    135  CB        18.7360   -8.9140    0.4400 C.3   125  PHE125      0.0560
    136  CG        18.5070   -8.8000   -1.0510 C.ar  125  PHE125     -0.0200
    137  CD1       19.1770   -9.6300   -1.9390 C.ar  125  PHE125     -0.0042
    138  CD2       17.5780   -7.9150   -1.5600 C.ar  125  PHE125     -0.0042
    139  CE1       18.9640   -9.5250   -3.3140 C.ar  125  PHE125     -0.0003
    140  CE2       17.3520   -7.8320   -2.9360 C.ar  125  PHE125     -0.0003
    141  CZ        18.0580   -8.6240   -3.8000 C.ar  125  PHE125     -0.0000
    142  N         22.7550  -11.3340    2.4380 N.3   128  LEU128     -0.1245
    143  CA        23.2210  -11.0560    1.0840 C.3   128  LEU128      0.1561
    144  C         23.2570   -9.5450    0.7540 C.2   128  LEU128      0.2260
    145  O         23.9190   -9.1430   -0.2020 O.2   128  LEU128     -0.2867
    146  CB        22.2980  -11.8090    0.1030 C.3   128  LEU128      0.0270
    147  CG        22.5840  -11.7970   -1.3750 C.3   128  LEU128      0.0019
    148  CD1       24.0020  -12.2660   -1.6750 C.3   128  LEU128      0.0001
    149  CD2       21.5940  -12.6610   -2.0860 C.3   128  LEU128      0.0001
    150  N         27.3130  -13.9990   -7.4150 N.3   210  ILE210     -0.1245
    151  CA        26.2510  -13.3420   -6.6460 C.3   210  ILE210      0.1561
    152  C         24.8970  -14.0740   -6.8850 C.2   210  ILE210      0.2260
    153  O         24.0910  -14.1400   -5.9590 O.2   210  ILE210     -0.2867
    154  CB        26.2510  -11.7890   -6.9020 C.3   210  ILE210      0.0252
    155  CG1       25.8340  -10.9800   -5.6510 C.3   210  ILE210      0.0019
    156  CG2       25.4470  -11.3720   -8.1160 C.3   210  ILE210      0.0019
    157  CD1       27.0020  -10.4900   -4.8270 C.3   210  ILE210      0.0001
    158  N         22.5630  -15.8490   -4.2420 N.3   214  GLY214     -0.1225
    159  CA        21.1160  -15.6330   -4.2650 C.3   214  GLY214      0.1811
    160  C         20.3650  -16.9350   -4.0390 C.2   214  GLY214      0.2280
    161  O         19.5110  -17.0210   -3.1510 O.2   214  GLY214     -0.2866
    162  N         20.7310  -17.9900   -0.4350 N.3   217  ARG217     -0.1231
    163  CA        19.8330  -17.2100    0.4140 C.3   217  ARG217      0.1694
    164  C         18.3950  -17.7380    0.3190 C.2   217  ARG217      0.2591
    165  O         17.7300  -17.8070    1.3530 O.2   217  ARG217     -0.2718
    166  CB        19.9250  -15.6950    0.0860 C.3   217  ARG217      0.0321
    167  CG        18.8850  -14.8080    0.7850 C.3   217  ARG217      0.0489
    168  CD        18.9190  -15.0100    2.2980 C.3   217  ARG217      0.2205
    169  NE        18.0010  -14.1330    3.0070 N.pl3 217  ARG217     -0.0865
    170  CZ        17.5160  -14.4110    4.2100 C.cat 217  ARG217      0.5346
    171  NH1       17.8110  -15.5620    4.8040 N.pl3 217  ARG217      0.1354
    172  NH2       16.7070  -13.5600    4.8140 N.pl3 217  ARG217      0.1354
    173  N         17.9160  -18.1470   -0.8950 N.am  218  ALA218     -0.1980
    174  CA        16.5470  -18.6810   -1.0370 C.3   218  ALA218      0.1597
    175  C         16.3230  -19.9000   -0.1080 C.2   218  ALA218      0.2287
    176  O         15.2320  -20.0480    0.4570 O.2   218  ALA218     -0.2864
    177  CB        16.2670  -19.0610   -2.4810 C.3   218  ALA218      0.0319
    178  N         15.9630  -18.4240    3.5370 N.3   221  LEU221     -0.1245
    179  CA        14.7710  -17.5730    3.5380 C.3   221  LEU221      0.1561
    180  C         13.4790  -18.3850    3.5730 C.2   221  LEU221      0.2260
    181  O         12.5290  -17.9850    4.2440 O.2   221  LEU221     -0.2867
    182  CB        14.7910  -16.6210    2.3280 C.3   221  LEU221      0.0270
    183  CG        13.6610  -15.6130    2.1900 C.3   221  LEU221      0.0019
    184  CD1       13.5560  -14.7150    3.3990 C.3   221  LEU221      0.0001
    185  CD2       13.8900  -14.7620    0.9840 C.3   221  LEU221      0.0001
    186  N          7.3720  -19.8440   -1.6060 N.3   229  MET229     -0.1245
    187  CA         7.7270  -18.6690   -2.3960 C.3   229  MET229      0.1570
    188  C          6.7980  -18.5980   -3.6190 C.2   229  MET229      0.2261
    189  O          6.2780  -19.6420   -4.0310 O.2   229  MET229     -0.2867
    190  CB         9.1810  -18.7590   -2.8810 C.3   229  MET229      0.0387
    191  CG        10.1920  -18.3030   -1.8590 C.3   229  MET229      0.0595
    192  SD        11.8720  -18.4320   -2.4810 S.3   229  MET229     -0.1393
    193  CE        11.9510  -20.2190   -2.8970 C.3   229  MET229      0.0692
    194  N          9.1030  -17.5850   -8.8900 N.3   233  ILE233     -0.1245
    195  CA        10.3720  -17.5570   -8.1700 C.3   233  ILE233      0.1561
    196  C         10.8370  -19.0130   -7.9980 C.2   233  ILE233      0.2260
    197  O         12.0170  -19.3100   -8.2160 O.2   233  ILE233     -0.2867
    198  CB        10.2960  -16.7690   -6.8410 C.3   233  ILE233      0.0252
    199  CG1        9.9840  -15.2740   -7.1330 C.3   233  ILE233      0.0019
    200  CG2       11.6160  -16.9120   -6.0280 C.3   233  ILE233      0.0019
    201  CD1        9.7540  -14.4210   -5.8750 C.3   233  ILE233      0.0001
    202  N         12.3230  -20.2930  -11.1910 N.3   236  MET236     -0.1230
    203  CA        13.6700  -19.7690  -11.3620 C.3   236  MET236      0.1702
    204  C         14.7230  -20.5390  -10.5440 C.2   236  MET236      0.2592
    205  O         15.8010  -20.8180  -11.0640 O.2   236  MET236     -0.2718
    206  CB        13.6910  -18.2590  -11.0340 C.3   236  MET236      0.0401
    207  CG        15.0810  -17.6800  -10.9300 C.3   236  MET236      0.0596
    208  SD        15.0810  -15.9170  -10.6000 S.3   236  MET236     -0.1393
    209  CE        14.8080  -15.9070   -8.7740 C.3   236  MET236      0.0692
    210  N         14.3990  -20.8860   -9.2880 N.am  237  LEU237     -0.1980
    211  CA        15.3190  -21.5330   -8.3550 C.3   237  LEU237      0.1596
    212  C         15.4480  -23.0510   -8.5070 C.2   237  LEU237      0.2287
    213  O         16.4100  -23.6020   -7.9840 O.2   237  LEU237     -0.2864
    214  CB        14.9530  -21.1480   -6.9210 C.3   237  LEU237      0.0297
    215  CG        15.0540  -19.6460   -6.6620 C.3   237  LEU237      0.0022
    216  CD1       14.3280  -19.2710   -5.4170 C.3   237  LEU237      0.0001
    217  CD2       16.5040  -19.1780   -6.5930 C.3   237  LEU237      0.0001
@<TRIPOS>BOND
     1     1     2    1
     2    90    88    1
     3     4     3    2
     4     2     3    1
     5     2     5    1
     6     5     6    1
     7    88    87    2
     8    88    89    1
     9    87    86    1
    10     6     8   ar
    11     6     7   ar
    12     8    10   ar
    13    86    85    1
    14     7     9   ar
    15    85    84    1
    16    10    11   ar
    17    53    52    2
    18     9    11   ar
    19    52    51    1
    20   109   107    1
    21    84    81    1
    22    80    81    1
    23    81    82    1
    24    55    54    1
    25    51    50    1
    26    51    54    1
    27    64    65    1
    28   126   125    1
    29   106   107    2
    30   106   105    1
    31   107   108    1
    32    56    57    1
    33   125   122    1
    34    83    82    2
    35    82    91   am
    36   124   123    2
    37    65    66    1
    38    65    68    1
    39    58    57    1
    40    58    59    2
    41   105   104    1
    42   122   123    1
    43   122   121    1
    44    74    75    2
    45    74    73    1
    46    57    60    1
    47    69    71    1
    48    69    68    1
    49    69    70    1
    50   203   202    1
    51   203   206    1
    52   203   204    1
    53    66    72   am
    54    66    67    2
    55   104   103    1
    56    72    73    1
    57    91    92    1
    58   205   204    2
    59   206   207    1
    60   207   208    1
    61    99   100    1
    62   208   209    1
    63   204   210   am
    64    73    76    1
    65    48    47    2
    66    60    61    1
    67   121   112   am
    68    76    77    1
    69   100   103    1
    70   100   101    1
    71    92    93    1
    72    92    95    1
    73    93    94    2
    74    40    39    2
    75    77    78    1
    76   113   112    2
    77   112   111    1
    78    47    46    1
    79   210   211    1
    80    61    63    1
    81    61    62    1
    82   194   195    1
    83   101   102    2
    84    95    97    1
    85    95    96    1
    86   212   211    1
    87   212   213    2
    88    39    45   am
    89    39    38    1
    90   211   214    1
    91    46    45    1
    92    46    49    1
    93   111   110    1
    94   111   114    1
    95   197   196    2
    96   195   196    1
    97   195   198    1
    98   156   154    1
    99    78    79    1
   100    98    96    1
   101    44    42    1
   102    38    41    1
   103    38    37    1
   104   150   151    1
   105   114   115    1
   106   199   198    1
   107   199   201    1
   108    41    42    1
   109   214   215    1
   110   154   151    1
   111   154   155    1
   112   152   151    1
   113   152   153    2
   114   198   200    1
   115   116   115   ar
   116   116   118   ar
   117   215   217    1
   118   215   216    1
   119    42    43    1
   120   115   117   ar
   121   118   120   ar
   122   155   157    1
   123   117   119   ar
   124    29    28    2
   125   120   119   ar
   126   159   158    1
   127   159   160    1
   128   160   161    2
   129   189   188    2
   130    34    36   ar
   131    34    32   ar
   132   141   139   ar
   133   141   140   ar
   134    28    27    1
   135   188   187    1
   136    36    35   ar
   137    32    31   ar
   138   139   137   ar
   139   140   138   ar
   140   193   192    1
   141   190   187    1
   142   190   191    1
   143    27    26    1
   144    27    30    1
   145    35    33   ar
   146   192   191    1
   147   177   174    1
   148    31    33   ar
   149    31    30    1
   150   187   186    1
   151   149   147    1
   152   137   136   ar
   153   148   147    1
   154   138   136   ar
   155   147   146    1
   156    25    24   ar
   157    25    23   ar
   158   136   135    1
   159   174   173    1
   160   174   175    1
   161   173   164   am
   162    24    22   ar
   163    23    21   ar
   164    15    14    2
   165   162   163    1
   166   145   144    2
   167   175   176    2
   168   166   163    1
   169   166   167    1
   170   146   143    1
   171    22    19   ar
   172    21    19   ar
   173    21    20   ar
   174   164   163    1
   175   164   165    2
   176   135   132    1
   177    14    13    1
   178    19    17   ar
   179   144   143    1
   180   167   168    1
   181   185   183    1
   182   132   131    1
   183   132   133    1
   184    20    18   ar
   185   143   142    1
   186   131   129   am
   187    13    12    1
   188    13    16    1
   189   129   130    2
   190   129   128    1
   191    17    18   ar
   192    17    16    1
   193   128   127    1
   194   134   133    2
   195   183   182    1
   196   183   184    1
   197   168   169    1
   198   182   179    1
   199   169   170    2
   200   178   179    1
   201   179   180    1
   202   180   181    2
   203   170   171    1
   204   170   172    1
