@<TRIPOS>MOLECULE
tmp/6fxbD00.pdb
 85 80 0 0 0
SMALL
GASTEIGER

@<TRIPOS>ATOM
      1  N          7.2880   17.6860  188.8560 N.3    31  LEU31      -0.1245
      2  CA         6.9140   17.6060  190.2630 C.3    31  LEU31       0.1561
      3  C          5.4480   17.2380  190.4620 C.2    31  LEU31       0.2260
      4  O          5.0920   16.7370  191.5340 O.2    31  LEU31      -0.2867
      5  CB         7.2150   18.9330  190.9590 C.3    31  LEU31       0.0270
      6  CG         8.6820   19.3780  190.9350 C.3    31  LEU31       0.0019
      7  CD1        8.8770   20.6350  191.7670 C.3    31  LEU31       0.0001
      8  CD2        9.6230   18.2700  191.3960 C.3    31  LEU31       0.0001
      9  N          6.3300   13.5190  192.9240 N.3    38  PRO38      -0.2102
     10  CA         6.7490   13.7780  194.3150 C.3    38  PRO38       0.1504
     11  C          5.9160   14.8240  195.0350 C.2    38  PRO38       0.2575
     12  O          5.7260   14.7140  196.2540 O.2    38  PRO38      -0.2718
     13  CB         8.2100   14.2280  194.1630 C.3    38  PRO38       0.0282
     14  CG         8.3260   14.6920  192.7390 C.3    38  PRO38       0.0208
     15  CD         7.4060   13.8090  191.9590 C.3    38  PRO38       0.0893
     16  N          5.4110   15.8400  194.3300 N.am   39  LEU39      -0.1980
     17  CA         4.6140   16.8890  194.9540 C.3    39  LEU39       0.1596
     18  C          3.1350   16.7420  194.6400 C.2    39  LEU39       0.2287
     19  O          2.3650   17.6860  194.8340 O.2    39  LEU39      -0.2864
     20  CB         5.1040   18.2710  194.5260 C.3    39  LEU39       0.0297
     21  CG         6.5130   18.6600  194.9680 C.3    39  LEU39       0.0022
     22  CD1        6.7960   20.1050  194.5990 C.3    39  LEU39       0.0001
     23  CD2        6.6880   18.4390  196.4580 C.3    39  LEU39       0.0001
     24  N          8.3650   16.0180  201.7990 N.3    87  LEU87      -0.1231
     25  CA         8.1520   16.1950  200.3660 C.3    87  LEU87       0.1693
     26  C          9.2530   17.0600  199.7590 C.2    87  LEU87       0.2592
     27  O          9.0410   17.7460  198.7550 O.2    87  LEU87      -0.2718
     28  CB         6.7740   16.8100  200.1050 C.3    87  LEU87       0.0284
     29  CG         5.6030   16.0670  200.7600 C.3    87  LEU87       0.0019
     30  CD1        4.3070   16.8360  200.5750 C.3    87  LEU87       0.0001
     31  CD2        5.4740   14.6450  200.2290 C.3    87  LEU87       0.0001
     32  N         10.4250   17.0360  200.3970 N.am   88  ASN88      -0.1960
     33  CA        11.5930   17.8400  200.0430 C.3    88  ASN88       0.1819
     34  C         11.2950   19.3380  200.0410 C.2    88  ASN88       0.2621
     35  O         11.9800   20.1100  199.3630 O.2    88  ASN88      -0.2715
     36  CB        12.1700   17.4040  198.6930 C.3    88  ASN88       0.1195
     37  CG        12.9080   16.0820  198.7830 C.2    88  ASN88       0.2630
     38  OD1       13.7390   15.8810  199.6690 O.2    88  ASN88      -0.2716
     39  ND2       12.6030   15.1700  197.8680 N.am   88  ASN88      -0.0877
     40  N         10.2860   19.7670  200.7960 N.am   89  GLU89      -0.1977
     41  CA         9.9660   21.1740  200.9870 C.3    89  GLU89       0.1602
     42  C         10.2740   21.5830  202.4220 C.2    89  GLU89       0.2287
     43  O         10.3910   20.7430  203.3170 O.2    89  GLU89      -0.2864
     44  CB         8.4910   21.4590  200.6720 C.3    89  GLU89       0.0415
     45  CG         7.9730   20.9080  199.3450 C.3    89  GLU89       0.1163
     46  CD         8.3910   21.7340  198.1360 C.2    89  GLU89       0.3649
     47  OE1        9.5140   22.2810  198.1240 O.co2  89  GLU89      -0.2457
     48  OE2        7.5780   21.8420  197.1930 O.co2  89  GLU89      -0.2457
     49  N         10.7550   24.9240  198.8050 N.3   109  ASN109     -0.1240
     50  CA        12.0090   24.7680  199.5240 C.3   109  ASN109      0.1653
     51  C         12.8120   26.0440  199.3110 C.2   109  ASN109      0.2266
     52  O         13.1220   26.4030  198.1680 O.2   109  ASN109     -0.2867
     53  CB        12.7780   23.5270  199.0690 C.3   109  ASN109      0.1155
     54  CG        13.9280   23.1860  200.0030 C.2   109  ASN109      0.2627
     55  OD1       14.6410   24.0700  200.4760 O.2   109  ASN109     -0.2716
     56  ND2       14.0890   21.9020  200.3000 N.am  109  ASN109     -0.0877
     57  N         15.7620   26.8230  199.6220 N.3   111  ALA111     -0.1231
     58  CA        17.0560   26.7290  198.9530 C.3   111  ALA111      0.1694
     59  C         16.9200   26.8330  197.4380 C.2   111  ALA111      0.2591
     60  O         17.8120   27.3740  196.7750 O.2   111  ALA111     -0.2718
     61  CB        17.7560   25.4250  199.3350 C.3   111  ALA111      0.0304
     62  N         15.8270   26.3260  196.8720 N.am  112  GLU112     -0.1979
     63  CA        15.5740   26.3970  195.4310 C.3   112  GLU112      0.1602
     64  C         14.1280   26.8200  195.2320 C.2   112  GLU112      0.2287
     65  O         13.2740   26.0220  194.8250 O.2   112  GLU112     -0.2864
     66  CB        15.8570   25.0560  194.7520 C.3   112  GLU112      0.0415
     67  CG        17.0920   24.3380  195.2610 C.3   112  GLU112      0.1163
     68  CD        17.4070   23.0870  194.4680 C.2   112  GLU112      0.3649
     69  OE1       16.4870   22.5430  193.8160 O.co2 112  GLU112     -0.2457
     70  OE2       18.5800   22.6530  194.4960 O.co2 112  GLU112     -0.2457
     71  N         12.2140   26.3870  191.4630 N.3   115  GLN115     -0.1231
     72  CA        11.9940   25.0630  190.8820 C.3   115  GLN115      0.1698
     73  C         11.1040   24.1650  191.7330 C.2   115  GLN115      0.2592
     74  O         10.5540   23.1930  191.2020 O.2   115  GLN115     -0.2718
     75  CB        13.3300   24.3700  190.6200 C.3   115  GLN115      0.0381
     76  CG        13.2660   22.9910  189.9740 C.3   115  GLN115      0.0905
     77  CD        13.4340   21.8030  190.9400 C.2   115  GLN115      0.2608
     78  OE1       13.0230   21.8740  192.0810 O.2   115  GLN115     -0.2717
     79  NE2       14.0740   20.7280  190.4580 N.am  115  GLN115     -0.0878
     80  N         10.8410   24.5240  192.9910 N.am  116  SER116     -0.1952
     81  CA        10.1490   23.6360  193.9170 C.3   116  SER116      0.1924
     82  C          8.7780   24.1550  194.3030 C.2   116  SER116      0.2314
     83  O          8.1000   23.5400  195.1290 O.2   116  SER116     -0.2863
     84  CB        10.9950   23.4280  195.1750 C.3   116  SER116      0.2116
     85  OG        11.1820   24.6610  195.8440 O.3   116  SER116     -0.2180
@<TRIPOS>BOND
     1     1     2    1
     2    76    75    1
     3    76    77    1
     4     2     3    1
     5     2     5    1
     6    79    77   am
     7     3     4    2
     8    75    72    1
     9    72    71    1
    10    72    73    1
    11     6     5    1
    12     6     8    1
    13     6     7    1
    14    77    78    2
    15    74    73    2
    16    73    80   am
    17    15    14    1
    18    15     9    1
    19    14    13    1
    20     9    10    1
    21    80    81    1
    22    69    68   ar
    23    81    82    1
    24    81    84    1
    25    13    10    1
    26    82    83    2
    27    10    11    1
    28    16    17    1
    29    16    11   am
    30    68    70   ar
    31    68    67    1
    32    20    17    1
    33    20    21    1
    34    22    21    1
    35    18    19    2
    36    18    17    1
    37    66    67    1
    38    66    63    1
    39    65    64    2
    40    21    23    1
    41    11    12    2
    42    84    85    1
    43    64    63    1
    44    63    62    1
    45    60    59    2
    46    62    59   am
    47    48    46   ar
    48    59    58    1
    49    39    37   am
    50    47    46   ar
    51    46    45    1
    52    52    51    2
    53    36    37    1
    54    36    33    1
    55    27    26    2
    56    37    38    2
    57    49    50    1
    58    58    61    1
    59    58    57    1
    60    53    50    1
    61    53    54    1
    62    51    50    1
    63    45    44    1
    64    35    34    2
    65    26    25    1
    66    26    32   am
    67    54    56   am
    68    54    55    2
    69    34    33    1
    70    34    40   am
    71    33    32    1
    72    28    25    1
    73    28    29    1
    74    31    29    1
    75    25    24    1
    76    30    29    1
    77    44    41    1
    78    40    41    1
    79    41    42    1
    80    42    43    2
