@<TRIPOS>MOLECULE
tmp/6fxxA01.pdb
 145 142 0 0 0
SMALL
GASTEIGER

@<TRIPOS>ATOM
      1  N         67.5100   33.6650  149.4510 N.3    12  VAL12      -0.1231
      2  CA        67.3450   35.0890  149.7200 C.3    12  VAL12       0.1692
      3  C         67.6700   35.3450  151.1850 C.2    12  VAL12       0.2592
      4  O         67.1620   34.6460  152.0690 O.2    12  VAL12      -0.2718
      5  CB        65.9210   35.5690  149.3860 C.3    12  VAL12       0.0266
      6  CG1       65.7910   37.0600  149.6410 C.3    12  VAL12       0.0020
      7  CG2       65.5750   35.2400  147.9450 C.3    12  VAL12       0.0020
      8  N         68.5070   36.3500  151.4380 N.am   13  ALA13      -0.1966
      9  CA        68.9180   36.6740  152.8030 C.3    13  ALA13       0.1728
     10  C         69.3810   38.1250  152.8360 C.2    13  ALA13       0.2616
     11  O         70.4260   38.4510  152.2660 O.2    13  ALA13      -0.2715
     12  CB        70.0210   35.7370  153.2700 C.3    13  ALA13       0.0334
     13  N         68.6160   38.9840  153.5110 N.am   14  THR14      -0.1951
     14  CA        68.9700   40.3950  153.5910 C.3    14  THR14       0.1897
     15  C         70.0690   40.6770  154.6070 C.2    14  THR14       0.2313
     16  O         70.6920   41.7420  154.5430 O.2    14  THR14      -0.2863
     17  CB        67.7350   41.2320  153.9310 C.3    14  THR14       0.1794
     18  OG1       67.2130   40.8200  155.1990 O.3    14  THR14      -0.2208
     19  CG2       66.6650   41.0530  152.8650 C.3    14  THR14       0.0378
     20  N         64.8310   44.7190  153.6040 N.3    43  TRP43      -0.1241
     21  CA        63.7180   43.8050  153.3720 C.3    43  TRP43       0.1605
     22  C         62.4390   44.6080  153.1540 C.2    43  TRP43       0.2264
     23  O         61.9250   45.2370  154.0840 O.2    43  TRP43      -0.2867
     24  CB        63.5690   42.8370  154.5410 C.3    43  TRP43       0.0550
     25  CG        62.4120   41.9040  154.3970 C.ar   43  TRP43       0.0003
     26  CD1       61.2470   41.9290  155.1060 C.ar   43  TRP43       0.0946
     27  CD2       62.3010   40.8090  153.4800 C.ar   43  TRP43       0.0152
     28  NE1       60.4190   40.9140  154.6910 N.ar   43  TRP43      -0.2442
     29  CE2       61.0430   40.2130  153.6930 C.ar   43  TRP43       0.0810
     30  CE3       63.1440   40.2740  152.5010 C.ar   43  TRP43       0.0012
     31  CZ2       60.6070   39.1090  152.9640 C.ar   43  TRP43       0.0191
     32  CZ3       62.7100   39.1790  151.7800 C.ar   43  TRP43       0.0001
     33  CH2       61.4540   38.6080  152.0140 C.ar   43  TRP43       0.0015
     34  N         56.8990   38.9240  157.1350 N.3    48  VAL48      -0.1231
     35  CA        56.5380   37.5750  156.7100 C.3    48  VAL48       0.1692
     36  C         56.3040   36.6400  157.8880 C.2    48  VAL48       0.2591
     37  O         55.6340   35.6120  157.7310 O.2    48  VAL48      -0.2718
     38  CB        57.6150   36.9980  155.7710 C.3    48  VAL48       0.0266
     39  CG1       57.5570   37.6770  154.4120 C.3    48  VAL48       0.0020
     40  CG2       58.9980   37.1520  156.3890 C.3    48  VAL48       0.0020
     41  N         56.8450   36.9610  159.0650 N.am   49  ALA49      -0.1980
     42  CA        56.6010   36.1580  160.2570 C.3    49  ALA49       0.1597
     43  C         55.1970   36.3440  160.8120 C.2    49  ALA49       0.2287
     44  O         54.7110   35.4720  161.5390 O.2    49  ALA49      -0.2864
     45  CB        57.6260   36.4950  161.3410 C.3    49  ALA49       0.0319
     46  N         61.3360   38.2500  147.2130 N.3    57  LYS57      -0.1245
     47  CA        62.1700   37.1000  146.8840 C.3    57  LYS57       0.1561
     48  C         62.0270   36.7210  145.4150 C.2    57  LYS57       0.2260
     49  O         63.0250   36.4460  144.7380 O.2    57  LYS57      -0.2867
     50  CB        61.8090   35.9130  147.7780 C.3    57  LYS57       0.0271
     51  CG        62.1650   36.1010  149.2390 C.3    57  LYS57       0.0035
     52  CD        61.7880   34.8770  150.0590 C.3    57  LYS57       0.0206
     53  CE        60.2870   34.6290  150.0330 C.3    57  LYS57       0.1093
     54  NZ        59.8940   33.4810  150.9000 N.3    57  LYS57      -0.1314
     55  N         64.5060   28.8340  151.3290 N.3    80  ASP80      -0.1225
     56  CA        64.7480   29.8880  152.2990 C.3    80  ASP80       0.1805
     57  C         66.0750   29.6410  153.0160 C.2    80  ASP80       0.2598
     58  O         66.6970   28.5840  152.8850 O.2    80  ASP80      -0.2718
     59  CB        63.5950   29.9670  153.2990 C.3    80  ASP80       0.1424
     60  CG        62.3140   30.4930  152.6730 C.2    80  ASP80       0.3668
     61  OD1       62.3960   31.1800  151.6340 O.co2  80  ASP80      -0.2456
     62  OD2       61.2250   30.2270  153.2250 O.co2  80  ASP80      -0.2456
     63  N         66.5180   30.6370  153.7780 N.am   81  SER81      -0.1938
     64  CA        67.7930   30.5450  154.4770 C.3    81  SER81       0.2055
     65  C         67.6900   30.7200  155.9820 C.2    81  SER81       0.2643
     66  O         68.4740   30.1080  156.7110 O.2    81  SER81      -0.2714
     67  CB        68.7800   31.5860  153.9310 C.3    81  SER81       0.2130
     68  OG        68.2920   32.9000  154.1330 O.3    81  SER81      -0.2179
     69  N         66.7570   31.5370  156.4710 N.am   82  TYR82      -0.1959
     70  CA        66.6760   31.7590  157.9090 C.3    82  TYR82       0.1771
     71  C         66.1340   30.5380  158.6390 C.2    82  TYR82       0.2619
     72  O         66.4640   30.3260  159.8110 O.2    82  TYR82      -0.2715
     73  CB        65.8070   32.9800  158.2110 C.3    82  TYR82       0.0574
     74  CG        66.4360   34.3030  157.8360 C.ar   82  TYR82      -0.0198
     75  CD1       67.7630   34.3780  157.4330 C.ar   82  TYR82      -0.0009
     76  CD2       65.7030   35.4790  157.8950 C.ar   82  TYR82      -0.0009
     77  CE1       68.3390   35.5870  157.0910 C.ar   82  TYR82       0.0417
     78  CE2       66.2690   36.6920  157.5570 C.ar   82  TYR82       0.0417
     79  CZ        67.5870   36.7410  157.1560 C.ar   82  TYR82       0.1957
     80  OH        68.1540   37.9490  156.8200 O.3    82  TYR82      -0.2866
     81  N         65.3170   29.7270  157.9750 N.am   83  ASP83      -0.1971
     82  CA        64.6390   28.6120  158.6230 C.3    83  ASP83       0.1709
     83  C         64.7810   27.3350  157.8110 C.2    83  ASP83       0.2293
     84  O         63.8320   26.5590  157.6690 O.2    83  ASP83      -0.2864
     85  CB        63.1660   28.9370  158.8560 C.3    83  ASP83       0.1436
     86  CG        62.4290   29.2420  157.5710 C.2    83  ASP83       0.3671
     87  OD1       63.0710   29.7320  156.6190 O.co2  83  ASP83      -0.2456
     88  OD2       61.2070   28.9960  157.5120 O.co2  83  ASP83      -0.2456
     89  N         47.8060   27.6940  152.0530 N.3   113  TRP113     -0.1241
     90  CA        48.0940   29.0510  152.5010 C.3   113  TRP113      0.1605
     91  C         48.4870   29.9180  151.3060 C.2   113  TRP113      0.2264
     92  O         49.2250   29.4690  150.4310 O.2   113  TRP113     -0.2867
     93  CB        49.2080   29.0270  153.5520 C.3   113  TRP113      0.0550
     94  CG        49.3650   30.2940  154.3350 C.ar  113  TRP113      0.0003
     95  CD1       48.5380   30.7620  155.3140 C.ar  113  TRP113      0.0946
     96  CD2       50.4290   31.2460  154.2200 C.ar  113  TRP113      0.0152
     97  NE1       49.0140   31.9520  155.8090 N.ar  113  TRP113     -0.2442
     98  CE2       50.1750   32.2710  155.1540 C.ar  113  TRP113      0.0810
     99  CE3       51.5690   31.3350  153.4150 C.ar  113  TRP113      0.0012
    100  CZ2       51.0180   33.3700  155.3050 C.ar  113  TRP113      0.0191
    101  CZ3       52.4040   32.4270  153.5660 C.ar  113  TRP113      0.0001
    102  CH2       52.1250   33.4290  154.5030 C.ar  113  TRP113      0.0015
    103  N         53.9000   24.5700  148.7890 N.3   133  ASN133     -0.1240
    104  CA        54.6600   25.4560  149.6620 C.3   133  ASN133      0.1653
    105  C         55.8110   26.0350  148.8580 C.2   133  ASN133      0.2266
    106  O         56.6130   25.2860  148.2910 O.2   133  ASN133     -0.2867
    107  CB        55.1760   24.7110  150.8980 C.3   133  ASN133      0.1155
    108  CG        55.9740   25.6060  151.8320 C.2   133  ASN133      0.2627
    109  OD1       57.1860   25.7530  151.6820 O.2   133  ASN133     -0.2716
    110  ND2       55.2960   26.2010  152.8070 N.am  133  ASN133     -0.0877
    111  N         62.6320   22.4760  156.4690 N.3   221  HIS221     -0.1226
    112  CA        62.1210   23.8410  156.4450 C.3   221  HIS221      0.1752
    113  C         61.2130   24.0520  157.6460 C.2   221  HIS221      0.2597
    114  O         60.1680   23.4040  157.7580 O.2   221  HIS221     -0.2718
    115  CB        61.3690   24.1210  155.1400 C.3   221  HIS221      0.0759
    116  CG        60.8890   25.5330  155.0080 C.ar  221  HIS221      0.0818
    117  ND1       59.8340   25.8870  154.1950 N.ar  221  HIS221     -0.2268
    118  CD2       61.3230   26.6800  155.5810 C.ar  221  HIS221      0.1154
    119  CE1       59.6360   27.1910  154.2760 C.ar  221  HIS221      0.1986
    120  NE2       60.5270   27.6960  155.1100 N.ar  221  HIS221     -0.2212
    121  N         61.6120   24.9570  158.5360 N.am  222  GLY222     -0.1942
    122  CA        60.8080   25.2800  159.6960 C.3   222  GLY222      0.2014
    123  C         59.8400   26.4120  159.4270 C.2   222  GLY222      0.2639
    124  O         59.9730   27.5000  159.9930 O.2   222  GLY222     -0.2714
    125  N         58.8590   26.1670  158.5650 N.am  223  ASN223     -0.1958
    126  CA        57.9230   27.2100  158.1740 C.3   223  ASN223      0.1819
    127  C         56.9020   27.4610  159.2740 C.2   223  ASN223      0.2621
    128  O         56.4790   26.5380  159.9760 O.2   223  ASN223     -0.2715
    129  CB        57.2080   26.8270  156.8780 C.3   223  ASN223      0.1195
    130  CG        56.3900   25.5620  157.0190 C.2   223  ASN223      0.2630
    131  OD1       56.8070   24.6120  157.6790 O.2   223  ASN223     -0.2716
    132  ND2       55.2140   25.5450  156.4050 N.am  223  ASN223     -0.0877
    133  N         56.5080   28.7220  159.4210 N.am  224  GLY224     -0.1954
    134  CA        55.4660   29.0940  160.3450 C.3   224  GLY224      0.1869
    135  C         55.9050   29.0270  161.7930 C.2   224  GLY224      0.2309
    136  O         57.0140   29.4320  162.1540 O.2   224  GLY224     -0.2863
    137  N         59.8020   27.4390  164.2130 N.3   227  LYS227     -0.1245
    138  CA        61.1940   27.8770  164.2070 C.3   227  LYS227      0.1561
    139  C         61.9670   27.2740  165.3720 C.2   227  LYS227      0.2260
    140  O         63.1580   26.9690  165.2420 O.2   227  LYS227     -0.2867
    141  CB        61.2690   29.4020  164.2500 C.3   227  LYS227      0.0271
    142  CG        60.5620   30.1020  163.1040 C.3   227  LYS227      0.0035
    143  CD        60.6010   31.6100  163.2950 C.3   227  LYS227      0.0206
    144  CE        59.8210   32.3370  162.2130 C.3   227  LYS227      0.1093
    145  NZ        59.8140   33.8110  162.4400 N.3   227  LYS227     -0.1314
@<TRIPOS>BOND
     1    49    48    2
     2    48    47    1
     3    47    46    1
     4    47    50    1
     5    50    51    1
     6     7     5    1
     7   106   105    2
     8   103   104    1
     9   105   104    1
    10    51    52    1
    11     5     6    1
    12     5     2    1
    13     1     2    1
    14   104   107    1
    15     2     3    1
    16    53    52    1
    17    53    54    1
    18    92    91    2
    19   107   108    1
    20     3     8   am
    21     3     4    2
    22    91    90    1
    23    55    56    1
    24     8     9    1
    25    61    60   ar
    26   109   108    2
    27    32    33   ar
    28    32    30   ar
    29   108   110   am
    30    33    31   ar
    31    89    90    1
    32    11    10    2
    33    56    57    1
    34    56    59    1
    35    30    27   ar
    36    90    93    1
    37    60    62   ar
    38    60    59    1
    39     9    10    1
    40     9    12    1
    41    10    13   am
    42    19    17    1
    43    58    57    2
    44    31    29   ar
    45    57    63   am
    46    22    21    1
    47    22    23    2
    48    21    20    1
    49    21    24    1
    50    99   101   ar
    51    99    96   ar
    52    27    29   ar
    53    27    25   ar
    54    13    14    1
    55    93    94    1
    56   101   102   ar
    57    14    17    1
    58    14    15    1
    59    29    28   ar
    60    63    64    1
    61    67    68    1
    62    67    64    1
    63    17    18    1
    64   117   119   ar
    65   117   116   ar
    66    96    94   ar
    67    96    98   ar
    68   119   120   ar
    69    94    95   ar
    70    25    24    1
    71    25    26   ar
    72    39    38    1
    73    64    65    1
    74   102   100   ar
    75    16    15    2
    76    28    26   ar
    77   116   115    1
    78   116   118   ar
    79   120   118   ar
    80   115   112    1
    81    98   100   ar
    82    98    97   ar
    83    95    97   ar
    84    38    40    1
    85    38    35    1
    86    65    69   am
    87    65    66    2
    88   132   130   am
    89   112   111    1
    90   112   113    1
    91    69    70    1
    92    87    86   ar
    93    35    34    1
    94    35    36    1
    95    80    79    1
    96   129   130    1
    97   129   126    1
    98   130   131    2
    99    77    79   ar
   100    77    75   ar
   101    79    78   ar
   102    75    74   ar
   103    88    86   ar
   104    78    76   ar
   105    86    85    1
   106   113   114    2
   107   113   121   am
   108    84    83    2
   109    37    36    2
   110    83    82    1
   111    74    76   ar
   112    74    73    1
   113    36    41   am
   114    70    73    1
   115    70    71    1
   116    81    82    1
   117    81    71   am
   118   126   125    1
   119   126   127    1
   120   121   122    1
   121   125   123   am
   122    82    85    1
   123    71    72    2
   124    41    42    1
   125   127   133   am
   126   127   128    2
   127   133   134    1
   128   123   122    1
   129   123   124    2
   130    42    43    1
   131    42    45    1
   132   134   135    1
   133    43    44    2
   134   135   136    2
   135   144   145    1
   136   144   143    1
   137   142   143    1
   138   142   141    1
   139   138   137    1
   140   138   141    1
   141   138   139    1
   142   140   139    2
