@<TRIPOS>MOLECULE
tmp/6fxxA00.pdb
 150 138 0 0 0
SMALL
GASTEIGER

@<TRIPOS>ATOM
      1  N         72.1890   11.2270  232.8200 N.3   561  ARG561     -0.1245
      2  CA        73.5120   10.7910  233.2340 C.3   561  ARG561      0.1563
      3  C         73.3810    9.8350  234.4130 C.2   561  ARG561      0.2260
      4  O         72.3280    9.7420  235.0460 O.2   561  ARG561     -0.2867
      5  CB        74.3920   11.9900  233.6030 C.3   561  ARG561      0.0307
      6  CG        74.5490   12.9970  232.4710 C.3   561  ARG561      0.0489
      7  CD        75.4250   14.1670  232.8860 C.3   561  ARG561      0.2205
      8  NE        75.8000   15.0020  231.7500 N.pl3 561  ARG561     -0.0865
      9  CZ        75.2850   16.2010  231.5040 C.cat 561  ARG561      0.5346
     10  NH1       74.3760   16.7130  232.3210 N.pl3 561  ARG561      0.1354
     11  NH2       75.6840   16.8920  230.4470 N.pl3 561  ARG561      0.1354
     12  N         76.2820   22.7850  226.4390 N.3   616  VAL616     -0.1245
     13  CA        76.5910   23.0290  227.8420 C.3   616  VAL616      0.1561
     14  C         77.4060   24.3090  227.9580 C.2   616  VAL616      0.2260
     15  O         78.2200   24.6350  227.0870 O.2   616  VAL616     -0.2867
     16  CB        77.3420   21.8290  228.4550 C.3   616  VAL616      0.0252
     17  CG1       77.4440   21.9700  229.9660 C.3   616  VAL616      0.0019
     18  CG2       76.6530   20.5310  228.0790 C.3   616  VAL616      0.0019
     19  N         79.9510   26.2440  230.7140 N.3   618  TYR618     -0.1241
     20  CA        80.7600   26.1390  231.9230 C.3   618  TYR618      0.1605
     21  C         81.3100   27.5150  232.2710 C.2   618  TYR618      0.2264
     22  O         82.0080   28.1300  231.4580 O.2   618  TYR618     -0.2867
     23  CB        81.9040   25.1420  231.7330 C.3   618  TYR618      0.0534
     24  CG        81.4630   23.7010  231.6440 C.ar  618  TYR618     -0.0201
     25  CD1       80.4680   23.2060  232.4750 C.ar  618  TYR618     -0.0009
     26  CD2       82.0400   22.8350  230.7240 C.ar  618  TYR618     -0.0009
     27  CE1       80.0640   21.8890  232.3960 C.ar  618  TYR618      0.0417
     28  CE2       81.6400   21.5160  230.6360 C.ar  618  TYR618      0.0417
     29  CZ        80.6520   21.0490  231.4750 C.ar  618  TYR618      0.1957
     30  OH        80.2470   19.7370  231.3950 O.3   618  TYR618     -0.2866
     31  N         81.8110   19.3050  236.1220 N.3   626  LEU626     -0.1245
     32  CA        80.8070   18.2460  236.0730 C.3   626  LEU626      0.1561
     33  C         81.3800   17.0150  236.7570 C.2   626  LEU626      0.2260
     34  O         82.4100   16.4930  236.3210 O.2   626  LEU626     -0.2867
     35  CB        80.4110   17.9290  234.6300 C.3   626  LEU626      0.0270
     36  CG        79.1850   17.0380  234.4370 C.3   626  LEU626      0.0019
     37  CD1       78.0130   17.5950  235.2180 C.3   626  LEU626      0.0001
     38  CD2       78.8420   16.9350  232.9640 C.3   626  LEU626      0.0001
     39  N         80.5380   10.6190  236.1080 N.3   629  HIS629     -0.1241
     40  CA        79.2450   10.0360  235.7770 C.3   629  HIS629      0.1621
     41  C         79.3830    9.2130  234.5030 C.2   629  HIS629      0.2264
     42  O         80.4130    9.2450  233.8240 O.2   629  HIS629     -0.2867
     43  CB        78.1830   11.1170  235.5850 C.3   629  HIS629      0.0745
     44  CG        78.4310   11.9850  234.3940 C.ar  629  HIS629      0.0817
     45  ND1       79.3500   13.0110  234.4020 N.ar  629  HIS629     -0.2268
     46  CD2       77.9030   11.9610  233.1480 C.ar  629  HIS629      0.1154
     47  CE1       79.3670   13.5920  233.2160 C.ar  629  HIS629      0.1986
     48  NE2       78.4960   12.9760  232.4370 N.ar  629  HIS629     -0.2212
     49  N         77.0060    8.1240  230.8250 N.3   631  ASP631     -0.1239
     50  CA        76.0150    8.6650  229.9080 C.3   631  ASP631      0.1674
     51  C         75.0200    7.5820  229.5130 C.2   631  ASP631      0.2266
     52  O         75.3770    6.4100  229.3650 O.2   631  ASP631     -0.2867
     53  CB        76.6760    9.2350  228.6510 C.3   631  ASP631      0.1410
     54  CG        77.6210   10.3780  228.9530 C.2   631  ASP631      0.3668
     55  OD1       77.3280   11.1760  229.8660 O.co2 631  ASP631     -0.2456
     56  OD2       78.6570   10.4840  228.2650 O.co2 631  ASP631     -0.2456
     57  N         78.9810    8.7010  222.9640 N.3   636  THR636     -0.1218
     58  CA        78.7200   10.1150  223.1770 C.3   636  THR636      0.1862
     59  C         79.5470   10.9420  222.2040 C.2   636  THR636      0.2287
     60  O         80.7170   10.6370  221.9510 O.2   636  THR636     -0.2866
     61  CB        79.0400   10.5200  224.6260 C.3   636  THR636      0.1770
     62  OG1       78.2820    9.7050  225.5300 O.3   636  THR636     -0.2211
     63  CG2       78.6970   11.9800  224.8710 C.3   636  THR636      0.0375
     64  N         81.1160   14.5610  221.7840 N.3   638  ASN638     -0.1240
     65  CA        81.5080   15.7260  222.5780 C.3   638  ASN638      0.1653
     66  C         82.2740   16.6820  221.6690 C.2   638  ASN638      0.2266
     67  O         83.4440   16.4450  221.3540 O.2   638  ASN638     -0.2867
     68  CB        82.3480   15.3050  223.7820 C.3   638  ASN638      0.1155
     69  CG        82.5080   16.4150  224.8060 C.2   638  ASN638      0.2627
     70  OD1       82.4810   17.5990  224.4710 O.2   638  ASN638     -0.2716
     71  ND2       82.6810   16.0320  226.0650 N.am  638  ASN638     -0.0877
     72  N         89.3420   19.9910  230.2040 N.3   652  GLY652     -0.1210
     73  CA        88.2420   19.4540  229.4300 C.3   652  GLY652      0.1956
     74  C         87.6040   18.2340  230.0610 C.2   652  GLY652      0.2612
     75  O         86.8600   18.3500  231.0400 O.2   652  GLY652     -0.2717
     76  N         87.8900   17.0580  229.5120 N.am  653  CYS653     -0.1970
     77  CA        87.3040   15.8090  229.9710 C.3   653  CYS653      0.1712
     78  C         88.3780   14.9220  230.5900 C.2   653  CYS653      0.2296
     79  O         89.5520   14.9870  230.2160 O.2   653  CYS653     -0.2864
     80  CB        86.6170   15.0720  228.8180 C.3   653  CYS653      0.0983
     81  SG        85.0930   14.2230  229.2750 S.3   653  CYS653     -0.0798
     82  N         84.8290   14.6630  220.1970 N.3   671  LEU671     -0.1245
     83  CA        85.2160   13.4650  220.9250 C.3   671  LEU671      0.1561
     84  C         84.1420   12.3980  220.7680 C.2   671  LEU671      0.2260
     85  O         82.9450   12.6860  220.8670 O.2   671  LEU671     -0.2867
     86  CB        85.4370   13.7660  222.4090 C.3   671  LEU671      0.0270
     87  CG        86.7220   14.5050  222.7830 C.3   671  LEU671      0.0019
     88  CD1       86.7370   14.8440  224.2650 C.3   671  LEU671      0.0001
     89  CD2       87.9370   13.6730  222.4110 C.3   671  LEU671      0.0001
     90  N         83.3440    8.7060  222.3330 N.3   673  HIS673     -0.1241
     91  CA        83.6780    7.7260  223.3550 C.3   673  HIS673      0.1621
     92  C         82.4250    6.9700  223.7670 C.2   673  HIS673      0.2264
     93  O         81.3120    7.4940  223.6430 O.2   673  HIS673     -0.2867
     94  CB        84.3160    8.3900  224.5870 C.3   673  HIS673      0.0745
     95  CG        83.4110    9.3430  225.3060 C.ar  673  HIS673      0.0817
     96  ND1       82.4370    8.9250  226.1870 N.ar  673  HIS673     -0.2268
     97  CD2       83.3390   10.6950  225.2810 C.ar  673  HIS673      0.1154
     98  CE1       81.8000    9.9770  226.6690 C.ar  673  HIS673      0.1986
     99  NE2       82.3280   11.0630  226.1350 N.ar  673  HIS673     -0.2212
    100  N         83.5090    9.3360  232.9380 N.3   681  HIS681     -0.1241
    101  CA        84.1780   10.5710  232.5560 C.3   681  HIS681      0.1621
    102  C         83.7500   11.7270  233.4520 C.2   681  HIS681      0.2264
    103  O         82.6200   11.7740  233.9460 O.2   681  HIS681     -0.2867
    104  CB        83.9160   10.9090  231.0820 C.3   681  HIS681      0.0745
    105  CG        82.5580   11.4790  230.8110 C.ar  681  HIS681      0.0817
    106  ND1       81.4420   10.6920  230.6290 N.ar  681  HIS681     -0.2268
    107  CD2       82.1440   12.7590  230.6600 C.ar  681  HIS681      0.1154
    108  CE1       80.3950   11.4640  230.3970 C.ar  681  HIS681      0.1986
    109  NE2       80.7940   12.7220  230.4080 N.ar  681  HIS681     -0.2212
    110  N         84.0940   16.1150  234.0540 N.3   683  GLY683     -0.1225
    111  CA        84.3790   17.4110  233.4680 C.3   683  GLY683      0.1811
    112  C         85.2390   18.2990  234.3430 C.2   683  GLY683      0.2280
    113  O         84.8130   18.7140  235.4250 O.2   683  GLY683     -0.2866
    114  N         83.1200   28.3780  228.6510 N.3   691  ARG691     -0.1245
    115  CA        83.4600   27.2100  227.8490 C.3   691  ARG691      0.1563
    116  C         82.1780   26.5690  227.3400 C.2   691  ARG691      0.2260
    117  O         81.3310   26.1490  228.1350 O.2   691  ARG691     -0.2867
    118  CB        84.2780   26.2070  228.6640 C.3   691  ARG691      0.0307
    119  CG        84.4770   24.8600  227.9910 C.3   691  ARG691      0.0489
    120  CD        84.9910   23.8380  228.9890 C.3   691  ARG691      0.2205
    121  NE        84.9450   22.4770  228.4660 N.pl3 691  ARG691     -0.0865
    122  CZ        85.0820   21.3890  229.2160 C.cat 691  ARG691      0.5346
    123  NH1       85.0280   20.1850  228.6630 N.pl3 691  ARG691      0.1354
    124  NH2       85.2650   21.5040  230.5230 N.pl3 691  ARG691      0.1354
    125  N         80.3450   23.6040  224.8390 N.3   693  ILE693     -0.1245
    126  CA        80.5010   22.3160  224.1760 C.3   693  ILE693      0.1561
    127  C         79.1380   21.8550  223.6780 C.2   693  ILE693      0.2260
    128  O         78.1010   22.1630  224.2720 O.2   693  ILE693     -0.2867
    129  CB        81.1220   21.2390  225.0970 C.3   693  ILE693      0.0252
    130  CG1       80.3110   21.1010  226.3860 C.3   693  ILE693      0.0019
    131  CG2       82.5900   21.5380  225.3890 C.3   693  ILE693      0.0019
    132  CD1       80.7890   19.9900  227.2880 C.3   693  ILE693      0.0001
    133  N         77.0270   18.3740  222.8300 N.3   695  VAL695     -0.1245
    134  CA        77.0630   16.9750  223.2400 C.3   695  VAL695      0.1561
    135  C         75.7510   16.3050  222.8540 C.2   695  VAL695      0.2260
    136  O         74.6710   16.8660  223.0710 O.2   695  VAL695     -0.2867
    137  CB        77.3370   16.8400  224.7520 C.3   695  VAL695      0.0252
    138  CG1       76.6510   17.9520  225.5100 C.3   695  VAL695      0.0019
    139  CG2       76.8910   15.4820  225.2710 C.3   695  VAL695      0.0019
    140  N         73.8480   12.3410  223.0870 N.3   697  PHE697     -0.1241
    141  CA        73.8530   10.9740  223.6050 C.3   697  PHE697      0.1605
    142  C         73.2080   10.0810  222.5520 C.2   697  PHE697      0.2264
    143  O         71.9820    9.9560  222.4960 O.2   697  PHE697     -0.2867
    144  CB        73.1150   10.8970  224.9370 C.3   697  PHE697      0.0534
    145  CG        73.8060   11.6230  226.0550 C.ar  697  PHE697     -0.0203
    146  CD1       75.1780   11.8090  226.0360 C.ar  697  PHE697     -0.0042
    147  CD2       73.0820   12.1210  227.1260 C.ar  697  PHE697     -0.0042
    148  CE1       75.8150   12.4760  227.0620 C.ar  697  PHE697     -0.0003
    149  CE2       73.7140   12.7890  228.1550 C.ar  697  PHE697     -0.0003
    150  CZ        75.0820   12.9660  228.1240 C.ar  697  PHE697     -0.0000
@<TRIPOS>BOND
     1    82    83    1
     2    84    85    2
     3    84    83    1
     4    83    86    1
     5    67    66    2
     6    66    65    1
     7    64    65    1
     8    60    59    2
     9    59    58    1
    10    90    91    1
    11    86    87    1
    12    89    87    1
    13   143   142    2
    14   142   141    1
    15    65    68    1
    16    87    88    1
    17   133   134    1
    18   135   136    2
    19   135   134    1
    20    57    58    1
    21   140   141    1
    22    58    61    1
    23   134   137    1
    24    91    92    1
    25    91    94    1
    26   141   144    1
    27    93    92    2
    28   127   126    1
    29   127   128    2
    30    68    69    1
    31   126   125    1
    32   126   129    1
    33    70    69    2
    34    94    95    1
    35    61    63    1
    36    61    62    1
    37   137   139    1
    38   137   138    1
    39    69    71   am
    40   144   145    1
    41   129   131    1
    42   129   130    1
    43    97    95   ar
    44    97    99   ar
    45    95    96   ar
    46   146   145   ar
    47   146   148   ar
    48   145   147   ar
    49    99    98   ar
    50    96    98   ar
    51   130   132    1
    52    12    13    1
    53   148   150   ar
    54    15    14    2
    55   147   149   ar
    56   116   115    1
    57   116   117    2
    58    13    14    1
    59    13    16    1
    60   115   114    1
    61   115   118    1
    62   119   118    1
    63   119   120    1
    64    18    16    1
    65   150   149   ar
    66    56    54   ar
    67    16    17    1
    68   121   120    1
    69   121   122    2
    70    53    54    1
    71    53    50    1
    72   123   122    1
    73    80    81    1
    74    80    77    1
    75    54    55   ar
    76   122   124    1
    77    52    51    2
    78    73    74    1
    79    73    72    1
    80    76    77    1
    81    76    74   am
    82    51    50    1
    83    50    49    1
    84    77    78    1
    85    74    75    2
    86    79    78    2
    87   108   109   ar
    88   108   106   ar
    89   109   107   ar
    90    11     9    1
    91   106   105   ar
    92    28    26   ar
    93    28    29   ar
    94   107   105   ar
    95    19    20    1
    96    26    24   ar
    97   105   104    1
    98   104   101    1
    99    30    29    1
   100    22    21    2
   101    29    27   ar
   102     9     8    2
   103     9    10    1
   104    24    23    1
   105    24    25   ar
   106    23    20    1
   107     8     7    1
   108    20    21    1
   109    27    25   ar
   110    48    46   ar
   111    48    47   ar
   112     6     7    1
   113     6     5    1
   114   101   100    1
   115   101   102    1
   116     1     2    1
   117    38    36    1
   118    46    44   ar
   119    47    45   ar
   120     2     5    1
   121     2     3    1
   122   102   103    2
   123   111   110    1
   124   111   112    1
   125    42    41    2
   126   112   113    2
   127    44    45   ar
   128    44    43    1
   129     3     4    2
   130    36    35    1
   131    36    37    1
   132    41    40    1
   133    35    32    1
   134    43    40    1
   135    40    39    1
   136    32    31    1
   137    32    33    1
   138    34    33    2
