@<TRIPOS>MOLECULE
tmp/6fyiA00.pdb
 155 145 0 0 0
SMALL
GASTEIGER

@<TRIPOS>ATOM
      1  N         17.9760   90.3030   40.3670 N.3    22  LEU22      -0.1231
      2  CA        17.4410   89.7450   39.1250 C.3    22  LEU22       0.1693
      3  C         17.3680   90.7770   38.0090 C.2    22  LEU22       0.2593
      4  O         17.5960   90.4540   36.8430 O.2    22  LEU22      -0.2718
      5  CB        16.0510   89.1520   39.3590 C.3    22  LEU22       0.0284
      6  CG        15.9210   87.9320   40.2720 C.3    22  LEU22       0.0019
      7  CD1       14.5000   87.8360   40.7930 C.3    22  LEU22       0.0001
      8  CD2       16.3270   86.6530   39.5500 C.3    22  LEU22       0.0001
      9  N         17.0390   92.0150   38.3710 N.am   23  GLY23      -0.1942
     10  CA        16.8820   93.0890   37.4010 C.3    23  GLY23       0.2014
     11  C         17.1470   94.4650   37.9760 C.2    23  GLY23       0.2638
     12  O         17.2500   94.6380   39.1950 O.2    23  GLY23      -0.2714
     13  N         17.2560   95.4450   37.0810 N.am   24  GLU24      -0.1977
     14  CA        17.5110   96.8300   37.4530 C.3    24  GLU24       0.1602
     15  C         16.8880   97.7710   36.4250 C.2    24  GLU24       0.2287
     16  O         16.7680   97.4220   35.2480 O.2    24  GLU24      -0.2864
     17  CB        19.0160   97.0760   37.5470 C.3    24  GLU24       0.0415
     18  CG        19.4080   98.2430   38.4360 C.3    24  GLU24       0.1163
     19  CD        20.9100   98.3790   38.5780 C.2    24  GLU24       0.3649
     20  OE1       21.5800   98.7220   37.5780 O.co2  24  GLU24      -0.2457
     21  OE2       21.4200   98.1470   39.6950 O.co2  24  GLU24      -0.2457
     22  N         12.6550  102.2850   37.5380 N.3    27  PHE27      -0.1241
     23  CA        11.6260  102.0080   38.5400 C.3    27  PHE27       0.1605
     24  C         12.2500  101.6700   39.8930 C.2    27  PHE27       0.2264
     25  O         11.7070  102.0210   40.9430 O.2    27  PHE27      -0.2867
     26  CB        10.7120  100.8620   38.0750 C.3    27  PHE27       0.0534
     27  CG        11.4430   99.5750   37.7680 C.ar   27  PHE27      -0.0203
     28  CD1       11.9800   99.3460   36.5020 C.ar   27  PHE27      -0.0042
     29  CD2       11.5880   98.5880   38.7450 C.ar   27  PHE27      -0.0042
     30  CE1       12.6570   98.1600   36.2140 C.ar   27  PHE27      -0.0003
     31  CE2       12.2630   97.4020   38.4700 C.ar   27  PHE27      -0.0003
     32  CZ        12.7980   97.1860   37.2000 C.ar   27  PHE27      -0.0000
     33  N         14.7660   94.5720   41.0300 N.3    30  VAL30      -0.1245
     34  CA        14.1240   93.2880   41.3110 C.3    30  VAL30       0.1561
     35  C         15.1440   92.3560   41.9650 C.2    30  VAL30       0.2260
     36  O         16.2410   92.1630   41.4360 O.2    30  VAL30      -0.2867
     37  CB        13.5320   92.6410   40.0280 C.3    30  VAL30       0.0252
     38  CG1       12.9220   91.2770   40.3310 C.3    30  VAL30       0.0019
     39  CG2       12.4890   93.5530   39.4010 C.3    30  VAL30       0.0019
     40  N         10.4020   86.8080   43.6380 N.3    44  ALA44      -0.1245
     41  CA        11.0590   87.9440   43.0080 C.3    44  ALA44       0.1562
     42  C         10.4870   89.2240   43.5970 C.2    44  ALA44       0.2260
     43  O          9.2910   89.4980   43.4650 O.2    44  ALA44      -0.2867
     44  CB        10.8620   87.9070   41.5100 C.3    44  ALA44       0.0290
     45  N         10.2430   93.1660   43.7040 N.3    46  LYS46      -0.1245
     46  CA        10.4170   94.4340   43.0220 C.3    46  LYS46       0.1561
     47  C         10.3980   95.5410   44.0670 C.2    46  LYS46       0.2260
     48  O          9.3660   95.8030   44.6820 O.2    46  LYS46      -0.2867
     49  CB         9.2910   94.6340   42.0060 C.3    46  LYS46       0.0271
     50  CG         9.4600   95.8040   41.0510 C.3    46  LYS46       0.0035
     51  CD         8.1460   96.0490   40.3250 C.3    46  LYS46       0.0206
     52  CE         8.3250   96.8640   39.0640 C.3    46  LYS46       0.1093
     53  NZ         7.0470   96.9750   38.3000 N.3    46  LYS46      -0.1314
     54  N         -0.0430   99.9120   39.6140 N.3    61  GLU61      -0.1245
     55  CA         0.2960   98.5550   39.1860 C.3    61  GLU61       0.1567
     56  C         -0.2680   97.5240   40.1610 C.2    61  GLU61       0.2260
     57  O         -0.8870   96.5460   39.7410 O.2    61  GLU61      -0.2867
     58  CB         1.8110   98.3730   39.0380 C.3    61  GLU61       0.0388
     59  CG         2.2050   97.0050   38.4640 C.3    61  GLU61       0.1160
     60  CD         3.7020   96.7290   38.4900 C.2    61  GLU61       0.3649
     61  OE1        4.4600   97.5140   39.1000 O.co2  61  GLU61      -0.2457
     62  OE2        4.1190   95.7100   37.8960 O.co2  61  GLU61      -0.2457
     63  N          2.0070   87.6090   35.1260 N.3    80  VAL80      -0.1245
     64  CA         2.7890   87.4230   36.3500 C.3    80  VAL80       0.1561
     65  C          1.9150   87.4690   37.6160 C.2    80  VAL80       0.2260
     66  O          0.9710   88.2600   37.7070 O.2    80  VAL80      -0.2867
     67  CB         3.9800   88.4280   36.4340 C.3    80  VAL80       0.0252
     68  CG1        3.5020   89.8590   36.7260 C.3    80  VAL80       0.0019
     69  CG2        5.0130   87.9680   37.4560 C.3    80  VAL80       0.0019
     70  N          6.7130   88.8100   43.6320 N.3    96  PHE96      -0.1227
     71  CA         6.2680   88.0710   42.4530 C.3    96  PHE96       0.1736
     72  C          6.6550   86.5960   42.5150 C.2    96  PHE96       0.2595
     73  O          7.4440   86.1800   43.3670 O.2    96  PHE96      -0.2718
     74  CB         6.8640   88.6840   41.1760 C.3    96  PHE96       0.0547
     75  CG         6.3070   90.0370   40.8190 C.ar   96  PHE96      -0.0202
     76  CD1        5.0100   90.1680   40.3320 C.ar   96  PHE96      -0.0042
     77  CD2        7.0930   91.1770   40.9430 C.ar   96  PHE96      -0.0042
     78  CE1        4.4970   91.4150   39.9900 C.ar   96  PHE96      -0.0003
     79  CE2        6.5890   92.4290   40.6030 C.ar   96  PHE96      -0.0003
     80  CZ         5.2870   92.5470   40.1220 C.ar   96  PHE96      -0.0000
     81  N          6.0840   85.8110   41.6040 N.am   97  GLU97      -0.1965
     82  CA         6.5800   84.4710   41.3110 C.3    97  GLU97       0.1733
     83  C          7.9280   84.5980   40.6060 C.2    97  GLU97       0.2616
     84  O          8.1260   85.5040   39.7920 O.2    97  GLU97      -0.2715
     85  CB         5.5830   83.6990   40.4340 C.3    97  GLU97       0.0429
     86  CG         5.1220   84.4490   39.1750 C.3    97  GLU97       0.1163
     87  CD         4.1950   83.6400   38.2820 C.2    97  GLU97       0.3649
     88  OE1        3.9400   82.4500   38.5710 O.co2  97  GLU97      -0.2457
     89  OE2        3.7180   84.2070   37.2760 O.co2  97  GLU97      -0.2457
     90  N          8.8570   83.7050   40.9300 N.am   98  LEU98      -0.1963
     91  CA        10.1700   83.7200   40.2970 C.3    98  LEU98       0.1728
     92  C         10.0820   83.1810   38.8690 C.2    98  LEU98       0.2616
     93  O          9.5250   82.1060   38.6330 O.2    98  LEU98      -0.2715
     94  CB        11.2000   82.9390   41.1260 C.3    98  LEU98       0.0311
     95  CG        12.6550   82.9410   40.6340 C.3    98  LEU98       0.0022
     96  CD1       13.2340   84.3490   40.6100 C.3    98  LEU98       0.0001
     97  CD2       13.5220   82.0300   41.4830 C.3    98  LEU98       0.0001
     98  N         10.6190   83.9470   37.9240 N.am   99  LEU99      -0.1963
     99  CA        10.6310   83.5520   36.5200 C.3    99  LEU99       0.1728
    100  C         12.0600   83.5570   35.9790 C.2    99  LEU99       0.2616
    101  O         13.0180   83.6100   36.7530 O.2    99  LEU99      -0.2715
    102  CB         9.7130   84.4650   35.6970 C.3    99  LEU99       0.0311
    103  CG         8.2370   84.5540   36.1130 C.3    99  LEU99       0.0022
    104  CD1        7.5060   85.6210   35.3090 C.3    99  LEU99       0.0001
    105  CD2        7.5210   83.2050   36.0020 C.3    99  LEU99       0.0001
    106  N         12.2000   83.4810   34.6570 N.am  100  GLY100     -0.1955
    107  CA        13.5120   83.5290   34.0130 C.3   100  GLY100      0.1869
    108  C         13.7670   84.8650   33.3410 C.2   100  GLY100      0.2309
    109  O         13.1790   85.8820   33.7170 O.2   100  GLY100     -0.2863
    110  N         13.8920   87.7680   30.2600 N.3   102  SER102     -0.1217
    111  CA        12.9350   88.2840   29.2870 C.3   102  SER102      0.1889
    112  C         13.2380   87.7100   27.9100 C.2   102  SER102      0.2288
    113  O         14.3660   87.2940   27.6370 O.2   102  SER102     -0.2866
    114  CB        12.9530   89.8200   29.2470 C.3   102  SER102      0.2089
    115  OG        14.0340   90.3220   28.4790 O.3   102  SER102     -0.2183
    116  N         10.8800   92.8790   26.3200 N.3   147  GLU147     -0.1231
    117  CA        11.3610   93.0330   27.7000 C.3   147  GLU147      0.1699
    118  C         10.2920   92.7000   28.7420 C.2   147  GLU147      0.2592
    119  O         10.6160   92.2340   29.8360 O.2   147  GLU147     -0.2718
    120  CB        11.8880   94.4510   27.9560 C.3   147  GLU147      0.0402
    121  CG        13.0340   94.8950   27.0510 C.3   147  GLU147      0.1161
    122  CD        12.5640   95.6750   25.8290 C.2   147  GLU147      0.3649
    123  OE1       11.7920   95.1210   25.0070 O.co2 147  GLU147     -0.2457
    124  OE2       12.9840   96.8460   25.6860 O.co2 147  GLU147     -0.2457
    125  N          9.0250   92.9440   28.4050 N.am  148  ASN148     -0.1974
    126  CA         7.9170   92.7220   29.3400 C.3   148  ASN148      0.1688
    127  C          7.2210   91.3710   29.1800 C.2   148  ASN148      0.2292
    128  O          6.1350   91.1430   29.7240 O.2   148  ASN148     -0.2864
    129  CB         6.9120   93.8760   29.2740 C.3   148  ASN148      0.1181
    130  CG         7.4670   95.1650   29.8540 C.2   148  ASN148      0.2629
    131  OD1        8.4090   95.1520   30.6500 O.2   148  ASN148     -0.2716
    132  ND2        6.8840   96.2880   29.4560 N.am  148  ASN148     -0.0877
    133  N          8.4130   87.5230   29.8630 N.3   150  LEU150     -0.1245
    134  CA         9.4830   86.7000   30.4280 C.3   150  LEU150      0.1561
    135  C          9.2210   85.2160   30.2330 C.2   150  LEU150      0.2260
    136  O          8.0740   84.7730   30.2660 O.2   150  LEU150     -0.2867
    137  CB         9.6580   86.9720   31.9280 C.3   150  LEU150      0.0270
    138  CG         9.5730   88.3760   32.5350 C.3   150  LEU150      0.0019
    139  CD1        9.8350   88.2820   34.0200 C.3   150  LEU150      0.0001
    140  CD2       10.5420   89.3570   31.8950 C.3   150  LEU150      0.0001
    141  N          4.7150   90.8130   32.1260 N.3   179  VAL179     -0.1231
    142  CA         5.0250   91.5900   33.3270 C.3   179  VAL179      0.1692
    143  C          4.8470   93.0940   33.0900 C.2   179  VAL179      0.2592
    144  O          4.4160   93.5120   32.0130 O.2   179  VAL179     -0.2718
    145  CB         6.4570   91.2850   33.8640 C.3   179  VAL179      0.0266
    146  CG1        6.5460   89.8580   34.3790 C.3   179  VAL179      0.0020
    147  CG2        7.5160   91.5370   32.7980 C.3   179  VAL179      0.0020
    148  N          5.1860   93.8860   34.1070 N.am  180  ASP180     -0.1974
    149  CA         5.0690   95.3530   34.0990 C.3   180  ASP180      0.1709
    150  C          3.6680   95.8760   33.7660 C.2   180  ASP180      0.2293
    151  O          3.3380   96.1210   32.6060 O.2   180  ASP180     -0.2864
    152  CB         6.1300   96.0030   33.1970 C.3   180  ASP180      0.1436
    153  CG         6.2330   97.5140   33.4010 C.2   180  ASP180      0.3671
    154  OD1        5.6310   98.0430   34.3640 O.co2 180  ASP180     -0.2456
    155  OD2        6.9250   98.1740   32.5920 O.co2 180  ASP180     -0.2456
@<TRIPOS>BOND
     1   123   122   ar
     2   124   122   ar
     3   122   121    1
     4   116   117    1
     5   121   120    1
     6   113   112    2
     7   117   120    1
     8   117   118    1
     9   112   111    1
    10   125   118   am
    11   125   126    1
    12   115   114    1
    13   118   119    2
    14   127   126    1
    15   127   128    2
    16   114   111    1
    17   129   126    1
    18   129   130    1
    19   111   110    1
    20   132   130   am
    21   130   131    2
    22   133   134    1
    23   135   136    2
    24   135   134    1
    25   134   137    1
    26   140   138    1
    27   137   138    1
    28   144   143    2
    29   141   142    1
    30   138   139    1
    31   155   153   ar
    32   151   150    2
    33   147   145    1
    34   143   142    1
    35   143   148   am
    36   152   153    1
    37   152   149    1
    38   142   145    1
    39   108   109    2
    40   108   107    1
    41   153   154   ar
    42   150   149    1
    43   145   146    1
    44   107   106    1
    45   149   148    1
    46   106   100   am
    47    63    64    1
    48    16    15    2
    49   104   103    1
    50   102   103    1
    51   102    99    1
    52   100    99    1
    53   100   101    2
    54   105   103    1
    55    30    28   ar
    56    30    32   ar
    57    64    67    1
    58    64    65    1
    59    15    14    1
    60    67    68    1
    61    67    69    1
    62    28    27   ar
    63    99    98    1
    64     4     3    2
    65    13    14    1
    66    13    11   am
    67    32    31   ar
    68    89    87   ar
    69    10    11    1
    70    10     9    1
    71    14    17    1
    72    22    23    1
    73    17    18    1
    74    20    19   ar
    75    65    66    2
    76    27    26    1
    77    27    29   ar
    78    62    60   ar
    79    98    92   am
    80    11    12    2
    81     3     9   am
    82     3     2    1
    83    26    23    1
    84    87    88   ar
    85    87    86    1
    86    53    52    1
    87    18    19    1
    88    59    60    1
    89    59    58    1
    90    31    29   ar
    91    60    61   ar
    92    23    24    1
    93    19    21   ar
    94    93    92    2
    95    92    91    1
    96    58    55    1
    97    52    51    1
    98     2     5    1
    99     2     1    1
   100    86    85    1
   101    55    54    1
   102    55    56    1
   103     5     6    1
   104    39    37    1
   105     8     6    1
   106    57    56    2
   107    84    83    2
   108    24    25    2
   109    78    80   ar
   110    78    76   ar
   111    37    38    1
   112    37    34    1
   113    80    79   ar
   114     6     7    1
   115    91    90    1
   116    91    94    1
   117    51    50    1
   118    76    75   ar
   119    85    82    1
   120    79    77   ar
   121    83    90   am
   122    83    82    1
   123    96    95    1
   124    95    94    1
   125    95    97    1
   126    75    77   ar
   127    75    74    1
   128    33    34    1
   129    50    49    1
   130    74    71    1
   131    82    81    1
   132    34    35    1
   133    36    35    2
   134    44    41    1
   135    81    72   am
   136    49    46    1
   137    71    72    1
   138    71    70    1
   139    72    73    2
   140    41    42    1
   141    41    40    1
   142    46    45    1
   143    46    47    1
   144    43    42    2
   145    47    48    2
