@<TRIPOS>MOLECULE
tmp/6fyjA00.pdb
 146 146 0 0 0
SMALL
GASTEIGER

@<TRIPOS>ATOM
      1  N          2.3890   43.8080   66.8010 N.3    72  PRO72      -0.2116
      2  CA         2.1080   45.2400   66.8370 C.3    72  PRO72       0.1372
      3  C          1.1980   45.6860   65.6950 C.2    72  PRO72       0.2244
      4  O          1.2700   45.1370   64.5830 O.2    72  PRO72      -0.2868
      5  CB         3.5190   45.8470   66.6560 C.3    72  PRO72       0.0268
      6  CG         4.4890   44.7320   66.9500 C.3    72  PRO72       0.0207
      7  CD         3.8090   43.4850   66.6490 C.3    72  PRO72       0.0892
      8  N          2.7000   46.2380   62.2790 N.3    75  VAL75      -0.1245
      9  CA         2.9920   45.0350   61.4960 C.3    75  VAL75       0.1561
     10  C          1.7180   44.4840   60.8880 C.2    75  VAL75       0.2260
     11  O          1.7240   44.0780   59.7190 O.2    75  VAL75      -0.2867
     12  CB         3.7080   43.9790   62.3770 C.3    75  VAL75       0.0252
     13  CG1        3.8380   42.6600   61.6490 C.3    75  VAL75       0.0019
     14  CG2        5.0790   44.4720   62.7870 C.3    75  VAL75       0.0019
     15  N          2.5530   44.0070   56.9960 N.3    79  LEU79      -0.1231
     16  CA         2.8990   42.6540   56.5990 C.3    79  LEU79       0.1693
     17  C          1.7090   41.7190   56.5970 C.2    79  LEU79       0.2592
     18  O          1.5490   40.9550   55.6390 O.2    79  LEU79      -0.2718
     19  CB         3.9840   42.1090   57.5400 C.3    79  LEU79       0.0284
     20  CG         4.7080   40.8310   57.1120 C.3    79  LEU79       0.0019
     21  CD1        5.4170   40.9600   55.8120 C.3    79  LEU79       0.0001
     22  CD2        5.6840   40.3850   58.2200 C.3    79  LEU79       0.0001
     23  N          0.8750   41.7090   57.6350 N.am   80  PHE80      -0.1976
     24  CA        -0.0360   40.5760   57.8360 C.3    80  PHE80       0.1639
     25  C         -1.4490   40.7900   57.2640 C.2    80  PHE80       0.2290
     26  O         -2.0610   39.8540   56.7020 O.2    80  PHE80      -0.2864
     27  CB        -0.2060   40.2590   59.3290 C.3    80  PHE80       0.0560
     28  CG         1.0050   39.6450   60.0430 C.ar   80  PHE80      -0.0200
     29  CD1        2.0780   39.1100   59.3760 C.ar   80  PHE80      -0.0042
     30  CD2        0.9920   39.5890   61.4350 C.ar   80  PHE80      -0.0042
     31  CE1        3.1350   38.5450   60.0790 C.ar   80  PHE80      -0.0003
     32  CE2        2.0230   38.9990   62.1130 C.ar   80  PHE80      -0.0003
     33  CZ         3.0850   38.5090   61.4410 C.ar   80  PHE80      -0.0000
     34  N          6.0260   44.0660   52.5220 N.3   171  PHE171     -0.1241
     35  CA         7.0390   43.4400   53.3470 C.3   171  PHE171      0.1605
     36  C          8.2710   44.3050   53.5710 C.2   171  PHE171      0.2264
     37  O          8.8910   44.2270   54.6440 O.2   171  PHE171     -0.2867
     38  CB         7.4170   42.0190   52.8760 C.3   171  PHE171      0.0534
     39  CG         8.1030   41.9170   51.5490 C.ar  171  PHE171     -0.0203
     40  CD1        9.4690   42.0840   51.4100 C.ar  171  PHE171     -0.0042
     41  CD2        7.3710   41.5880   50.4200 C.ar  171  PHE171     -0.0042
     42  CE1       10.0820   41.9490   50.1790 C.ar  171  PHE171     -0.0003
     43  CE2        7.9910   41.4860   49.1880 C.ar  171  PHE171     -0.0003
     44  CZ         9.3330   41.6330   49.0840 C.ar  171  PHE171     -0.0000
     45  N          7.5160   46.6830   56.7610 N.3   174  ALA174     -0.1231
     46  CA         7.0160   46.1660   58.0250 C.3   174  ALA174      0.1694
     47  C          7.9140   46.4880   59.2190 C.2   174  ALA174      0.2591
     48  O          7.3860   46.7540   60.3110 O.2   174  ALA174     -0.2718
     49  CB         6.7820   44.6670   57.8820 C.3   174  ALA174      0.0304
     50  N          9.2170   46.5290   59.0020 N.am  175  ALA175     -0.1980
     51  CA        10.1850   46.8930   60.0370 C.3   175  ALA175      0.1597
     52  C         10.7870   48.2750   59.7930 C.2   175  ALA175      0.2287
     53  O         11.8490   48.6080   60.3430 O.2   175  ALA175     -0.2864
     54  CB        11.2770   45.8530   60.1040 C.3   175  ALA175      0.0319
     55  N          1.7920   38.1530   48.3140 N.3   243  ARG243     -0.1231
     56  CA         2.9050   38.9210   48.8770 C.3   243  ARG243      0.1679
     57  C          4.1240   38.0630   49.1720 C.2   243  ARG243      0.2434
     58  O          5.2370   38.4380   48.7630 O.2   243  ARG243     -0.2733
     59  CB         2.3990   39.6830   50.1150 C.3   243  ARG243      0.0321
     60  CG         3.4680   40.4660   50.8430 C.3   243  ARG243      0.0489
     61  CD         3.1530   40.7560   52.2850 C.3   243  ARG243      0.2205
     62  NE         3.1920   39.5770   53.1360 N.pl3 243  ARG243     -0.0865
     63  CZ         2.1520   38.9180   53.6110 C.cat 243  ARG243      0.5346
     64  NH1        0.9140   39.2190   53.2950 N.pl3 243  ARG243      0.1354
     65  NH2        2.3980   37.9180   54.4440 N.pl3 243  ARG243      0.1354
     66  N          4.0140   36.9700   49.9250 N.am  244  PRO244     -0.2729
     67  CA         5.2370   36.2190   50.2470 C.3   244  PRO244      0.1401
     68  C          5.8750   35.5510   49.0220 C.2   244  PRO244      0.2269
     69  O          7.0700   35.2880   48.9860 O.2   244  PRO244     -0.2865
     70  CB         4.7690   35.2070   51.3070 C.3   244  PRO244      0.0296
     71  CG         3.3170   35.0670   51.1160 C.3   244  PRO244      0.0237
     72  CD         2.8350   36.4050   50.6040 C.3   244  PRO244      0.0939
     73  N          8.0970   38.0490   47.8030 N.3   247  ALA247     -0.1245
     74  CA         9.2190   38.1220   48.7170 C.3   247  ALA247      0.1562
     75  C         10.2970   37.0780   48.4640 C.2   247  ALA247      0.2260
     76  O         11.4180   37.2360   48.9700 O.2   247  ALA247     -0.2867
     77  CB         8.7550   38.0720   50.1640 C.3   247  ALA247      0.0290
     78  N         16.5790   36.7770   56.9800 N.3   290  PHE290     -0.1227
     79  CA        15.3450   37.1120   56.2690 C.3   290  PHE290      0.1736
     80  C         14.2590   37.4710   57.2990 C.2   290  PHE290      0.2595
     81  O         14.0070   38.6430   57.5470 O.2   290  PHE290     -0.2718
     82  CB        14.9550   36.0250   55.2340 C.3   290  PHE290      0.0547
     83  CG        13.9520   36.4530   54.1990 C.ar  290  PHE290     -0.0202
     84  CD1       13.1500   37.5310   54.4020 C.ar  290  PHE290     -0.0042
     85  CD2       13.8360   35.7570   52.9950 C.ar  290  PHE290     -0.0042
     86  CE1       12.1860   37.9010   53.3980 C.ar  290  PHE290     -0.0003
     87  CE2       12.9260   36.1010   52.0280 C.ar  290  PHE290     -0.0003
     88  CZ        12.0770   37.1470   52.2210 C.ar  290  PHE290     -0.0000
     89  N         13.6150   36.4310   57.8650 N.am  291  PHE291     -0.1963
     90  CA        12.5730   36.7080   58.8690 C.3   291  PHE291      0.1756
     91  C         13.2700   36.6710   60.2540 C.2   291  PHE291      0.2461
     92  O         13.7850   35.6540   60.6390 O.2   291  PHE291     -0.2730
     93  CB        11.4690   35.6410   58.7930 C.3   291  PHE291      0.0574
     94  CG        10.0980   36.1390   59.2160 C.ar  291  PHE291     -0.0200
     95  CD1        9.8390   36.5230   60.5150 C.ar  291  PHE291     -0.0042
     96  CD2        9.0630   36.2370   58.2510 C.ar  291  PHE291     -0.0042
     97  CE1        8.6380   37.0030   60.8770 C.ar  291  PHE291     -0.0003
     98  CE2        7.8340   36.6770   58.6430 C.ar  291  PHE291     -0.0003
     99  CZ         7.6140   37.0680   59.9660 C.ar  291  PHE291     -0.0000
    100  N         13.3480   37.8270   60.9450 N.am  292  PRO292     -0.2716
    101  CA        14.2200   37.8470   62.1410 C.3   292  PRO292      0.1536
    102  C         13.7450   37.0390   63.3490 C.2   292  PRO292      0.2599
    103  O         14.5320   36.3380   64.0020 O.2   292  PRO292     -0.2715
    104  CB        14.3310   39.3570   62.4230 C.3   292  PRO292      0.0310
    105  CG        13.0400   39.9230   61.9400 C.3   292  PRO292      0.0237
    106  CD        12.7530   39.1270   60.6880 C.3   292  PRO292      0.0939
    107  N         12.4760   37.2190   63.6700 N.am  293  PHE293     -0.1960
    108  CA        11.8480   36.7040   64.8890 C.3   293  PHE293      0.1771
    109  C         10.3460   36.6860   64.6470 C.2   293  PHE293      0.2619
    110  O          9.8340   37.3680   63.7630 O.2   293  PHE293     -0.2715
    111  CB        12.2250   37.5200   66.1680 C.3   293  PHE293      0.0574
    112  CG        12.1670   39.0040   65.9850 C.ar  293  PHE293     -0.0200
    113  CD1       10.9620   39.6300   65.8320 C.ar  293  PHE293     -0.0042
    114  CD2       13.3150   39.7490   65.9440 C.ar  293  PHE293     -0.0042
    115  CE1       10.8960   40.9930   65.5930 C.ar  293  PHE293     -0.0003
    116  CE2       13.2620   41.1050   65.7120 C.ar  293  PHE293     -0.0003
    117  CZ        12.0680   41.7120   65.5620 C.ar  293  PHE293     -0.0000
    118  N          9.6470   35.8820   65.4520 N.am  294  VAL294     -0.1963
    119  CA         8.1890   35.8210   65.4770 C.3   294  VAL294      0.1727
    120  C          7.7280   36.1450   66.8870 C.2   294  VAL294      0.2616
    121  O          8.4790   35.9890   67.8530 O.2   294  VAL294     -0.2715
    122  CB         7.6550   34.4690   64.9750 C.3   294  VAL294      0.0290
    123  CG1        7.8590   34.3520   63.4450 C.3   294  VAL294      0.0023
    124  CG2        8.2610   33.3620   65.6560 C.3   294  VAL294      0.0023
    125  N          6.4980   36.5860   67.0190 N.am  295  VAL295     -0.1977
    126  CA         5.9690   37.0470   68.3110 C.3   295  VAL295      0.1596
    127  C          4.6870   36.3430   68.7140 C.2   295  VAL295      0.2287
    128  O          3.8460   35.9860   67.8870 O.2   295  VAL295     -0.2864
    129  CB         5.7560   38.5760   68.3980 C.3   295  VAL295      0.0276
    130  CG1        7.0970   39.3050   68.1760 C.3   295  VAL295      0.0022
    131  CG2        4.7200   39.0780   67.4750 C.3   295  VAL295      0.0022
    132  N         15.8670   45.2450   57.8620 N.3   400  MET400     -0.1231
    133  CA        15.0200   44.0500   57.8140 C.3   400  MET400      0.1687
    134  C         13.8230   44.2700   56.8960 C.2   400  MET400      0.2434
    135  O         12.9400   45.0910   57.2290 O.2   400  MET400     -0.2733
    136  CB        14.5610   43.6610   59.2190 C.3   400  MET400      0.0400
    137  CG        15.6880   43.5500   60.2460 C.3   400  MET400      0.0596
    138  SD        15.3520   42.9100   61.8820 S.3   400  MET400     -0.1393
    139  CE        14.2200   44.0540   62.4050 C.3   400  MET400      0.0692
    140  N         13.7560   43.5740   55.7610 N.am  401  PRO401     -0.2729
    141  CA        14.7260   42.6000   55.2400 C.3   401  PRO401      0.1401
    142  C         16.0170   43.2310   54.7680 C.2   401  PRO401      0.2269
    143  O         16.0820   44.4480   54.5580 O.2   401  PRO401     -0.2865
    144  CB        13.9770   41.9450   54.0460 C.3   401  PRO401      0.0296
    145  CG        13.1410   43.0710   53.5440 C.3   401  PRO401      0.0237
    146  CD        12.6950   43.8520   54.7700 C.3   401  PRO401      0.0939
@<TRIPOS>BOND
     1    73    74    1
     2    55    56    1
     3    75    74    1
     4    75    76    2
     5    74    77    1
     6    58    57    2
     7    56    57    1
     8    56    59    1
     9    69    68    2
    10    68    67    1
    11    44    43   ar
    12    44    42   ar
    13    57    66   am
    14    43    41   ar
    15    66    67    1
    16    66    72    1
    17    59    60    1
    18    42    40   ar
    19    67    70    1
    20    41    39   ar
    21    72    71    1
    22    60    61    1
    23    71    70    1
    24    40    39   ar
    25    39    38    1
    26    87    88   ar
    27    87    85   ar
    28    88    86   ar
    29    61    62    1
    30    34    35    1
    31    38    35    1
    32    85    83   ar
    33    62    63    2
    34    64    63    1
    35    35    36    1
    36    86    84   ar
    37   145   144    1
    38   145   146    1
    39    36    37    2
    40    63    65    1
    41   144   141    1
    42    83    84   ar
    43    83    82    1
    44   143   142    2
    45   142   141    1
    46   146   140    1
    47    82    79    1
    48   141   140    1
    49    18    17    2
    50   140   134   am
    51    21    20    1
    52    79    78    1
    53    79    80    1
    54    17    16    1
    55    17    23   am
    56    16    15    1
    57    16    19    1
    58    26    25    2
    59    45    46    1
    60   134   135    2
    61   134   133    1
    62    20    19    1
    63    20    22    1
    64    25    24    1
    65    80    81    2
    66    80    89   am
    67    23    24    1
    68   133   132    1
    69   133   136    1
    70    24    27    1
    71    89    90    1
    72    49    46    1
    73    46    47    1
    74    96    98   ar
    75    96    94   ar
    76    98    99   ar
    77    93    90    1
    78    93    94    1
    79    90    91    1
    80    50    47   am
    81    50    51    1
    82    94    95   ar
    83    47    48    2
    84   136   137    1
    85    27    28    1
    86    29    28   ar
    87    29    31   ar
    88    11    10    2
    89    52    51    1
    90    52    53    2
    91    99    97   ar
    92    51    54    1
    93    28    30   ar
    94    31    33   ar
    95   137   138    1
    96    91    92    2
    97    91   100   am
    98    95    97   ar
    99   106   100    1
   100   106   105    1
   101    10     9    1
   102   100   101    1
   103    30    32   ar
   104    33    32   ar
   105     9     8    1
   106     9    12    1
   107    13    12    1
   108   138   139    1
   109   105   104    1
   110   101   104    1
   111   101   102    1
   112    12    14    1
   113   102   107   am
   114   102   103    2
   115   123   122    1
   116   107   108    1
   117   110   109    2
   118     4     3    2
   119   109   108    1
   120   109   118   am
   121   108   111    1
   122   122   119    1
   123   122   124    1
   124   118   119    1
   125   119   120    1
   126   117   115   ar
   127   117   116   ar
   128   115   113   ar
   129     3     2    1
   130   116   114   ar
   131   113   112   ar
   132   114   112   ar
   133   112   111    1
   134     7     1    1
   135     7     6    1
   136     5     2    1
   137     5     6    1
   138     1     2    1
   139   120   125   am
   140   120   121    2
   141   125   126    1
   142   131   129    1
   143   128   127    2
   144   130   129    1
   145   126   129    1
   146   126   127    1
