@<TRIPOS>MOLECULE
tmp/6fyjA02.pdb
 116 107 0 0 0
SMALL
GASTEIGER

@<TRIPOS>ATOM
      1  N         13.7590   49.4930   72.2710 N.3    15  THR15      -0.1218
      2  CA        13.4260   49.3240   70.8560 C.3    15  THR15       0.1862
      3  C         14.5170   49.8980   69.9790 C.2    15  THR15       0.2287
      4  O         14.8520   49.3360   68.9240 O.2    15  THR15      -0.2866
      5  CB        12.0870   50.0030   70.5530 C.3    15  THR15       0.1770
      6  OG1       11.1010   49.5110   71.4200 O.3    15  THR15      -0.2211
      7  CG2       11.6660   49.6660   69.1240 C.3    15  THR15       0.0375
      8  N         17.1830   47.2800   69.2230 N.3    18  LEU18      -0.1231
      9  CA        16.6920   46.3680   68.1880 C.3    18  LEU18       0.1693
     10  C         16.7660   46.9990   66.8100 C.2    18  LEU18       0.2591
     11  O         17.2340   46.3620   65.8500 O.2    18  LEU18      -0.2718
     12  CB        15.2870   45.9260   68.5570 C.3    18  LEU18       0.0284
     13  CG        14.5620   44.9560   67.6280 C.3    18  LEU18       0.0019
     14  CD1       13.5430   44.1560   68.4590 C.3    18  LEU18       0.0001
     15  CD2       13.8730   45.6490   66.5740 C.3    18  LEU18       0.0001
     16  N         16.3860   48.2650   66.6910 N.am   19  MET19      -0.1979
     17  CA        16.4930   48.9500   65.4000 C.3    19  MET19       0.1605
     18  C         17.9310   49.0830   64.9450 C.2    19  MET19       0.2287
     19  O         18.2180   48.9950   63.7490 O.2    19  MET19      -0.2864
     20  CB        15.7880   50.3130   65.4420 C.3    19  MET19       0.0413
     21  CG        14.3020   50.2230   65.5990 C.3    19  MET19       0.0598
     22  SD        13.4240   49.3820   64.2400 S.3    19  MET19      -0.1393
     23  CE        13.4740   50.6100   62.9220 C.3    19  MET19       0.0692
     24  N         10.3640   46.6010   74.8560 N.3    42  LEU42      -0.1231
     25  CA        10.2530   46.8810   73.4320 C.3    42  LEU42       0.1693
     26  C          8.8510   47.4070   73.1920 C.2    42  LEU42       0.2591
     27  O          7.9140   46.9520   73.8430 O.2    42  LEU42      -0.2718
     28  CB        10.4520   45.6210   72.5710 C.3    42  LEU42       0.0284
     29  CG        11.8300   44.9900   72.7160 C.3    42  LEU42       0.0019
     30  CD1       11.8420   43.5560   72.0430 C.3    42  LEU42       0.0001
     31  CD2       12.9110   45.8000   72.1440 C.3    42  LEU42       0.0001
     32  N          8.7320   48.3770   72.2920 N.am   43  LEU43      -0.1980
     33  CA         7.4480   49.0170   71.9490 C.3    43  LEU43       0.1596
     34  C          6.6650   49.3970   73.2000 C.2    43  LEU43       0.2287
     35  O          5.4480   49.2430   73.3050 O.2    43  LEU43      -0.2864
     36  CB         6.6500   48.1640   70.9680 C.3    43  LEU43       0.0297
     37  CG         7.3510   47.9910   69.6040 C.3    43  LEU43       0.0022
     38  CD1        6.4460   47.2630   68.6150 C.3    43  LEU43       0.0001
     39  CD2        7.7980   49.2890   68.9550 C.3    43  LEU43       0.0001
     40  N          2.3890   43.8080   66.8010 N.3    72  PRO72      -0.2116
     41  CA         2.1080   45.2400   66.8370 C.3    72  PRO72       0.1372
     42  C          1.1980   45.6860   65.6950 C.2    72  PRO72       0.2244
     43  O          1.2700   45.1370   64.5830 O.2    72  PRO72      -0.2868
     44  CB         3.5190   45.8470   66.6560 C.3    72  PRO72       0.0268
     45  CG         4.4890   44.7320   66.9500 C.3    72  PRO72       0.0207
     46  CD         3.8090   43.4850   66.6490 C.3    72  PRO72       0.0892
     47  N          1.4130   48.1620   63.7980 N.3    74  ARG74      -0.1231
     48  CA         2.1900   48.6140   62.6390 C.3    74  ARG74       0.1694
     49  C          2.5740   47.4570   61.7210 C.2    74  ARG74       0.2591
     50  O          2.7660   47.6740   60.5110 O.2    74  ARG74      -0.2718
     51  CB         3.4080   49.4210   63.0850 C.3    74  ARG74       0.0321
     52  CG         4.4940   48.7000   63.7640 C.3    74  ARG74       0.0489
     53  CD         5.5310   49.6780   64.3860 C.3    74  ARG74       0.2205
     54  NE         6.2450   50.3840   63.3420 N.pl3  74  ARG74      -0.0865
     55  CZ         6.0160   51.6170   62.9190 C.cat  74  ARG74       0.5346
     56  NH1        5.1100   52.3910   63.4990 N.pl3  74  ARG74       0.1354
     57  NH2        6.7790   52.1180   61.9520 N.pl3  74  ARG74       0.1354
     58  N          2.7000   46.2380   62.2790 N.am   75  VAL75      -0.1980
     59  CA         2.9920   45.0350   61.4960 C.3    75  VAL75       0.1595
     60  C          1.7180   44.4840   60.8880 C.2    75  VAL75       0.2287
     61  O          1.7240   44.0780   59.7190 O.2    75  VAL75      -0.2864
     62  CB         3.7080   43.9790   62.3770 C.3    75  VAL75       0.0276
     63  CG1        3.8380   42.6600   61.6490 C.3    75  VAL75       0.0022
     64  CG2        5.0790   44.4720   62.7870 C.3    75  VAL75       0.0022
     65  N          7.5160   46.6830   56.7610 N.3   174  ALA174     -0.1231
     66  CA         7.0160   46.1660   58.0250 C.3   174  ALA174      0.1694
     67  C          7.9140   46.4880   59.2190 C.2   174  ALA174      0.2591
     68  O          7.3860   46.7540   60.3110 O.2   174  ALA174     -0.2718
     69  CB         6.7820   44.6670   57.8820 C.3   174  ALA174      0.0304
     70  N          9.2170   46.5290   59.0020 N.am  175  ALA175     -0.1980
     71  CA        10.1850   46.8930   60.0370 C.3   175  ALA175      0.1597
     72  C         10.7870   48.2750   59.7930 C.2   175  ALA175      0.2287
     73  O         11.8490   48.6080   60.3430 O.2   175  ALA175     -0.2864
     74  CB        11.2770   45.8530   60.1040 C.3   175  ALA175      0.0319
     75  N         12.4760   37.2190   63.6700 N.3   293  PHE293     -0.1241
     76  CA        11.8480   36.7040   64.8890 C.3   293  PHE293      0.1605
     77  C         10.3460   36.6860   64.6470 C.2   293  PHE293      0.2264
     78  O          9.8340   37.3680   63.7630 O.2   293  PHE293     -0.2867
     79  CB        12.2250   37.5200   66.1680 C.3   293  PHE293      0.0534
     80  CG        12.1670   39.0040   65.9850 C.ar  293  PHE293     -0.0203
     81  CD1       10.9620   39.6300   65.8320 C.ar  293  PHE293     -0.0042
     82  CD2       13.3150   39.7490   65.9440 C.ar  293  PHE293     -0.0042
     83  CE1       10.8960   40.9930   65.5930 C.ar  293  PHE293     -0.0003
     84  CE2       13.2620   41.1050   65.7120 C.ar  293  PHE293     -0.0003
     85  CZ        12.0680   41.7120   65.5620 C.ar  293  PHE293     -0.0000
     86  N          6.4980   36.5860   67.0190 N.3   295  VAL295     -0.1245
     87  CA         5.9690   37.0470   68.3110 C.3   295  VAL295      0.1561
     88  C          4.6870   36.3430   68.7140 C.2   295  VAL295      0.2260
     89  O          3.8460   35.9860   67.8870 O.2   295  VAL295     -0.2867
     90  CB         5.7560   38.5760   68.3980 C.3   295  VAL295      0.0252
     91  CG1        7.0970   39.3050   68.1760 C.3   295  VAL295      0.0019
     92  CG2        4.7200   39.0780   67.4750 C.3   295  VAL295      0.0019
     93  N          4.5890   39.8910   75.9360 N.3   314  LEU314     -0.1245
     94  CA         5.0560   39.7270   74.5580 C.3   314  LEU314      0.1561
     95  C          6.3730   38.9660   74.5610 C.2   314  LEU314      0.2260
     96  O          7.2750   39.2650   75.3480 O.2   314  LEU314     -0.2867
     97  CB         5.2200   41.0960   73.8800 C.3   314  LEU314      0.0270
     98  CG         5.6280   41.0460   72.3950 C.3   314  LEU314      0.0019
     99  CD1        4.5260   40.5360   71.5600 C.3   314  LEU314      0.0001
    100  CD2        6.1340   42.3920   71.9030 C.3   314  LEU314      0.0001
    101  N          9.3420   37.1030   71.9420 N.3   316  LEU316     -0.1245
    102  CA        10.0080   36.9780   70.6610 C.3   316  LEU316      0.1561
    103  C         10.8250   35.7070   70.6030 C.2   316  LEU316      0.2260
    104  O         11.6620   35.4690   71.4760 O.2   316  LEU316     -0.2867
    105  CB        10.9350   38.1670   70.4200 C.3   316  LEU316      0.0270
    106  CG        10.3760   39.5250   70.0740 C.3   316  LEU316      0.0019
    107  CD1        9.5220   40.1300   71.1480 C.3   316  LEU316      0.0001
    108  CD2       11.4730   40.5240   69.6700 C.3   316  LEU316      0.0001
    109  N         15.8670   45.2450   57.8620 N.3   400  MET400     -0.1245
    110  CA        15.0200   44.0500   57.8140 C.3   400  MET400      0.1570
    111  C         13.8230   44.2700   56.8960 C.2   400  MET400      0.2261
    112  O         12.9400   45.0910   57.2290 O.2   400  MET400     -0.2867
    113  CB        14.5610   43.6610   59.2190 C.3   400  MET400      0.0387
    114  CG        15.6880   43.5500   60.2460 C.3   400  MET400      0.0595
    115  SD        15.3520   42.9100   61.8820 S.3   400  MET400     -0.1393
    116  CE        14.2200   44.0540   62.4050 C.3   400  MET400      0.0692
@<TRIPOS>BOND
     1    65    66    1
     2   111   112    2
     3   111   110    1
     4   110   109    1
     5   110   113    1
     6    69    66    1
     7    66    67    1
     8    70    67   am
     9    70    71    1
    10   113   114    1
    11    67    68    2
    12    61    60    2
    13    72    71    1
    14    72    73    2
    15    71    74    1
    16   114   115    1
    17    50    49    2
    18    60    59    1
    19    59    58    1
    20    59    62    1
    21    63    62    1
    22    49    58   am
    23    49    48    1
    24   115   116    1
    25    57    55    1
    26    62    64    1
    27    48    51    1
    28    48    47    1
    29    55    54    2
    30    55    56    1
    31    23    22    1
    32    51    52    1
    33    54    53    1
    34    75    76    1
    35    19    18    2
    36    78    77    2
    37    52    53    1
    38    22    21    1
    39    43    42    2
    40    77    76    1
    41    76    79    1
    42    18    17    1
    43    17    20    1
    44    17    16    1
    45    20    21    1
    46    85    83   ar
    47    85    84   ar
    48    83    81   ar
    49    42    41    1
    50    84    82   ar
    51    81    80   ar
    52    11    10    2
    53    82    80   ar
    54    80    79    1
    55    15    13    1
    56    46    40    1
    57    46    45    1
    58    44    41    1
    59    44    45    1
    60    16    10   am
    61    40    41    1
    62    10     9    1
    63    86    87    1
    64    92    90    1
    65    13    14    1
    66    13    12    1
    67    89    88    2
    68    91    90    1
    69     9    12    1
    70     9     8    1
    71    87    90    1
    72    87    88    1
    73    38    37    1
    74     4     3    2
    75    39    37    1
    76     7     5    1
    77    37    36    1
    78   108   106    1
    79     3     2    1
    80   106   105    1
    81   106   107    1
    82   105   102    1
    83     5     2    1
    84     5     6    1
    85   103   102    1
    86   103   104    2
    87   102   101    1
    88     2     1    1
    89    36    33    1
    90    99    98    1
    91   100    98    1
    92    33    32    1
    93    33    34    1
    94    30    29    1
    95    31    29    1
    96    32    26   am
    97    98    97    1
    98    28    29    1
    99    28    25    1
   100    26    25    1
   101    26    27    2
   102    34    35    2
   103    25    24    1
   104    97    94    1
   105    94    95    1
   106    94    93    1
   107    95    96    2
