@<TRIPOS>MOLECULE
tmp/6fykC00.pdb
 170 159 0 0 0
SMALL
GASTEIGER

@<TRIPOS>ATOM
      1  N        -66.7790   23.8380    9.6660 N.3    33  LEU33      -0.1231
      2  CA       -67.0300   24.1250   11.0760 C.3    33  LEU33       0.1693
      3  C        -65.8060   24.6860   11.7950 C.2    33  LEU33       0.2593
      4  O        -65.9370   25.3360   12.8320 O.2    33  LEU33      -0.2718
      5  CB       -67.5390   22.8750   11.7990 C.3    33  LEU33       0.0284
      6  CG       -68.8910   22.3160   11.3500 C.3    33  LEU33       0.0019
      7  CD1      -69.0330   20.8740   11.7990 C.3    33  LEU33       0.0001
      8  CD2      -70.0430   23.1760   11.8690 C.3    33  LEU33       0.0001
      9  N        -64.6200   24.4350   11.2480 N.am   34  GLY34      -0.1942
     10  CA       -63.3920   24.9240   11.8560 C.3    34  GLY34       0.2014
     11  C        -62.1280   24.4270   11.1910 C.2    34  GLY34       0.2639
     12  O        -62.1560   23.4920   10.3910 O.2    34  GLY34      -0.2714
     13  N        -61.0190   25.0750   11.5300 N.am   35  GLU35      -0.1963
     14  CA       -59.7000   24.6860   11.0640 C.3    35  GLU35       0.1733
     15  C        -58.7270   24.6500   12.2340 C.2    35  GLU35       0.2616
     16  O        -58.6130   25.6170   12.9870 O.2    35  GLU35      -0.2715
     17  CB       -59.1950   25.6620    9.9990 C.3    35  GLU35       0.0429
     18  CG       -57.7410   25.4230    9.5920 C.3    35  GLU35       0.1163
     19  CD       -57.2500   26.3600    8.5090 C.2    35  GLU35       0.3649
     20  OE1      -58.0620   27.1180    7.9350 O.co2  35  GLU35      -0.2457
     21  OE2      -56.0370   26.3330    8.2290 O.co2  35  GLU35      -0.2457
     22  N        -58.0350   23.5260   12.3820 N.am   36  GLY36      -0.1955
     23  CA       -56.9550   23.3960   13.3530 C.3    36  GLY36       0.1869
     24  C        -55.6530   23.1930   12.6070 C.2    36  GLY36       0.2309
     25  O        -55.6010   23.3580   11.3860 O.2    36  GLY36      -0.2863
     26  N        -54.1930   20.3490   12.2600 N.3    38  PHE38      -0.1241
     27  CA       -54.3170   19.0360   11.6130 C.3    38  PHE38       0.1605
     28  C        -54.9790   19.0690   10.2390 C.2    38  PHE38       0.2264
     29  O        -54.7360   18.1950    9.4040 O.2    38  PHE38      -0.2867
     30  CB       -55.1360   18.1070   12.5080 C.3    38  PHE38       0.0534
     31  CG       -56.4900   18.6640   12.8790 C.ar   38  PHE38      -0.0203
     32  CD1      -56.6840   19.2900   14.1120 C.ar   38  PHE38      -0.0042
     33  CD2      -57.5680   18.5690   11.9970 C.ar   38  PHE38      -0.0042
     34  CE1      -57.9280   19.8120   14.4610 C.ar   38  PHE38      -0.0003
     35  CE2      -58.8140   19.0880   12.3330 C.ar   38  PHE38      -0.0003
     36  CZ       -58.9960   19.7110   13.5700 C.ar   38  PHE38      -0.0000
     37  N        -62.5080   20.5830   10.0820 N.3    41  VAL41      -0.1245
     38  CA       -63.7090   19.8650   10.4720 C.3    41  VAL41       0.1561
     39  C        -64.8470   20.4320    9.6360 C.2    41  VAL41       0.2260
     40  O        -65.0440   21.6500    9.5850 O.2    41  VAL41      -0.2867
     41  CB       -64.0280   20.0180   11.9780 C.3    41  VAL41       0.0252
     42  CG1      -65.2260   19.1540   12.3570 C.3    41  VAL41       0.0019
     43  CG2      -62.8190   19.6460   12.8350 C.3    41  VAL41       0.0019
     44  N        -70.0230   15.1050   11.6040 N.3    55  ALA55      -0.1245
     45  CA       -68.8310   15.9330   11.5110 C.3    55  ALA55       0.1562
     46  C        -67.7160   15.1060   10.8930 C.2    55  ALA55       0.2260
     47  O        -67.4840   13.9550   11.2880 O.2    55  ALA55      -0.2867
     48  CB       -68.4280   16.4470   12.8780 C.3    55  ALA55       0.0290
     49  N        -63.6500   15.0870   10.0150 N.3    57  LYS57      -0.1245
     50  CA       -62.3200   15.6450   10.1890 C.3    57  LYS57       0.1561
     51  C        -61.4800   15.2690    8.9820 C.2    57  LYS57       0.2260
     52  O        -61.2490   14.0860    8.7240 O.2    57  LYS57      -0.2867
     53  CB       -61.6870   15.1210   11.4810 C.3    57  LYS57       0.0271
     54  CG       -60.3640   15.7640   11.8750 C.3    57  LYS57       0.0035
     55  CD       -59.9100   15.2150   13.2200 C.3    57  LYS57       0.0206
     56  CE       -58.5920   15.8140   13.6780 C.3    57  LYS57       0.1093
     57  NZ       -58.2270   15.3400   15.0400 N.3    57  LYS57      -0.1314
     58  N        -54.6910    8.5780   16.3740 N.3    72  GLU72      -0.1245
     59  CA       -56.0230    8.9400   16.8480 C.3    72  GLU72       0.1567
     60  C        -57.0360    7.8380   16.5500 C.2    72  GLU72       0.2260
     61  O        -57.8150    7.4520   17.4250 O.2    72  GLU72      -0.2867
     62  CB       -56.4950   10.2690   16.2490 C.3    72  GLU72       0.0388
     63  CG       -57.9050   10.6360   16.7030 C.3    72  GLU72       0.1160
     64  CD       -58.3150   12.0580   16.3850 C.2    72  GLU72       0.3649
     65  OE1      -57.7560   12.6600   15.4400 O.co2  72  GLU72      -0.2457
     66  OE2      -59.2160   12.5680   17.0870 O.co2  72  GLU72      -0.2457
     67  N        -66.0030   11.3900   22.3270 N.3    91  VAL91      -0.1245
     68  CA       -66.7350   11.5120   21.0640 C.3    91  VAL91       0.1561
     69  C        -66.7620   10.1800   20.3040 C.2    91  VAL91       0.2260
     70  O        -65.7870    9.4270   20.3180 O.2    91  VAL91      -0.2867
     71  CB       -66.1820   12.6690   20.1820 C.3    91  VAL91       0.0252
     72  CG1      -64.7740   12.3540   19.6570 C.3    91  VAL91       0.0019
     73  CG2      -67.1440   13.0000   19.0420 C.3    91  VAL91       0.0019
     74  N        -67.4710   11.5490   12.7530 N.3   107  PHE107     -0.1227
     75  CA       -67.9180   11.5890   14.1490 C.3   107  PHE107      0.1736
     76  C        -69.3930   11.9730   14.2340 C.2   107  PHE107      0.2595
     77  O        -69.9650   12.4880   13.2710 O.2   107  PHE107     -0.2718
     78  CB       -67.1330   12.6420   14.9510 C.3   107  PHE107      0.0547
     79  CG       -65.6490   12.4220   14.9940 C.ar  107  PHE107     -0.0202
     80  CD1      -65.0770   11.6220   15.9800 C.ar  107  PHE107     -0.0042
     81  CD2      -64.8160   13.0550   14.0760 C.ar  107  PHE107     -0.0042
     82  CE1      -63.6900   11.4290   16.0330 C.ar  107  PHE107     -0.0003
     83  CE2      -63.4310   12.8730   14.1160 C.ar  107  PHE107     -0.0003
     84  CZ       -62.8650   12.0610   15.0970 C.ar  107  PHE107     -0.0000
     85  N        -69.9990   11.7530   15.3990 N.am  108  GLU108     -0.1965
     86  CA       -71.2740   12.3840   15.7120 C.3   108  GLU108      0.1733
     87  C        -71.0730   13.8940   15.6820 C.2   108  GLU108      0.2616
     88  O        -70.0330   14.3850   16.1150 O.2   108  GLU108     -0.2715
     89  CB       -71.8100   11.9260   17.0770 C.3   108  GLU108      0.0429
     90  CG       -70.8810   12.1800   18.2710 C.3   108  GLU108      0.1163
     91  CD       -71.3620   11.5270   19.5660 C.2   108  GLU108      0.3649
     92  OE1      -72.5460   11.1230   19.6430 O.co2 108  GLU108     -0.2457
     93  OE2      -70.5500   11.4180   20.5120 O.co2 108  GLU108     -0.2457
     94  N        -72.0490   14.6170   15.1390 N.am  109  LEU109     -0.1963
     95  CA       -71.9820   16.0710   15.0730 C.3   109  LEU109      0.1728
     96  C        -72.3040   16.6600   16.4430 C.2   109  LEU109      0.2616
     97  O        -73.3010   16.2920   17.0680 O.2   109  LEU109     -0.2715
     98  CB       -72.9350   16.6250   14.0010 C.3   109  LEU109      0.0311
     99  CG       -72.9470   18.1460   13.7760 C.3   109  LEU109      0.0022
    100  CD1      -71.6280   18.6490   13.1890 C.3   109  LEU109      0.0001
    101  CD2      -74.1120   18.5620   12.8900 C.3   109  LEU109      0.0001
    102  N        -71.4470   17.5640   16.9050 N.am  110  LEU110     -0.1963
    103  CA       -71.6370   18.2190   18.1950 C.3   110  LEU110      0.1728
    104  C        -71.6910   19.7290   18.0050 C.2   110  LEU110      0.2616
    105  O        -71.4700   20.2240   16.9000 O.2   110  LEU110     -0.2715
    106  CB       -70.5170   17.8320   19.1670 C.3   110  LEU110      0.0311
    107  CG       -70.1710   16.3500   19.3630 C.3   110  LEU110      0.0022
    108  CD1      -68.9100   16.2190   20.2140 C.3   110  LEU110      0.0001
    109  CD2      -71.3310   15.5670   19.9770 C.3   110  LEU110      0.0001
    110  N        -71.9860   20.4530   19.0830 N.am  111  GLY111     -0.1955
    111  CA       -72.1380   21.9060   19.0230 C.3   111  GLY111      0.1869
    112  C        -70.8490   22.6760   19.2390 C.2   111  GLY111      0.2309
    113  O        -69.7500   22.1560   19.0190 O.2   111  GLY111     -0.2863
    114  N        -65.5350   28.2610   22.7930 N.3   116  ASP116     -0.1239
    115  CA       -66.1870   29.1100   21.7890 C.3   116  ASP116      0.1674
    116  C        -67.5030   29.6870   22.2840 C.2   116  ASP116      0.2266
    117  O        -67.8210   30.8390   21.9900 O.2   116  ASP116     -0.2867
    118  CB       -66.3760   28.3660   20.4640 C.3   116  ASP116      0.1410
    119  CG       -65.0660   28.1430   19.7340 C.2   116  ASP116      0.3668
    120  OD1      -64.4930   29.1180   19.2030 O.co2 116  ASP116     -0.2456
    121  OD2      -64.6010   26.9870   19.6980 O.co2 116  ASP116     -0.2456
    122  N        -58.1940   21.0720   26.7880 N.3   156  LYS156     -0.1245
    123  CA       -58.4560   22.5020   26.8430 C.3   156  LYS156      0.1561
    124  C        -59.9110   22.7080   26.4330 C.2   156  LYS156      0.2260
    125  O        -60.4960   21.8230   25.8110 O.2   156  LYS156     -0.2867
    126  CB       -57.5030   23.2790   25.9280 C.3   156  LYS156      0.0271
    127  CG       -57.4210   22.7930   24.4920 C.3   156  LYS156      0.0035
    128  CD       -56.2620   23.4940   23.8080 C.3   156  LYS156      0.0206
    129  CE       -56.1070   23.0550   22.3780 C.3   156  LYS156      0.1093
    130  NZ       -55.1670   23.9580   21.6580 N.3   156  LYS156     -0.1314
    131  N        -61.4430   24.1530   24.1390 N.3   158  GLU158     -0.1231
    132  CA       -61.6890   23.9360   22.6990 C.3   158  GLU158      0.1699
    133  C        -61.9560   22.4710   22.3340 C.2   158  GLU158      0.2592
    134  O        -62.5890   22.1910   21.3150 O.2   158  GLU158     -0.2718
    135  CB       -60.5130   24.4270   21.8530 C.3   158  GLU158      0.0402
    136  CG       -60.3240   25.9310   21.8130 C.3   158  GLU158      0.1161
    137  CD       -59.2550   26.4240   22.7780 C.2   158  GLU158      0.3649
    138  OE1      -59.0960   25.8300   23.8750 O.co2 158  GLU158     -0.2457
    139  OE2      -58.5750   27.4150   22.4270 O.co2 158  GLU158     -0.2457
    140  N        -61.4430   21.5500   23.1460 N.am  159  ASN159     -0.1974
    141  CA       -61.6130   20.1140   22.9120 C.3   159  ASN159      0.1688
    142  C        -62.6940   19.4700   23.7880 C.2   159  ASN159      0.2292
    143  O        -62.8060   18.2420   23.8640 O.2   159  ASN159     -0.2864
    144  CB       -60.2760   19.3790   23.0600 C.3   159  ASN159      0.1181
    145  CG       -59.2800   19.7570   21.9770 C.2   159  ASN159      0.2629
    146  OD1      -59.6620   20.2400   20.9090 O.2   159  ASN159     -0.2716
    147  ND2      -58.0030   19.5360   22.2450 N.am  159  ASN159     -0.0877
    148  N        -66.6820   19.7460   23.9030 N.3   161  LEU161     -0.1245
    149  CA       -67.7530   20.2160   23.0350 C.3   161  LEU161      0.1561
    150  C        -69.1140   19.9410   23.6590 C.2   161  LEU161      0.2260
    151  O        -69.3580   18.8510   24.1810 O.2   161  LEU161     -0.2867
    152  CB       -67.6550   19.5260   21.6680 C.3   161  LEU161      0.0270
    153  CG       -66.7750   20.1340   20.5680 C.3   161  LEU161      0.0019
    154  CD1      -65.4210   20.6390   21.0700 C.3   161  LEU161      0.0001
    155  CD2      -66.5710   19.1400   19.4450 C.3   161  LEU161      0.0001
    156  N        -63.0270   15.7080   22.7050 N.3   190  VAL190     -0.1231
    157  CA       -62.5500   15.4430   21.3450 C.3   190  VAL190      0.1692
    158  C        -61.0350   15.5830   21.2140 C.2   190  VAL190      0.2592
    159  O        -60.3510   15.9810   22.1640 O.2   190  VAL190     -0.2718
    160  CB       -63.2380   16.3450   20.2810 C.3   190  VAL190      0.0266
    161  CG1      -64.7450   16.1340   20.2810 C.3   190  VAL190      0.0020
    162  CG2      -62.8890   17.8090   20.4960 C.3   190  VAL190      0.0020
    163  N        -60.5450   15.2570   20.0170 N.am  191  ASP191     -0.1974
    164  CA       -59.1400   15.3600   19.6170 C.3   191  ASP191      0.1709
    165  C        -58.2230   14.3980   20.3650 C.2   191  ASP191      0.2293
    166  O        -57.7200   14.7000   21.4500 O.2   191  ASP191     -0.2864
    167  CB       -58.6150   16.7980   19.6970 C.3   191  ASP191      0.1436
    168  CG       -57.3180   16.9920   18.9240 C.2   191  ASP191      0.3671
    169  OD1      -56.7840   16.0060   18.3570 O.co2 191  ASP191     -0.2456
    170  OD2      -56.8310   18.1430   18.8750 O.co2 191  ASP191     -0.2456
@<TRIPOS>BOND
     1    20    19   ar
     2    21    19   ar
     3    19    18    1
     4    52    51    2
     5    51    50    1
     6    29    28    2
     7    40    39    2
     8    18    17    1
     9    39    38    1
    10     1     2    1
    11    17    14    1
    12    49    50    1
    13    37    38    1
    14    50    53    1
    15    28    27    1
    16    12    11    2
    17    38    41    1
    18    46    47    2
    19    46    45    1
    20    14    13    1
    21    14    15    1
    22     2     3    1
    23     2     5    1
    24    11    13   am
    25    11    10    1
    26     9     3   am
    27     9    10    1
    28     6     5    1
    29     6     7    1
    30     6     8    1
    31    25    24    2
    32    53    54    1
    33    45    44    1
    34    45    48    1
    35    27    26    1
    36    27    30    1
    37     3     4    2
    38    54    55    1
    39    41    42    1
    40    41    43    1
    41    33    35   ar
    42    33    31   ar
    43    15    22   am
    44    15    16    2
    45    35    36   ar
    46    22    23    1
    47    30    31    1
    48    24    23    1
    49    74    75    1
    50    31    32   ar
    51   101    99    1
    52   100    99    1
    53    55    56    1
    54    77    76    2
    55    36    34   ar
    56    56    57    1
    57    99    98    1
    58    98    95    1
    59    81    83   ar
    60    81    79   ar
    61    32    34   ar
    62    83    84   ar
    63    75    76    1
    64    75    78    1
    65    76    85   am
    66    78    79    1
    67    79    80   ar
    68    95    94    1
    69    95    96    1
    70    84    82   ar
    71    94    87   am
    72    85    86    1
    73    65    64   ar
    74    87    86    1
    75    87    88    2
    76    86    89    1
    77    80    82   ar
    78    62    63    1
    79    62    59    1
    80    58    59    1
    81    64    63    1
    82    64    66   ar
    83    96   102   am
    84    96    97    2
    85    60    59    1
    86    60    61    2
    87   105   104    2
    88   102   103    1
    89    89    90    1
    90   104   103    1
    91   104   110   am
    92   103   106    1
    93    90    91    1
    94   169   168   ar
    95   170   168   ar
    96   168   167    1
    97   113   112    2
    98   111   110    1
    99   111   112    1
   100    73    71    1
   101   106   107    1
   102   120   119   ar
   103   107   109    1
   104   107   108    1
   105   155   153    1
   106    91    92   ar
   107    91    93   ar
   108   164   167    1
   109   164   163    1
   110   164   165    1
   111    72    71    1
   112   121   119   ar
   113   119   118    1
   114   163   158   am
   115    71    68    1
   116   161   160    1
   117   160   162    1
   118   160   157    1
   119    69    70    2
   120    69    68    1
   121   165   166    2
   122   118   115    1
   123   153   154    1
   124   153   152    1
   125   146   145    2
   126    68    67    1
   127   158   157    1
   128   158   159    2
   129   134   133    2
   130   157   156    1
   131   130   129    1
   132   152   149    1
   133   115   116    1
   134   115   114    1
   135   136   135    1
   136   136   137    1
   137   135   132    1
   138   145   147   am
   139   145   144    1
   140   117   116    2
   141   133   132    1
   142   133   140   am
   143   129   128    1
   144   139   137   ar
   145   132   131    1
   146   137   138   ar
   147   141   144    1
   148   141   140    1
   149   141   142    1
   150   149   150    1
   151   149   148    1
   152   150   151    2
   153   142   143    2
   154   128   127    1
   155   127   126    1
   156   125   124    2
   157   126   123    1
   158   124   123    1
   159   122   123    1
