@<TRIPOS>MOLECULE
tmp/6fylA00.pdb
 177 168 0 0 0
SMALL
GASTEIGER

@<TRIPOS>ATOM
      1  N         18.3420   89.6240   40.5590 N.3    26  LEU26      -0.1231
      2  CA        17.8920   89.1060   39.2760 C.3    26  LEU26       0.1693
      3  C         18.0320   90.1540   38.1780 C.2    26  LEU26       0.2593
      4  O         18.3870   89.8390   37.0360 O.2    26  LEU26      -0.2718
      5  CB        16.4400   88.6410   39.3890 C.3    26  LEU26       0.0284
      6  CG        16.1950   87.3870   40.2370 C.3    26  LEU26       0.0019
      7  CD1       14.7120   87.2580   40.5720 C.3    26  LEU26       0.0001
      8  CD2       16.7030   86.1310   39.5140 C.3    26  LEU26       0.0001
      9  N         17.7690   91.4050   38.5340 N.am   27  GLY27      -0.1942
     10  CA        17.8230   92.4810   37.5680 C.3    27  GLY27       0.2014
     11  C         17.6310   93.8470   38.1790 C.2    27  GLY27       0.2639
     12  O         17.2640   93.9810   39.3440 O.2    27  GLY27      -0.2714
     13  N         17.8630   94.8580   37.3510 N.am   28  GLU28      -0.1963
     14  CA        17.8980   96.2420   37.7710 C.3    28  GLU28       0.1733
     15  C         17.3190   97.0790   36.6350 C.2    28  GLU28       0.2616
     16  O         17.5070   96.7470   35.4640 O.2    28  GLU28      -0.2715
     17  CB        19.3620   96.6070   38.0090 C.3    28  GLU28       0.0429
     18  CG        19.6580   97.9590   38.5760 C.3    28  GLU28       0.1163
     19  CD        21.1560   98.1670   38.7000 C.2    28  GLU28       0.3649
     20  OE1       21.8520   98.1860   37.6580 O.co2  28  GLU28      -0.2457
     21  OE2       21.6460   98.2910   39.8410 O.co2  28  GLU28      -0.2457
     22  N         16.6130   98.1520   36.9820 N.am   29  GLY29      -0.1955
     23  CA        16.0310   99.0710   35.9970 C.3    29  GLY29       0.1869
     24  C         15.8670  100.4620   36.5880 C.2    29  GLY29       0.2309
     25  O         16.2980  100.7200   37.7080 O.2    29  GLY29      -0.2863
     26  N         13.2590  101.9110   37.6770 N.3    31  PHE31      -0.1241
     27  CA        12.1860  101.9110   38.6790 C.3    31  PHE31       0.1605
     28  C         12.6050  101.2680   40.0090 C.2    31  PHE31       0.2264
     29  O         12.0050  101.5110   41.0570 O.2    31  PHE31      -0.2867
     30  CB        11.0310  101.0900   38.1190 C.3    31  PHE31       0.0534
     31  CG        11.3960   99.6500   37.8830 C.ar   31  PHE31      -0.0203
     32  CD1       12.2280   99.2960   36.8340 C.ar   31  PHE31      -0.0042
     33  CD2       10.9490   98.6600   38.7370 C.ar   31  PHE31      -0.0042
     34  CE1       12.5820   97.9860   36.6330 C.ar   31  PHE31      -0.0003
     35  CE2       11.3060   97.3460   38.5370 C.ar   31  PHE31      -0.0003
     36  CZ        12.1140   97.0100   37.4810 C.ar   31  PHE31      -0.0000
     37  N         14.8750   93.8500   40.9440 N.3    34  VAL34      -0.1245
     38  CA        14.1910   92.6110   41.3010 C.3    34  VAL34       0.1561
     39  C         15.2370   91.7080   41.9250 C.2    34  VAL34       0.2260
     40  O         16.3150   91.5350   41.3630 O.2    34  VAL34      -0.2867
     41  CB        13.4950   91.9710   40.0790 C.3    34  VAL34       0.0252
     42  CG1       12.8750   90.6210   40.4450 C.3    34  VAL34       0.0019
     43  CG2       12.4510   92.9380   39.5110 C.3    34  VAL34       0.0019
     44  N         10.5900   86.2380   43.3700 N.3    48  ALA48      -0.1245
     45  CA        11.2320   87.4130   42.7800 C.3    48  ALA48       0.1562
     46  C         10.5990   88.6540   43.4010 C.2    48  ALA48       0.2260
     47  O          9.4060   88.9410   43.1820 O.2    48  ALA48      -0.2867
     48  CB        11.0620   87.4190   41.2620 C.3    48  ALA48       0.0290
     49  N         10.2960   92.4950   43.7080 N.3    50  LYS50      -0.1245
     50  CA        10.5380   93.7650   43.0430 C.3    50  LYS50       0.1561
     51  C         10.6130   94.8550   44.1110 C.2    50  LYS50       0.2260
     52  O          9.6420   95.0840   44.8090 O.2    50  LYS50      -0.2867
     53  CB         9.3930   94.0530   42.0790 C.3    50  LYS50       0.0271
     54  CG         9.5990   95.2330   41.1440 C.3    50  LYS50       0.0035
     55  CD         8.2520   95.6320   40.5440 C.3    50  LYS50       0.0206
     56  CE         8.3250   95.7410   39.0400 C.3    50  LYS50       0.1093
     57  NZ         7.0080   96.1600   38.4980 N.3    50  LYS50      -0.1314
     58  N         -0.1260   99.5780   39.7710 N.3    65  GLU65      -0.1245
     59  CA         0.3210   98.2690   39.3100 C.3    65  GLU65       0.1567
     60  C         -0.2570   97.1650   40.2020 C.2    65  GLU65       0.2260
     61  O         -0.7870   96.1710   39.7100 O.2    65  GLU65      -0.2867
     62  CB         1.8480   98.2110   39.2930 C.3    65  GLU65       0.0388
     63  CG         2.4380   96.8830   38.8470 C.3    65  GLU65       0.1160
     64  CD         3.9540   96.9150   38.8440 C.2    65  GLU65       0.3649
     65  OE1        4.5130   98.0250   38.8700 O.co2  65  GLU65      -0.2457
     66  OE2        4.5890   95.8460   38.8160 O.co2  65  GLU65      -0.2457
     67  N         -2.5440   93.8450   39.3240 N.3    69  LEU69      -0.1245
     68  CA        -2.0980   92.5380   39.7990 C.3    69  LEU69       0.1561
     69  C         -3.1180   91.8440   40.7060 C.2    69  LEU69       0.2260
     70  O         -3.3410   90.6320   40.5730 O.2    69  LEU69      -0.2867
     71  CB        -0.7380   92.6600   40.4970 C.3    69  LEU69       0.0270
     72  CG         0.4310   93.0410   39.5840 C.3    69  LEU69       0.0019
     73  CD1        1.6430   93.4720   40.3990 C.3    69  LEU69       0.0001
     74  CD2        0.7850   91.9000   38.6130 C.3    69  LEU69       0.0001
     75  N          1.7990   87.1160   35.0520 N.3    84  VAL84      -0.1245
     76  CA         2.6160   86.8830   36.2370 C.3    84  VAL84       0.1561
     77  C          1.7770   86.9150   37.5100 C.2    84  VAL84       0.2260
     78  O          0.7740   87.6370   37.5900 O.2    84  VAL84      -0.2867
     79  CB         3.8320   87.8560   36.3140 C.3    84  VAL84       0.0252
     80  CG1        3.3830   89.3030   36.6470 C.3    84  VAL84       0.0019
     81  CG2        4.8590   87.3350   37.3050 C.3    84  VAL84       0.0019
     82  N          6.7420   88.3060   43.5170 N.3   100  PHE100     -0.1227
     83  CA         6.2620   87.5670   42.3510 C.3   100  PHE100      0.1736
     84  C          6.7520   86.1190   42.3660 C.2   100  PHE100      0.2595
     85  O          7.7880   85.8050   42.9690 O.2   100  PHE100     -0.2718
     86  CB         6.8000   88.1950   41.0550 C.3   100  PHE100      0.0547
     87  CG         6.2710   89.5770   40.7490 C.ar  100  PHE100     -0.0202
     88  CD1        5.0040   89.7470   40.1850 C.ar  100  PHE100     -0.0042
     89  CD2        7.0630   90.7010   40.9680 C.ar  100  PHE100     -0.0042
     90  CE1        4.5250   91.0220   39.8750 C.ar  100  PHE100     -0.0003
     91  CE2        6.5920   91.9860   40.6550 C.ar  100  PHE100     -0.0003
     92  CZ         5.3220   92.1430   40.1080 C.ar  100  PHE100     -0.0000
     93  N          6.0420   85.2500   41.6470 N.am  101  GLU101     -0.1965
     94  CA         6.5870   83.9380   41.2880 C.3   101  GLU101      0.1733
     95  C          7.9680   84.0860   40.6200 C.2   101  GLU101      0.2616
     96  O          8.2130   85.0570   39.9040 O.2   101  GLU101     -0.2715
     97  CB         5.6150   83.1720   40.3760 C.3   101  GLU101      0.0429
     98  CG         5.4350   83.7510   38.9570 C.3   101  GLU101      0.1163
     99  CD         4.2580   83.1350   38.2110 C.2   101  GLU101      0.3649
    100  OE1        3.9370   81.9610   38.4800 O.co2 101  GLU101     -0.2457
    101  OE2        3.6700   83.8170   37.3340 O.co2 101  GLU101     -0.2457
    102  N          8.8580   83.1290   40.8640 N.am  102  LEU102     -0.1963
    103  CA        10.1950   83.1530   40.2800 C.3   102  LEU102      0.1728
    104  C         10.1980   82.5100   38.8870 C.2   102  LEU102      0.2616
    105  O          9.8650   81.3310   38.7260 O.2   102  LEU102     -0.2715
    106  CB        11.2260   82.4750   41.1940 C.3   102  LEU102      0.0311
    107  CG        12.7010   82.4760   40.7400 C.3   102  LEU102      0.0022
    108  CD1       13.3000   83.8810   40.6840 C.3   102  LEU102      0.0001
    109  CD2       13.5500   81.6000   41.6460 C.3   102  LEU102      0.0001
    110  N         10.5890   83.3040   37.8970 N.am  103  LEU103     -0.1963
    111  CA        10.6530   82.8750   36.5040 C.3   103  LEU103      0.1728
    112  C         12.1120   82.9170   36.0230 C.2   103  LEU103      0.2617
    113  O         13.0330   83.1240   36.8270 O.2   103  LEU103     -0.2715
    114  CB         9.7710   83.7940   35.6580 C.3   103  LEU103      0.0311
    115  CG         8.3060   83.8990   36.1200 C.3   103  LEU103      0.0022
    116  CD1        7.5880   85.1160   35.5310 C.3   103  LEU103      0.0001
    117  CD2        7.5420   82.6060   35.8340 C.3   103  LEU103      0.0001
    118  N         12.3240   82.7060   34.7270 N.am  104  GLY104     -0.1940
    119  CA        13.6720   82.7420   34.1390 C.3   104  GLY104      0.2014
    120  C         13.8960   84.0040   33.3250 C.2   104  GLY104      0.2639
    121  O         13.2710   85.0380   33.5750 O.2   104  GLY104     -0.2714
    122  N         14.7950   83.9240   32.3490 N.am  105  LEU105     -0.1963
    123  CA        15.1170   85.0720   31.5100 C.3   105  LEU105      0.1728
    124  C         13.9490   85.5020   30.6140 C.2   105  LEU105      0.2616
    125  O         13.0950   84.6790   30.2250 O.2   105  LEU105     -0.2715
    126  CB        16.3390   84.7880   30.6350 C.3   105  LEU105      0.0311
    127  CG        17.7230   84.5870   31.2660 C.3   105  LEU105      0.0022
    128  CD1       18.7140   84.3050   30.1530 C.3   105  LEU105      0.0001
    129  CD2       18.1550   85.8090   32.0650 C.3   105  LEU105      0.0001
    130  N         13.9340   86.7940   30.2850 N.am  106  SER106     -0.1950
    131  CA        13.0000   87.3330   29.3140 C.3   106  SER106      0.1924
    132  C         13.3070   86.8060   27.9270 C.2   106  SER106      0.2314
    133  O         14.4450   86.4150   27.6240 O.2   106  SER106     -0.2863
    134  CB        13.0210   88.8660   29.2950 C.3   106  SER106      0.2116
    135  OG        14.1560   89.3530   28.6190 O.3   106  SER106     -0.2180
    136  N         16.2100   88.7960   26.5200 N.3   109  ASP109     -0.1239
    137  CA        17.5260   88.4440   27.0510 C.3   109  ASP109      0.1674
    138  C         17.9850   87.1040   26.5100 C.2   109  ASP109      0.2266
    139  O         19.1660   86.9320   26.2010 O.2   109  ASP109     -0.2867
    140  CB        17.5160   88.4370   28.5820 C.3   109  ASP109      0.1410
    141  CG        17.6350   89.8290   29.1670 C.2   109  ASP109      0.3668
    142  OD1       17.7210   90.8000   28.3910 O.co2 109  ASP109     -0.2456
    143  OD2       17.6590   89.9510   30.4110 O.co2 109  ASP109     -0.2456
    144  N          8.5410   86.7030   29.9860 N.3   154  LEU154     -0.1245
    145  CA         9.6220   85.8580   30.5050 C.3   154  LEU154      0.1561
    146  C          9.3190   84.3880   30.3260 C.2   154  LEU154      0.2260
    147  O          8.1620   83.9570   30.4700 O.2   154  LEU154     -0.2867
    148  CB         9.9280   86.1210   31.9980 C.3   154  LEU154      0.0270
    149  CG        10.0000   87.5210   32.6220 C.3   154  LEU154      0.0019
    150  CD1       10.6170   87.4990   34.0250 C.3   154  LEU154      0.0001
    151  CD2       10.6780   88.5600   31.7540 C.3   154  LEU154      0.0001
    152  N          4.7240   89.9050   32.0510 N.3   183  VAL183     -0.1231
    153  CA         4.9930   90.6330   33.2990 C.3   183  VAL183      0.1692
    154  C          4.8570   92.1520   33.0870 C.2   183  VAL183      0.2592
    155  O          4.5080   92.5940   31.9930 O.2   183  VAL183     -0.2718
    156  CB         6.4080   90.3020   33.8650 C.3   183  VAL183      0.0266
    157  CG1        6.5780   88.7960   34.0840 C.3   183  VAL183      0.0020
    158  CG2        7.5040   90.8480   32.9390 C.3   183  VAL183      0.0020
    159  N          5.1630   92.9210   34.1350 N.am  184  ASP184     -0.1960
    160  CA         5.1790   94.3990   34.1440 C.3   184  ASP184      0.1840
    161  C          3.8400   95.0550   33.8200 C.2   184  ASP184      0.2622
    162  O          3.6120   95.4970   32.6890 O.2   184  ASP184     -0.2715
    163  CB         6.2870   94.9780   33.2520 C.3   184  ASP184      0.1450
    164  CG         6.5490   96.4680   33.5240 C.2   184  ASP184      0.3671
    165  OD1        5.7950   97.1120   34.2900 O.co2 184  ASP184     -0.2456
    166  OD2        7.5180   97.0020   32.9720 O.co2 184  ASP184     -0.2456
    167  N          2.9790   95.1250   34.8330 N.am  185  PHE185     -0.1974
    168  CA         1.6460   95.7090   34.7040 C.3   185  PHE185      0.1639
    169  C          1.5930   97.1660   35.1810 C.2   185  PHE185      0.2290
    170  O          0.5170   97.7360   35.4170 O.2   185  PHE185     -0.2864
    171  CB         0.6050   94.7900   35.3760 C.3   185  PHE185      0.0560
    172  CG         0.3980   93.5130   34.6170 C.ar  185  PHE185     -0.0200
    173  CD1       -0.6070   93.4200   33.6550 C.ar  185  PHE185     -0.0042
    174  CD2        1.2610   92.4310   34.8010 C.ar  185  PHE185     -0.0042
    175  CE1       -0.7710   92.2530   32.9080 C.ar  185  PHE185     -0.0003
    176  CE2        1.1120   91.2730   34.0690 C.ar  185  PHE185     -0.0003
    177  CZ         0.0940   91.1740   33.1200 C.ar  185  PHE185     -0.0000
@<TRIPOS>BOND
     1   139   138    2
     2   138   137    1
     3   136   137    1
     4   137   140    1
     5   133   132    2
     6   132   131    1
     7   142   141   ar
     8   140   141    1
     9   135   134    1
    10   141   143   ar
    11   134   131    1
    12   131   130    1
    13   144   145    1
    14   128   127    1
    15   125   124    2
    16   130   124   am
    17   146   147    2
    18   146   145    1
    19   145   148    1
    20   124   123    1
    21   126   127    1
    22   126   123    1
    23   127   129    1
    24   123   122    1
    25   151   149    1
    26   155   154    2
    27   148   149    1
    28   152   153    1
    29   122   120   am
    30   149   150    1
    31   162   161    2
    32   175   177   ar
    33   175   173   ar
    34   158   156    1
    35   166   164   ar
    36   154   153    1
    37   154   159   am
    38   177   176   ar
    39   163   164    1
    40   163   160    1
    41   153   156    1
    42   120   121    2
    43   120   119    1
    44   164   165   ar
    45   173   172   ar
    46   161   160    1
    47   161   167   am
    48   156   157    1
    49   176   174   ar
    50   159   160    1
    51   119   118    1
    52   172   174   ar
    53   172   171    1
    54   168   167    1
    55   168   169    1
    56   168   171    1
    57   118   112   am
    58    75    76    1
    59   169   170    2
    60    16    15    2
    61   116   115    1
    62   114   115    1
    63   114   111    1
    64   117   115    1
    65    23    24    1
    66    23    22    1
    67   112   111    1
    68   112   113    2
    69    76    79    1
    70    76    77    1
    71    79    80    1
    72    79    81    1
    73   111   110    1
    74    24    25    2
    75    34    32   ar
    76    34    36   ar
    77    15    22   am
    78    15    14    1
    79    32    31   ar
    80     4     3    2
    81   101    99   ar
    82    13    14    1
    83    13    11   am
    84    36    35   ar
    85    77    78    2
    86    10    11    1
    87    10     9    1
    88    20    19   ar
    89    26    27    1
    90    14    17    1
    91    31    30    1
    92    31    33   ar
    93   110   104   am
    94    17    18    1
    95    30    27    1
    96     3     9   am
    97     3     2    1
    98    11    12    2
    99    99   100   ar
   100    99    98    1
   101    57    56    1
   102    35    33   ar
   103    18    19    1
   104    74    72    1
   105    27    28    1
   106    19    21   ar
   107   105   104    2
   108    66    64   ar
   109    64    63    1
   110    64    65   ar
   111    63    62    1
   112   104   103    1
   113    98    97    1
   114    56    55    1
   115     2     5    1
   116     2     1    1
   117    62    59    1
   118    59    58    1
   119    59    60    1
   120    67    68    1
   121     5     6    1
   122    43    41    1
   123     8     6    1
   124    72    73    1
   125    72    71    1
   126    61    60    2
   127    68    71    1
   128    68    69    1
   129    90    92   ar
   130    90    88   ar
   131    96    95    2
   132    28    29    2
   133    41    42    1
   134    41    38    1
   135    92    91   ar
   136    88    87   ar
   137     6     7    1
   138   103   102    1
   139   103   106    1
   140    97    94    1
   141    55    54    1
   142    70    69    2
   143    95   102   am
   144    95    94    1
   145    91    89   ar
   146   108   107    1
   147   107   106    1
   148   107   109    1
   149    87    89   ar
   150    87    86    1
   151    37    38    1
   152    86    83    1
   153    54    53    1
   154    48    45    1
   155    94    93    1
   156    38    39    1
   157    40    39    2
   158    93    84   am
   159    53    50    1
   160    83    84    1
   161    83    82    1
   162    84    85    2
   163    45    44    1
   164    45    46    1
   165    50    49    1
   166    50    51    1
   167    47    46    2
   168    51    52    2
