@<TRIPOS>MOLECULE
tmp/6fymD00.pdb
 144 140 0 0 0
SMALL
GASTEIGER

@<TRIPOS>ATOM
      1  N         -9.5670 -107.2030   -1.1680 N.3    69  PHE69      -0.1227
      2  CA        -9.4380 -105.7510   -1.0290 C.3    69  PHE69       0.1736
      3  C        -10.5100 -104.9900   -1.7800 C.2    69  PHE69       0.2595
      4  O        -10.9840 -105.4440   -2.8100 O.2    69  PHE69      -0.2718
      5  CB        -8.0480 -105.2990   -1.5130 C.3    69  PHE69       0.0547
      6  CG        -6.9420 -105.8090   -0.6310 C.ar   69  PHE69      -0.0202
      7  CD1       -6.6160 -105.1480    0.5530 C.ar   69  PHE69      -0.0042
      8  CD2       -6.2380 -106.9680   -0.9650 C.ar   69  PHE69      -0.0042
      9  CE1       -5.5850 -105.6110    1.3740 C.ar   69  PHE69      -0.0003
     10  CE2       -5.2030 -107.4400   -0.1360 C.ar   69  PHE69      -0.0003
     11  CZ        -4.8820 -106.7480    1.0260 C.ar   69  PHE69      -0.0000
     12  N        -10.8870 -103.8190   -1.2580 N.am   70  HIS70      -0.1961
     13  CA       -11.8410 -102.9300   -1.9000 C.3    70  HIS70       0.1787
     14  C        -11.4910 -101.4830   -1.5760 C.2    70  HIS70       0.2621
     15  O        -11.6290 -101.0480   -0.4260 O.2    70  HIS70      -0.2715
     16  CB       -13.2930 -103.2560   -1.4860 C.3    70  HIS70       0.0785
     17  CG       -14.3120 -102.4570   -2.2360 C.ar   70  HIS70       0.0821
     18  ND1      -14.8320 -102.9040   -3.4350 N.ar   70  HIS70      -0.2267
     19  CD2      -14.8150 -101.2300   -1.9750 C.ar   70  HIS70       0.1154
     20  CE1      -15.6520 -101.9550   -3.8520 C.ar   70  HIS70       0.1986
     21  NE2      -15.6870 -100.9340   -3.0010 N.ar   70  HIS70      -0.2212
     22  N        -11.0750 -100.7490   -2.5960 N.am   71  GLY71      -0.1940
     23  CA       -10.7900  -99.3250   -2.4960 C.3    71  GLY71       0.2014
     24  C        -12.0640  -98.5320   -2.6980 C.2    71  GLY71       0.2640
     25  O        -12.9530  -98.9600   -3.4520 O.2    71  GLY71      -0.2714
     26  N        -12.1950  -97.4010   -1.9900 N.am   72  THR72      -0.1936
     27  CA       -13.3700  -96.5320   -2.0990 C.3    72  THR72       0.2028
     28  C        -12.9680  -95.0880   -1.7920 C.2    72  THR72       0.2642
     29  O        -11.8840  -94.8590   -1.2630 O.2    72  THR72      -0.2714
     30  CB       -14.5460  -97.0460   -1.2140 C.3    72  THR72       0.1808
     31  OG1      -15.7340  -96.3850   -1.6380 O.3    72  THR72      -0.2208
     32  CG2      -14.3300  -96.8590    0.3050 C.3    72  THR72       0.0379
     33  N        -13.8300  -94.1210   -2.1020 N.am   73  ASP73      -0.1971
     34  CA       -13.5510  -92.7150   -1.7760 C.3    73  ASP73       0.1709
     35  C        -13.8840  -92.4770   -0.2940 C.2    73  ASP73       0.2293
     36  O        -14.6190  -93.2690    0.2980 O.2    73  ASP73      -0.2864
     37  CB       -14.3380  -91.7670   -2.7020 C.3    73  ASP73       0.1436
     38  CG       -15.8590  -91.8150   -2.5720 C.2    73  ASP73       0.3671
     39  OD1      -16.3970  -92.8890   -2.2310 O.co2  73  ASP73      -0.2456
     40  OD2      -16.5100  -90.7910   -2.8570 O.co2  73  ASP73      -0.2456
     41  N        -17.6260  -92.4760    1.1100 N.3    76  SER76      -0.1217
     42  CA       -18.3510  -93.7560    1.2020 C.3    76  SER76       0.1889
     43  C        -18.0780  -94.5070    2.5080 C.2    76  SER76       0.2288
     44  O        -18.8410  -95.4130    2.8390 O.2    76  SER76      -0.2866
     45  CB       -17.9720  -94.6700    0.0310 C.3    76  SER76       0.2089
     46  OG       -18.5210  -94.2210   -1.1950 O.3    76  SER76      -0.2183
     47  N        -25.0270  -98.5110   -2.4630 N.3    89  TYR89      -0.1227
     48  CA       -23.5840  -98.2300   -2.4620 C.3    89  TYR89       0.1736
     49  C        -23.1590  -97.6220   -3.8280 C.2    89  TYR89       0.2595
     50  O        -23.4510  -98.2070   -4.8770 O.2    89  TYR89      -0.2718
     51  CB       -22.7600  -99.4830   -2.0980 C.3    89  TYR89       0.0548
     52  CG       -21.2570  -99.2900   -2.1740 C.ar   89  TYR89      -0.0200
     53  CD1      -20.6280  -98.2650   -1.4700 C.ar   89  TYR89      -0.0009
     54  CD2      -20.4640 -100.1230   -2.9620 C.ar   89  TYR89      -0.0009
     55  CE1      -19.2540  -98.0520   -1.5720 C.ar   89  TYR89       0.0417
     56  CE2      -19.0800  -99.9400   -3.0430 C.ar   89  TYR89       0.0417
     57  CZ       -18.4830  -98.8900   -2.3560 C.ar   89  TYR89       0.1957
     58  OH       -17.1300  -98.6620   -2.4220 O.3    89  TYR89      -0.2866
     59  N        -22.5360  -96.4040   -3.7960 N.am   90  ALA90      -0.1966
     60  CA       -22.0730  -95.6270   -4.9760 C.3    90  ALA90       0.1728
     61  C        -20.9740  -96.3460   -5.7930 C.2    90  ALA90       0.2616
     62  O        -20.8640  -96.1360   -7.0070 O.2    90  ALA90      -0.2715
     63  CB       -21.5600  -94.2620   -4.5370 C.3    90  ALA90       0.0334
     64  N        -20.1950  -97.1960   -5.1260 N.am   91  GLY91      -0.1955
     65  CA       -19.1280  -97.9660   -5.7510 C.3    91  GLY91       0.1869
     66  C        -19.5730  -99.1600   -6.5760 C.2    91  GLY91       0.2309
     67  O        -18.7230  -99.9110   -7.0680 O.2    91  GLY91      -0.2863
     68  N        -20.3600 -101.0850   -9.6980 N.3    93  ASN93      -0.1240
     69  CA       -19.8870 -100.9360  -11.0700 C.3    93  ASN93       0.1653
     70  C        -20.5400 -101.9290  -12.0110 C.2    93  ASN93       0.2266
     71  O        -20.6560 -103.1150  -11.6940 O.2    93  ASN93      -0.2867
     72  CB       -18.3610 -101.1150  -11.1440 C.3    93  ASN93       0.1155
     73  CG       -17.5880  -99.8260  -11.1610 C.2    93  ASN93       0.2627
     74  OD1      -17.3680  -99.2030  -10.1190 O.2    93  ASN93      -0.2716
     75  ND2      -17.1310  -99.4200  -12.3410 N.am   93  ASN93      -0.0877
     76  N        -19.4070 -103.1230  -15.1370 N.3    95  VAL95      -0.1245
     77  CA       -18.2840 -103.2210  -16.0670 C.3    95  VAL95       0.1561
     78  C        -18.2290 -104.6610  -16.6680 C.2    95  VAL95       0.2260
     79  O        -19.2730 -105.3200  -16.7610 O.2    95  VAL95      -0.2867
     80  CB       -16.9170 -102.6950  -15.5080 C.3    95  VAL95       0.0252
     81  CG1      -16.9330 -101.1690  -15.3740 C.3    95  VAL95       0.0019
     82  CG2      -16.5250 -103.3400  -14.1880 C.3    95  VAL95       0.0019
     83  N        -17.0620 -105.0940   -6.8100 N.3   102  TYR102     -0.1241
     84  CA       -15.8040 -105.7000   -7.2280 C.3   102  TYR102      0.1605
     85  C        -14.8150 -105.7600   -6.0760 C.2   102  TYR102      0.2264
     86  O        -14.6450 -104.7840   -5.3500 O.2   102  TYR102     -0.2867
     87  CB       -15.2220 -104.9160   -8.4260 C.3   102  TYR102      0.0534
     88  CG       -15.8900 -105.2280   -9.7580 C.ar  102  TYR102     -0.0201
     89  CD1      -17.1890 -104.8060  -10.0270 C.ar  102  TYR102     -0.0009
     90  CD2      -15.2140 -105.9320  -10.7520 C.ar  102  TYR102     -0.0009
     91  CE1      -17.8240 -105.1280  -11.2300 C.ar  102  TYR102      0.0417
     92  CE2      -15.8260 -106.2290  -11.9790 C.ar  102  TYR102      0.0417
     93  CZ       -17.1410 -105.8470  -12.2010 C.ar  102  TYR102      0.1957
     94  OH       -17.7570 -106.1410  -13.3920 O.3   102  TYR102     -0.2866
     95  N        -10.7410 -107.2770   -5.0800 N.3   104  ALA104     -0.1245
     96  CA        -9.4650 -107.7000   -5.6580 C.3   104  ALA104      0.1562
     97  C         -8.6760 -108.6590   -4.7650 C.2   104  ALA104      0.2260
     98  O         -8.6350 -108.5040   -3.5470 O.2   104  ALA104     -0.2867
     99  CB        -8.6140 -106.4730   -5.9630 C.3   104  ALA104      0.0290
    100  N         -4.4240 -103.4180   -7.0700 N.3   109  TYR109     -0.1227
    101  CA        -5.5640 -103.1940   -7.9620 C.3   109  TYR109      0.1736
    102  C         -6.5200 -102.1170   -7.3240 C.2   109  TYR109      0.2596
    103  O         -6.9100 -101.1620   -7.9880 O.2   109  TYR109     -0.2718
    104  CB        -6.3030 -104.5170   -8.2030 C.3   109  TYR109      0.0548
    105  CG        -6.9620 -104.6290   -9.5620 C.ar  109  TYR109     -0.0200
    106  CD1       -7.8580 -103.6600  -10.0110 C.ar  109  TYR109     -0.0009
    107  CD2       -6.7480 -105.7390  -10.3700 C.ar  109  TYR109     -0.0009
    108  CE1       -8.4730 -103.7650  -11.2600 C.ar  109  TYR109      0.0417
    109  CE2       -7.3740 -105.8660  -11.6100 C.ar  109  TYR109      0.0417
    110  CZ        -8.2320 -104.8740  -12.0550 C.ar  109  TYR109      0.1957
    111  OH        -8.8410 -104.9990  -13.2850 O.3   109  TYR109     -0.2866
    112  N         -6.8350 -102.2710   -6.0250 N.am  110  SER110     -0.1952
    113  CA        -7.6940 -101.3710   -5.2500 C.3   110  SER110      0.1924
    114  C         -7.0080 -100.0230   -4.9330 C.2   110  SER110      0.2314
    115  O         -7.6900  -99.0170   -4.7950 O.2   110  SER110     -0.2863
    116  CB        -8.1300 -102.0510   -3.9570 C.3   110  SER110      0.2116
    117  OG        -8.9100 -103.1880   -4.2800 O.3   110  SER110     -0.2180
    118  N         -8.4260  -94.2520   -9.1700 N.3   114  THR114     -0.1203
    119  CA        -9.7980  -94.3170   -9.7050 C.3   114  THR114      0.1994
    120  C        -10.7250  -94.9950   -8.6800 C.2   114  THR114      0.2617
    121  O        -11.8780  -94.6010   -8.5570 O.2   114  THR114     -0.2717
    122  CB        -9.7990  -95.0570  -11.0510 C.3   114  THR114      0.1784
    123  OG1       -8.9210  -94.3760  -11.9410 O.3   114  THR114     -0.2211
    124  CG2      -11.1810  -95.1390  -11.6920 C.3   114  THR114      0.0376
    125  N        -10.1970  -95.9780   -7.9230 N.am  115  TYR115     -0.1975
    126  CA       -10.9430  -96.7430   -6.9300 C.3   115  TYR115      0.1639
    127  C        -10.7430  -96.1380   -5.5400 C.2   115  TYR115      0.2290
    128  O        -11.7380  -95.7240   -4.9330 O.2   115  TYR115     -0.2864
    129  CB       -10.5840  -98.2410   -7.0110 C.3   115  TYR115      0.0560
    130  CG       -10.7130  -98.7880   -8.4270 C.ar  115  TYR115     -0.0198
    131  CD1      -11.8230  -98.4890   -9.2180 C.ar  115  TYR115     -0.0009
    132  CD2       -9.7130  -99.5800   -8.9870 C.ar  115  TYR115     -0.0009
    133  CE1      -11.9280  -98.9530  -10.5320 C.ar  115  TYR115      0.0417
    134  CE2       -9.8210 -100.0770  -10.2940 C.ar  115  TYR115      0.0417
    135  CZ       -10.9360  -99.7660  -11.0610 C.ar  115  TYR115      0.1957
    136  OH       -11.0490 -100.2270  -12.3590 O.3   115  TYR115     -0.2866
    137  N        -10.0050 -110.9770   -9.6310 N.3   170  LEU170     -0.1245
    138  CA       -11.1980 -110.2140   -9.2180 C.3   170  LEU170      0.1561
    139  C        -12.3940 -111.1050   -8.9390 C.2   170  LEU170      0.2260
    140  O        -12.5540 -112.1420   -9.5800 O.2   170  LEU170     -0.2867
    141  CB       -11.6360 -109.2170  -10.3190 C.3   170  LEU170      0.0270
    142  CG       -10.6570 -108.1510  -10.8270 C.3   170  LEU170      0.0019
    143  CD1      -11.1090 -107.6100  -12.1740 C.3   170  LEU170      0.0001
    144  CD2      -10.4810 -107.0180   -9.8210 C.3   170  LEU170      0.0001
@<TRIPOS>BOND
     1    79    78    2
     2    78    77    1
     3    77    80    1
     4    77    76    1
     5    80    81    1
     6    80    82    1
     7    94    93    1
     8   111   110    1
     9   136   135    1
    10    75    73   am
    11    93    92   ar
    12    93    91   ar
    13   143   142    1
    14   110   109   ar
    15   110   108   ar
    16    70    71    2
    17    70    69    1
    18    92    90   ar
    19   123   122    1
    20   124   122    1
    21   109   107   ar
    22   108   106   ar
    23    91    89   ar
    24    73    72    1
    25    73    74    2
    26    72    69    1
    27    69    68    1
    28   135   133   ar
    29   135   134   ar
    30   122   119    1
    31   142   141    1
    32   142   144    1
    33    90    88   ar
    34   133   131   ar
    35   107   105   ar
    36   141   138    1
    37   134   132   ar
    38    89    88   ar
    39   106   105   ar
    40    88    87    1
    41   119   118    1
    42   119   120    1
    43   137   138    1
    44   140   139    2
    45   105   104    1
    46   138   139    1
    47   131   130   ar
    48   132   130   ar
    49   120   121    2
    50   120   125   am
    51   130   129    1
    52    87    84    1
    53   104   101    1
    54   103   102    2
    55   101   102    1
    56   101   100    1
    57   125   126    1
    58   102   112   am
    59    84    83    1
    60    84    85    1
    61    67    66    2
    62   129   126    1
    63    62    61    2
    64   126   127    1
    65    66    65    1
    66    85    86    2
    67   112   113    1
    68    99    96    1
    69    61    64   am
    70    61    60    1
    71    65    64    1
    72    96    95    1
    73    96    97    1
    74   127   128    2
    75   113   114    1
    76   113   116    1
    77    60    63    1
    78    60    59    1
    79   114   115    2
    80    50    49    2
    81    97    98    2
    82   117   116    1
    83    20    18   ar
    84    20    21   ar
    85    49    59   am
    86    49    48    1
    87    25    24    2
    88    18    17   ar
    89    56    54   ar
    90    56    57   ar
    91    21    19   ar
    92    54    52   ar
    93    40    38   ar
    94     4     3    2
    95    37    38    1
    96    37    34    1
    97    24    23    1
    98    24    26   am
    99    22    23    1
   100    22    14   am
   101    38    39   ar
   102    47    48    1
   103    48    51    1
   104    58    57    1
   105    57    55   ar
   106    17    19   ar
   107    17    16    1
   108    52    51    1
   109    52    53   ar
   110    33    28   am
   111    33    34    1
   112    27    26    1
   113    27    28    1
   114    27    30    1
   115    13    14    1
   116    13    16    1
   117    13    12    1
   118    28    29    2
   119     3    12   am
   120     3     2    1
   121    34    35    1
   122    31    30    1
   123    14    15    2
   124    55    53   ar
   125     5     2    1
   126     5     6    1
   127    30    32    1
   128    46    45    1
   129     1     2    1
   130     8     6   ar
   131     8    10   ar
   132     6     7   ar
   133    35    36    2
   134    10    11   ar
   135    45    42    1
   136     7     9   ar
   137    11     9   ar
   138    41    42    1
   139    42    43    1
   140    43    44    2
