@<TRIPOS>MOLECULE
tmp/6fyoA00.pdb
 162 149 0 0 0
SMALL
GASTEIGER

@<TRIPOS>ATOM
      1  N         30.5810   17.7380   19.1230 N.3    18  ASP18      -0.1239
      2  CA        29.9050   16.6530   19.8330 C.3    18  ASP18       0.1674
      3  C         28.9830   15.8530   18.9170 C.2    18  ASP18       0.2266
      4  O         28.5420   16.3500   17.8800 O.2    18  ASP18      -0.2867
      5  CB        29.1000   17.2050   21.0160 C.3    18  ASP18       0.1410
      6  CG        29.0100   16.2260   22.1710 C.2    18  ASP18       0.3668
      7  OD1       29.8410   15.2990   22.2380 O.co2  18  ASP18      -0.2456
      8  OD2       28.1120   16.3900   23.0210 O.co2  18  ASP18      -0.2456
      9  N         25.3200   13.9380   19.1330 N.3    20  LEU20      -0.1245
     10  CA        24.1330   14.0080   19.9800 C.3    20  LEU20       0.1561
     11  C         23.2200   12.7940   19.8500 C.2    20  LEU20       0.2260
     12  O         22.4820   12.4740   20.7810 O.2    20  LEU20      -0.2867
     13  CB        23.3440   15.2890   19.6880 C.3    20  LEU20       0.0270
     14  CG        24.0660   16.6410   19.7360 C.3    20  LEU20       0.0019
     15  CD1       23.1870   17.7200   19.1190 C.3    20  LEU20       0.0001
     16  CD2       24.4900   17.0260   21.1550 C.3    20  LEU20       0.0001
     17  N         23.1710   12.7540   14.3360 N.3    28  VAL28      -0.1245
     18  CA        22.9720   14.1680   14.6400 C.3    28  VAL28       0.1561
     19  C         24.1580   14.6300   15.4790 C.2    28  VAL28       0.2260
     20  O         24.4760   14.0290   16.5040 O.2    28  VAL28      -0.2867
     21  CB        21.6290   14.4450   15.3800 C.3    28  VAL28       0.0252
     22  CG1       21.4830   15.9310   15.7030 C.3    28  VAL28       0.0019
     23  CG2       20.4460   13.9710   14.5460 C.3    28  VAL28       0.0019
     24  N         26.4210   18.0770   17.2080 N.3    30  GLU30      -0.1245
     25  CA        26.4970   19.4810   17.5920 C.3    30  GLU30       0.1567
     26  C         27.6850   20.1140   16.8800 C.2    30  GLU30       0.2260
     27  O         28.7750   19.5380   16.8510 O.2    30  GLU30      -0.2867
     28  CB        26.6290   19.6330   19.1120 C.3    30  GLU30       0.0388
     29  CG        26.5720   21.0850   19.6070 C.3    30  GLU30       0.1160
     30  CD        26.3080   21.2100   21.1050 C.2    30  GLU30       0.3649
     31  OE1       25.7170   20.2810   21.7030 O.co2  30  GLU30      -0.2457
     32  OE2       26.6800   22.2510   21.6850 O.co2  30  GLU30      -0.2457
     33  N         22.6770   22.1350   15.3390 N.3    42  ALA42      -0.1245
     34  CA        22.5960   20.6950   15.1460 C.3    42  ALA42       0.1562
     35  C         22.7020   20.3770   13.6550 C.2    42  ALA42       0.2260
     36  O         22.0710   21.0390   12.8260 O.2    42  ALA42      -0.2867
     37  CB        21.3060   20.1510   15.7280 C.3    42  ALA42       0.0290
     38  N         22.3700   17.1650   10.9620 N.3    44  LYS44      -0.1245
     39  CA        21.9570   15.7990   10.7010 C.3    44  LYS44       0.1561
     40  C         22.7450   15.2910    9.5040 C.2    44  LYS44       0.2260
     41  O         22.5720   15.7770    8.3860 O.2    44  LYS44      -0.2867
     42  CB        20.4560   15.7600   10.4130 C.3    44  LYS44       0.0271
     43  CG        19.8130   14.3870   10.4770 C.3    44  LYS44       0.0035
     44  CD        18.3900   14.4720    9.9590 C.3    44  LYS44       0.0206
     45  CE        17.4780   13.4690   10.6400 C.3    44  LYS44       0.1093
     46  NZ        16.0530   13.7430   10.3140 N.3    44  LYS44      -0.1314
     47  N         12.3630   16.0950    3.9400 N.3    59  GLU59      -0.1245
     48  CA        12.4590   16.9510    5.1370 C.3    59  GLU59       0.1567
     49  C         12.9020   18.3760    4.7840 C.2    59  GLU59       0.2260
     50  O         12.3730   19.3420    5.3340 O.2    59  GLU59      -0.2867
     51  CB        13.3740   16.3420    6.2140 C.3    59  GLU59       0.0388
     52  CG        13.5190   17.2230    7.4660 C.3    59  GLU59       0.1160
     53  CD        14.1220   16.5050    8.6730 C.2    59  GLU59       0.3649
     54  OE1       14.9730   15.6130    8.4910 O.co2  59  GLU59      -0.2457
     55  OE2       13.7500   16.8510    9.8140 O.co2  59  GLU59      -0.2457
     56  N         10.7780   22.8910   14.2750 N.3    78  VAL78      -0.1245
     57  CA        12.2160   23.1610   14.3160 C.3    78  VAL78       0.1561
     58  C         12.6330   23.9610   13.0750 C.2    78  VAL78       0.2260
     59  O         12.1160   23.7310   11.9790 O.2    78  VAL78      -0.2867
     60  CB        13.0380   21.8450   14.4480 C.3    78  VAL78       0.0252
     61  CG1       12.9080   20.9710   13.1910 C.3    78  VAL78       0.0019
     62  CG2       14.5030   22.1360   14.7670 C.3    78  VAL78       0.0019
     63  N         20.1610   22.4930   11.5330 N.3    94  PHE94      -0.1227
     64  CA        19.0310   22.9730   12.3250 C.3    94  PHE94       0.1736
     65  C         19.5080   23.8350   13.4840 C.2    94  PHE94       0.2595
     66  O         20.6300   23.6660   13.9740 O.2    94  PHE94      -0.2718
     67  CB        18.2510   21.7980   12.9160 C.3    94  PHE94       0.0547
     68  CG        17.7660   20.8060   11.9020 C.ar   94  PHE94      -0.0202
     69  CD1       16.5400   20.9820   11.2740 C.ar   94  PHE94      -0.0042
     70  CD2       18.5270   19.6800   11.5920 C.ar   94  PHE94      -0.0042
     71  CE1       16.0800   20.0610   10.3450 C.ar   94  PHE94      -0.0003
     72  CE2       18.0800   18.7570   10.6650 C.ar   94  PHE94      -0.0003
     73  CZ        16.8480   18.9460   10.0390 C.ar   94  PHE94      -0.0000
     74  N         18.6410   24.7430   13.9290 N.am   95  GLU95      -0.1965
     75  CA        18.7910   25.3780   15.2380 C.3    95  GLU95       0.1733
     76  C         18.9910   24.2720   16.2810 C.2    95  GLU95       0.2616
     77  O         18.3230   23.2320   16.2280 O.2    95  GLU95      -0.2715
     78  CB        17.5500   26.2090   15.5840 C.3    95  GLU95       0.0429
     79  CG        16.2580   25.3850   15.7120 C.3    95  GLU95       0.1163
     80  CD        15.0910   26.1570   16.2910 C.2    95  GLU95       0.3649
     81  OE1       15.2950   27.0020   17.1900 O.co2  95  GLU95      -0.2457
     82  OE2       13.9540   25.9050   15.8490 O.co2  95  GLU95      -0.2457
     83  N         19.9220   24.4870   17.2060 N.am   96  LEU96      -0.1963
     84  CA        20.1750   23.5120   18.2640 C.3    96  LEU96       0.1728
     85  C         19.0630   23.5110   19.3150 C.2    96  LEU96       0.2616
     86  O         18.6990   24.5560   19.8510 O.2    96  LEU96      -0.2715
     87  CB        21.5290   23.7620   18.9330 C.3    96  LEU96       0.0311
     88  CG        21.9380   22.7260   19.9840 C.3    96  LEU96       0.0022
     89  CD1       22.2020   21.3640   19.3390 C.3    96  LEU96       0.0001
     90  CD2       23.1510   23.2090   20.7700 C.3    96  LEU96       0.0001
     91  N         18.5320   22.3250   19.5930 N.am   97  LEU97      -0.1963
     92  CA        17.5710   22.1440   20.6770 C.3    97  LEU97       0.1728
     93  C         18.2030   21.3450   21.8140 C.2    97  LEU97       0.2617
     94  O         19.3850   20.9900   21.7520 O.2    97  LEU97      -0.2715
     95  CB        16.2860   21.4790   20.1570 C.3    97  LEU97       0.0311
     96  CG        15.5160   22.2760   19.0910 C.3    97  LEU97       0.0022
     97  CD1       14.4610   21.4230   18.3950 C.3    97  LEU97       0.0001
     98  CD2       14.8980   23.5260   19.6790 C.3    97  LEU97       0.0001
     99  N         17.4280   21.0820   22.8580 N.am   98  GLY98      -0.1940
    100  CA        17.9070   20.2950   23.9860 C.3    98  GLY98       0.2014
    101  C         17.4720   18.8410   23.9310 C.2    98  GLY98       0.2639
    102  O         17.2090   18.2870   22.8570 O.2    98  GLY98      -0.2714
    103  N         17.3930   18.2380   25.1110 N.am   99  LEU99      -0.1963
    104  CA        16.9980   16.8490   25.3070 C.3    99  LEU99       0.1728
    105  C         15.5890   16.5920   24.7760 C.2    99  LEU99       0.2616
    106  O         14.6860   17.4210   24.9630 O.2    99  LEU99      -0.2715
    107  CB        17.0220   16.5510   26.8090 C.3    99  LEU99       0.0311
    108  CG        17.6970   15.3100   27.3840 C.3    99  LEU99       0.0022
    109  CD1       19.1480   15.1900   26.9440 C.3    99  LEU99       0.0001
    110  CD2       17.6130   15.3770   28.8980 C.3    99  LEU99       0.0001
    111  N         15.4020   15.4410   24.1340 N.am  100  SER100     -0.1950
    112  CA        14.0730   14.9970   23.7350 C.3   100  SER100      0.1924
    113  C         13.2480   14.7070   24.9830 C.2   100  SER100      0.2314
    114  O         13.8010   14.4970   26.0690 O.2   100  SER100     -0.2863
    115  CB        14.1530   13.7510   22.8550 C.3   100  SER100      0.2116
    116  OG        14.2950   12.5770   23.6310 O.3   100  SER100     -0.2180
    117  N         14.1570   11.2760   26.2950 N.3   103  ASP103     -0.1239
    118  CA        15.4430   11.2940   26.9970 C.3   103  ASP103      0.1674
    119  C         15.3050   11.8390   28.4060 C.2   103  ASP103      0.2266
    120  O         15.9340   11.3280   29.3390 O.2   103  ASP103     -0.2867
    121  CB        16.4650   12.1310   26.2300 C.3   103  ASP103      0.1410
    122  CG        16.9800   11.4370   24.9890 C.2   103  ASP103      0.3668
    123  OD1       17.0220   10.1910   24.9670 O.co2 103  ASP103     -0.2456
    124  OD2       17.3550   12.1500   24.0330 O.co2 103  ASP103     -0.2456
    125  N         16.1210    9.9140   31.7940 N.3   107  GLU107     -0.1245
    126  CA        17.1850   10.4020   32.6850 C.3   107  GLU107      0.1567
    127  C         16.6770   10.8490   34.0510 C.2   107  GLU107      0.2260
    128  O         17.4630   11.1940   34.9290 O.2   107  GLU107     -0.2867
    129  CB        17.9650   11.5390   32.0220 C.3   107  GLU107      0.0388
    130  CG        18.8660   11.0950   30.8720 C.3   107  GLU107      0.1160
    131  CD        19.6950   12.2410   30.3070 C.2   107  GLU107      0.3649
    132  OE1       19.6680   13.3490   30.8900 O.co2 107  GLU107     -0.2457
    133  OE2       20.3740   12.0360   29.2790 O.co2 107  GLU107     -0.2457
    134  N         11.1950   17.6810   21.1480 N.3   148  LEU148     -0.1245
    135  CA        12.4160   18.1390   21.8190 C.3   148  LEU148      0.1561
    136  C         12.1850   19.4130   22.6270 C.2   148  LEU148      0.2260
    137  O         11.5330   20.3380   22.1520 O.2   148  LEU148     -0.2867
    138  CB        13.5430   18.3630   20.7940 C.3   148  LEU148      0.0270
    139  CG        14.5310   17.2240   20.4800 C.3   148  LEU148      0.0019
    140  CD1       13.8560   15.9350   20.0210 C.3   148  LEU148      0.0001
    141  CD2       15.5180   17.6820   19.4350 C.3   148  LEU148      0.0001
    142  N         17.1110   22.2530   28.0300 N.3   152  SER152     -0.1217
    143  CA        17.0760   21.0680   28.8890 C.3   152  SER152      0.1889
    144  C         17.4180   21.3420   30.3600 C.2   152  SER152      0.2288
    145  O         17.2630   20.4570   31.2110 O.2   152  SER152     -0.2866
    146  CB        17.9440   19.9360   28.3130 C.3   152  SER152      0.2089
    147  OG        19.2570   20.3780   28.0200 O.3   152  SER152     -0.2183
    148  N         10.2910   17.8820   15.6550 N.3   174  VAL174     -0.1231
    149  CA        11.4020   17.6060   14.7300 C.3   174  VAL174      0.1692
    150  C         11.1050   16.4150   13.7990 C.2   174  VAL174      0.2592
    151  O         10.0190   15.8370   13.8510 O.2   174  VAL174     -0.2718
    152  CB        12.7530   17.3700   15.4860 C.3   174  VAL174      0.0266
    153  CG1       13.1240   18.5750   16.3410 C.3   174  VAL174      0.0020
    154  CG2       12.7020   16.1000   16.3420 C.3   174  VAL174      0.0020
    155  N         12.0830   16.0720   12.9550 N.am  175  ASP175     -0.1974
    156  CA        12.0320   14.9200   12.0400 C.3   175  ASP175      0.1709
    157  C         10.8460   14.9480   11.0700 C.2   175  ASP175      0.2293
    158  O          9.8360   14.2630   11.2710 O.2   175  ASP175     -0.2864
    159  CB        12.0820   13.5920   12.8090 C.3   175  ASP175      0.1436
    160  CG        12.6220   12.4430   11.9620 C.2   175  ASP175      0.3671
    161  OD1       12.5320   12.4970   10.7120 O.co2 175  ASP175     -0.2456
    162  OD2       13.1380   11.4740   12.5550 O.co2 175  ASP175     -0.2456
@<TRIPOS>BOND
     1    47    48    1
     2    49    48    1
     3    49    50    2
     4    48    51    1
     5    51    52    1
     6    52    53    1
     7    41    40    2
     8    54    53   ar
     9    53    55   ar
    10    40    39    1
    11    44    43    1
    12    44    45    1
    13    73    71   ar
    14    73    72   ar
    15    46    45    1
    16    71    69   ar
    17    42    43    1
    18    42    39    1
    19    72    70   ar
    20    39    38    1
    21   161   160   ar
    22   157   158    2
    23   157   156    1
    24    69    68   ar
    25    63    64    1
    26    70    68   ar
    27    68    67    1
    28   160   162   ar
    29   160   159    1
    30    59    58    2
    31   156   159    1
    32   156   155    1
    33    64    67    1
    34    64    65    1
    35    36    35    2
    36   155   150   am
    37    58    57    1
    38    61    60    1
    39    65    74   am
    40    65    66    2
    41    35    34    1
    42   150   151    2
    43   150   149    1
    44    74    75    1
    45    56    57    1
    46    57    60    1
    47    17    18    1
    48    60    62    1
    49    23    21    1
    50    18    21    1
    51    18    19    1
    52   149   152    1
    53   149   148    1
    54    34    33    1
    55    34    37    1
    56    75    78    1
    57    75    76    1
    58    21    22    1
    59    19    20    2
    60   152   153    1
    61   152   154    1
    62    78    79    1
    63    79    80    1
    64    82    80   ar
    65    77    76    2
    66    76    83   am
    67    80    81   ar
    68    27    26    2
    69    26    25    1
    70    83    84    1
    71    24    25    1
    72    25    28    1
    73     4     3    2
    74    84    87    1
    75    84    85    1
    76    97    96    1
    77     3     2    1
    78    87    88    1
    79    96    98    1
    80    96    95    1
    81    28    29    1
    82    15    14    1
    83     1     2    1
    84     9    10    1
    85    85    91   am
    86    85    86    2
    87    89    88    1
    88   141   139    1
    89    91    92    1
    90    29    30    1
    91    13    14    1
    92    13    10    1
    93    14    16    1
    94     2     5    1
    95    11    10    1
    96    11    12    2
    97    88    90    1
    98   140   139    1
    99    95    92    1
   100   139   138    1
   101    92    93    1
   102   138   135    1
   103     5     6    1
   104    30    32   ar
   105    30    31   ar
   106   134   135    1
   107    94    93    2
   108    93    99   am
   109   135   136    1
   110   137   136    2
   111     6     7   ar
   112     6     8   ar
   113   115   116    1
   114   115   112    1
   115   102   101    2
   116    99   100    1
   117   112   111    1
   118   112   113    1
   119   101   100    1
   120   101   103   am
   121   124   122   ar
   122   111   105   am
   123   105   106    2
   124   105   104    1
   125   123   122   ar
   126   113   114    2
   127   122   121    1
   128   103   104    1
   129   104   107    1
   130   121   118    1
   131   117   118    1
   132   107   108    1
   133   109   108    1
   134   118   119    1
   135   108   110    1
   136   147   146    1
   137   142   143    1
   138   146   143    1
   139   119   120    2
   140   143   144    1
   141   133   131   ar
   142   131   130    1
   143   131   132   ar
   144   144   145    2
   145   130   129    1
   146   125   126    1
   147   129   126    1
   148   126   127    1
   149   127   128    2
