@<TRIPOS>MOLECULE
tmp/6fypA00.pdb
 179 168 0 0 0
SMALL
GASTEIGER

@<TRIPOS>ATOM
      1  N         -4.4050   -9.5020   16.3070 N.3    28  LEU28      -0.1231
      2  CA        -5.7660   -9.9430   16.0630 C.3    28  LEU28       0.1693
      3  C         -6.5210  -10.1480   17.3670 C.2    28  LEU28       0.2593
      4  O         -7.7390  -10.0460   17.4010 O.2    28  LEU28      -0.2718
      5  CB        -5.7720  -11.1970   15.1960 C.3    28  LEU28       0.0284
      6  CG        -5.2200  -11.0260   13.7710 C.3    28  LEU28       0.0019
      7  CD1       -4.8940  -12.3820   13.1600 C.3    28  LEU28       0.0001
      8  CD2       -6.1960  -10.2560   12.8770 C.3    28  LEU28       0.0001
      9  N         -5.7820  -10.4270   18.4350 N.am   29  GLY29      -0.1942
     10  CA        -6.3530  -10.5570   19.7640 C.3    29  GLY29       0.2014
     11  C         -5.4060  -11.2320   20.7300 C.2    29  GLY29       0.2639
     12  O         -4.3200  -11.6770   20.3440 O.2    29  GLY29      -0.2714
     13  N         -5.8180  -11.2860   21.9910 N.am   30  GLU30      -0.1963
     14  CA        -5.1030  -12.0060   23.0380 C.3    30  GLU30       0.1733
     15  C         -6.1130  -12.6740   23.9440 C.2    30  GLU30       0.2616
     16  O         -7.3180  -12.3930   23.8720 O.2    30  GLU30      -0.2715
     17  CB        -4.2270  -11.0630   23.8550 C.3    30  GLU30       0.0429
     18  CG        -2.9730  -10.5890   23.1270 C.3    30  GLU30       0.1163
     19  CD        -2.6830   -9.1180   23.3670 C.2    30  GLU30       0.3649
     20  OE1       -3.4900   -8.4590   24.0630 O.co2  30  GLU30      -0.2457
     21  OE2       -1.6490   -8.6190   22.8590 O.co2  30  GLU30      -0.2457
     22  N         -5.6290  -13.5580   24.8030 N.am   31  GLY31      -0.1955
     23  CA        -6.5200  -14.3050   25.6780 C.3    31  GLY31       0.1869
     24  C         -5.8120  -14.9840   26.8260 C.2    31  GLY31       0.2309
     25  O         -4.6240  -14.7450   27.0730 O.2    31  GLY31      -0.2863
     26  N         -4.9100  -18.0810   27.0900 N.3    33  PHE33      -0.1241
     27  CA        -3.8690  -18.9480   26.5200 C.3    33  PHE33       0.1605
     28  C         -2.6090  -18.2340   26.0060 C.2    33  PHE33       0.2264
     29  O         -1.5250  -18.7950   26.0550 O.2    33  PHE33      -0.2867
     30  CB        -4.4710  -19.7640   25.3700 C.3    33  PHE33       0.0534
     31  CG        -4.9510  -18.9180   24.2120 C.ar   33  PHE33      -0.0203
     32  CD1       -4.0970  -18.6180   23.1470 C.ar   33  PHE33      -0.0042
     33  CD2       -6.2550  -18.4120   24.1910 C.ar   33  PHE33      -0.0042
     34  CE1       -4.5300  -17.8250   22.0800 C.ar   33  PHE33      -0.0003
     35  CE2       -6.7020  -17.6230   23.1240 C.ar   33  PHE33      -0.0003
     36  CZ        -5.8350  -17.3290   22.0670 C.ar   33  PHE33      -0.0000
     37  N         -2.8650  -14.0260   19.3520 N.3    36  VAL36      -0.1245
     38  CA        -3.0950  -14.3350   17.9180 C.3    36  VAL36       0.1561
     39  C         -2.6600  -13.1530   17.0430 C.2    36  VAL36       0.2260
     40  O         -3.1780  -12.0450   17.1920 O.2    36  VAL36      -0.2867
     41  CB        -4.5710  -14.7210   17.5940 C.3    36  VAL36       0.0252
     42  CG1       -4.7470  -15.0420   16.1010 C.3    36  VAL36       0.0019
     43  CG2       -5.0250  -15.9000   18.4310 C.3    36  VAL36       0.0019
     44  N         -3.1910  -16.1580   10.0610 N.3    50  ALA50      -0.1245
     45  CA        -3.3530  -15.8350   11.4760 C.3    50  ALA50       0.1562
     46  C         -2.5440  -16.8490   12.2840 C.2    50  ALA50       0.2260
     47  O         -2.8440  -18.0360   12.2730 O.2    50  ALA50      -0.2867
     48  CB        -4.8300  -15.8820   11.8880 C.3    50  ALA50       0.0290
     49  N         -1.4200  -18.3180   15.7920 N.3    52  LYS52      -0.1245
     50  CA        -1.7250  -18.4850   17.2020 C.3    52  LYS52       0.1561
     51  C         -0.4640  -18.9340   17.9530 C.2    52  LYS52       0.2260
     52  O          0.2300  -19.8720   17.5320 O.2    52  LYS52      -0.2867
     53  CB        -2.8360  -19.5170   17.3640 C.3    52  LYS52       0.0271
     54  CG        -3.3910  -19.6580   18.7660 C.3    52  LYS52       0.0035
     55  CD        -4.2350  -20.9080   18.8200 C.3    52  LYS52       0.0206
     56  CE        -5.1260  -20.9480   20.0290 C.3    52  LYS52       0.1093
     57  NZ        -6.1880  -21.9550   19.8040 N.3    52  LYS52      -0.1314
     58  N         -4.5370  -30.0030   20.7510 N.3    67  GLU67      -0.1245
     59  CA        -5.2960  -29.1200   19.8680 C.3    67  GLU67       0.1567
     60  C         -4.8900  -29.3530   18.4110 C.2    67  GLU67       0.2260
     61  O         -5.7400  -29.5400   17.5280 O.2    67  GLU67      -0.2867
     62  CB        -5.0540  -27.6680   20.2610 C.3    67  GLU67       0.0388
     63  CG        -5.8040  -26.6790   19.4160 C.3    67  GLU67       0.1160
     64  CD        -5.6120  -25.2750   19.9080 C.2    67  GLU67       0.3649
     65  OE1       -5.2340  -25.1090   21.0790 O.co2  67  GLU67      -0.2457
     66  OE2       -5.8370  -24.3370   19.1190 O.co2  67  GLU67      -0.2457
     67  N         -6.9120  -30.7190   15.1070 N.3    71  LEU71      -0.1245
     68  CA        -6.8500  -30.0000   13.8320 C.3    71  LEU71       0.1561
     69  C         -6.3030  -30.8720   12.6940 C.2    71  LEU71       0.2260
     70  O         -6.8830  -30.8970   11.6010 O.2    71  LEU71      -0.2867
     71  CB        -6.0430  -28.7030   13.9780 C.3    71  LEU71       0.0270
     72  CG        -6.7610  -27.5880   14.7560 C.3    71  LEU71       0.0019
     73  CD1       -5.7580  -26.6210   15.3760 C.3    71  LEU71       0.0001
     74  CD2       -7.7890  -26.8510   13.8910 C.3    71  LEU71       0.0001
     75  N        -12.0180  -23.9240   11.0770 N.3    86  VAL86      -0.1245
     76  CA       -10.8310  -23.1260   10.8240 C.3    86  VAL86       0.1561
     77  C         -9.7010  -24.0330   10.2820 C.2    86  VAL86       0.2260
     78  O         -9.4390  -25.1150   10.8140 O.2    86  VAL86      -0.2867
     79  CB       -10.4370  -22.2490   12.0650 C.3    86  VAL86       0.0252
     80  CG1       -9.7820  -23.0770   13.1690 C.3    86  VAL86       0.0019
     81  CG2       -9.5600  -21.0790   11.6510 C.3    86  VAL86       0.0019
     82  N         -3.0690  -20.4430   10.8650 N.3   102  PHE102     -0.1227
     83  CA        -4.4110  -20.5900   10.3580 C.3   102  PHE102      0.1736
     84  C         -4.6500  -19.6540    9.1930 C.2   102  PHE102      0.2595
     85  O         -3.9560  -18.6550    9.0360 O.2   102  PHE102     -0.2718
     86  CB        -5.4180  -20.2060   11.4450 C.3   102  PHE102      0.0547
     87  CG        -5.4840  -21.1590   12.5900 C.ar  102  PHE102     -0.0202
     88  CD1       -6.1880  -22.3570   12.4740 C.ar  102  PHE102     -0.0042
     89  CD2       -4.8860  -20.8360   13.8080 C.ar  102  PHE102     -0.0042
     90  CE1       -6.2780  -23.2320   13.5510 C.ar  102  PHE102     -0.0003
     91  CE2       -4.9730  -21.6990   14.8830 C.ar  102  PHE102     -0.0003
     92  CZ        -5.6740  -22.9080   14.7510 C.ar  102  PHE102     -0.0000
     93  N         -5.6700  -19.9560    8.4040 N.am  103  GLU103     -0.1965
     94  CA        -6.1310  -19.0310    7.3970 C.3   103  GLU103      0.1733
     95  C         -6.5730  -17.7430    8.1010 C.2   103  GLU103      0.2616
     96  O         -7.0670  -17.7830    9.2300 O.2   103  GLU103     -0.2715
     97  CB        -7.2980  -19.6480    6.6330 C.3   103  GLU103      0.0429
     98  CG        -8.5810  -19.7760    7.4610 C.3   103  GLU103      0.1163
     99  CD        -9.6480  -20.6000    6.7650 C.2   103  GLU103      0.3649
    100  OE1       -9.8310  -20.4180    5.5340 O.co2 103  GLU103     -0.2457
    101  OE2      -10.2880  -21.4260    7.4520 O.co2 103  GLU103     -0.2457
    102  N         -6.3740  -16.6100    7.4440 N.am  104  LEU104     -0.1963
    103  CA        -6.7770  -15.3300    7.9910 C.3   104  LEU104      0.1728
    104  C         -8.2290  -15.0270    7.6280 C.2   104  LEU104      0.2616
    105  O         -8.6090  -15.0780    6.4600 O.2   104  LEU104     -0.2715
    106  CB        -5.8680  -14.2130    7.4820 C.3   104  LEU104      0.0311
    107  CG        -6.1890  -12.8210    8.0510 C.3   104  LEU104      0.0022
    108  CD1       -5.7180  -12.6950    9.4980 C.3   104  LEU104      0.0001
    109  CD2       -5.6110  -11.6990    7.1660 C.3   104  LEU104      0.0001
    110  N         -9.0270  -14.7120    8.6470 N.am  105  LEU105     -0.1963
    111  CA       -10.4610  -14.4310    8.5010 C.3   105  LEU105      0.1728
    112  C        -10.7170  -13.0480    9.0780 C.2   105  LEU105      0.2616
    113  O         -9.7800  -12.3750    9.5040 O.2   105  LEU105     -0.2715
    114  CB       -11.2700  -15.4970    9.2560 C.3   105  LEU105      0.0311
    115  CG       -10.9180  -16.9400    8.8660 C.3   105  LEU105      0.0022
    116  CD1      -11.4390  -17.9500    9.8630 C.3   105  LEU105      0.0001
    117  CD2      -11.4220  -17.2660    7.4870 C.3   105  LEU105      0.0001
    118  N        -11.9730  -12.6230    9.1140 N.am  106  GLY106     -0.1955
    119  CA       -12.3120  -11.3120    9.6600 C.3   106  GLY106      0.1869
    120  C        -12.5780  -11.3350   11.1580 C.2   106  GLY106      0.2309
    121  O        -12.0040  -12.1450   11.9010 O.2   106  GLY106     -0.2863
    122  N        -14.5410  -11.9140   14.7150 N.3   108  ASN108     -0.1240
    123  CA       -15.4210  -12.9580   15.2640 C.3   108  ASN108      0.1653
    124  C        -16.8240  -12.3860   15.5230 C.2   108  ASN108      0.2266
    125  O        -16.9990  -11.1590   15.5570 O.2   108  ASN108     -0.2867
    126  CB       -14.8160  -13.6590   16.5030 C.3   108  ASN108      0.1155
    127  CG       -14.7720  -12.7730   17.7340 C.2   108  ASN108      0.2627
    128  OD1      -15.8010  -12.2530   18.1860 O.2   108  ASN108     -0.2716
    129  ND2      -13.5810  -12.6210   18.3110 N.am  108  ASN108     -0.0877
    130  N        -17.2590   -9.8590   18.3100 N.3   111  GLU111     -0.1245
    131  CA       -16.6390   -8.5510   18.1330 C.3   111  GLU111      0.1567
    132  C        -17.4250   -7.6720   17.1650 C.2   111  GLU111      0.2260
    133  O        -17.5390   -6.4780   17.3850 O.2   111  GLU111     -0.2867
    134  CB       -15.1670   -8.6590   17.7360 C.3   111  GLU111      0.0388
    135  CG       -14.4110   -7.3240   17.8480 C.3   111  GLU111      0.1160
    136  CD       -14.2270   -6.8440   19.2880 C.2   111  GLU111      0.3649
    137  OE1      -14.3980   -7.6520   20.2330 O.co2 111  GLU111     -0.2457
    138  OE2      -13.8930   -5.6550   19.4770 O.co2 111  GLU111     -0.2457
    139  N        -17.4560  -15.5880   20.3570 N.3   153  GLU153     -0.1245
    140  CA       -16.0060  -15.3260   20.2260 C.3   153  GLU153      0.1567
    141  C        -15.2400  -16.3500   19.3720 C.2   153  GLU153      0.2260
    142  O        -14.2430  -16.0060   18.7250 O.2   153  GLU153     -0.2867
    143  CB       -15.3590  -15.3250   21.6060 C.3   153  GLU153      0.0388
    144  CG       -15.2520  -13.9640   22.2750 C.3   153  GLU153      0.1160
    145  CD       -13.9830  -13.8700   23.1220 C.2   153  GLU153      0.3649
    146  OE1      -13.9770  -14.3620   24.2770 O.co2 153  GLU153     -0.2457
    147  OE2      -12.9780  -13.3210   22.6140 O.co2 153  GLU153     -0.2457
    148  N        -15.9770  -17.1930   13.6540 N.3   156  LEU156     -0.1245
    149  CA       -15.3600  -16.1410   12.8630 C.3   156  LEU156      0.1561
    150  C        -16.0440  -15.9380   11.5170 C.2   156  LEU156      0.2260
    151  O        -16.3700  -16.9070   10.8220 O.2   156  LEU156     -0.2867
    152  CB       -13.8850  -16.4610   12.6250 C.3   156  LEU156      0.0270
    153  CG       -12.9650  -16.4110   13.8530 C.3   156  LEU156      0.0019
    154  CD1      -11.7710  -17.3230   13.6000 C.3   156  LEU156      0.0001
    155  CD2      -12.5090  -14.9890   14.1030 C.3   156  LEU156      0.0001
    156  N        -14.0020  -21.8850   15.2020 N.3   185  ALA185     -0.1231
    157  CA       -12.6230  -21.8170   15.6710 C.3   185  ALA185      0.1694
    158  C        -12.4280  -22.3430   17.1140 C.2   185  ALA185      0.2592
    159  O        -13.3880  -22.7440   17.7930 O.2   185  ALA185     -0.2718
    160  CB       -12.1210  -20.4020   15.5580 C.3   185  ALA185      0.0304
    161  N        -11.1680  -22.3330   17.5430 N.am  186  ASP186     -0.1960
    162  CA       -10.7180  -22.6990   18.8960 C.3   186  ASP186      0.1840
    163  C        -11.0310  -24.1250   19.3270 C.2   186  ASP186      0.2622
    164  O        -11.9700  -24.3900   20.0940 O.2   186  ASP186     -0.2715
    165  CB       -11.1200  -21.6690   19.9680 C.3   186  ASP186      0.1450
    166  CG       -10.3680  -21.8790   21.2840 C.2   186  ASP186      0.3671
    167  OD1       -9.4750  -22.7500   21.3490 O.co2 186  ASP186     -0.2456
    168  OD2      -10.6720  -21.1910   22.2680 O.co2 186  ASP186     -0.2456
    169  N        -10.1920  -25.0350   18.8460 N.am  187  PHE187     -0.1974
    170  CA       -10.3470  -26.4620   19.1030 C.3   187  PHE187      0.1639
    171  C         -9.4880  -26.9680   20.2720 C.2   187  PHE187      0.2290
    172  O         -9.3290  -28.1730   20.4640 O.2   187  PHE187     -0.2864
    173  CB       -10.1090  -27.2330   17.8050 C.3   187  PHE187      0.0560
    174  CG       -11.2490  -27.1100   16.8300 C.ar  187  PHE187     -0.0200
    175  CD1      -12.2270  -28.0840   16.7680 C.ar  187  PHE187     -0.0042
    176  CD2      -11.3630  -25.9900   16.0080 C.ar  187  PHE187     -0.0042
    177  CE1      -13.2940  -27.9620   15.8950 C.ar  187  PHE187     -0.0003
    178  CE2      -12.4230  -25.8550   15.1310 C.ar  187  PHE187     -0.0003
    179  CZ       -13.3970  -26.8490   15.0710 C.ar  187  PHE187     -0.0000
@<TRIPOS>BOND
     1   100    99   ar
     2   105   104    2
     3    97    94    1
     4    97    98    1
     5    99   101   ar
     6    99    98    1
     7   109   107    1
     8    94    95    1
     9    94    93    1
    10   102   103    1
    11   102    95   am
    12   106   103    1
    13   106   107    1
    14   117   115    1
    15   104   103    1
    16   104   110   am
    17   107   108    1
    18    95    96    2
    19    93    84   am
    20   111   110    1
    21   111   112    1
    22   111   114    1
    23   115   114    1
    24   115   116    1
    25    85    84    2
    26   112   118   am
    27   112   113    2
    28   118   119    1
    29    84    83    1
    30   119   120    1
    31    44    45    1
    32    77    78    2
    33    77    76    1
    34    83    82    1
    35    83    86    1
    36   151   150    2
    37    76    75    1
    38    76    79    1
    39   120   121    2
    40    86    87    1
    41    45    48    1
    42    45    46    1
    43   150   149    1
    44    70    69    2
    45    81    79    1
    46    79    80    1
    47    47    46    2
    48    88    87   ar
    49    88    90   ar
    50    87    89   ar
    51   152   149    1
    52   152   153    1
    53    69    68    1
    54   149   148    1
    55     8     6    1
    56     7     6    1
    57    90    92   ar
    58   154   153    1
    59     6     5    1
    60    89    91   ar
    61    68    71    1
    62    68    67    1
    63   153   155    1
    64    74    72    1
    65    71    72    1
    66   122   123    1
    67    92    91   ar
    68    72    73    1
    69   179   178   ar
    70   179   177   ar
    71   178   176   ar
    72     5     2    1
    73   156   157    1
    74   123   124    1
    75   123   126    1
    76   124   125    2
    77   160   157    1
    78   157   158    1
    79    49    50    1
    80   177   175   ar
    81   176   174   ar
    82     2     1    1
    83     2     3    1
    84    42    41    1
    85   126   127    1
    86   175   174   ar
    87   174   173    1
    88    39    40    2
    89    39    38    1
    90   158   161   am
    91   158   159    2
    92   132   133    2
    93   132   131    1
    94    50    53    1
    95    50    51    1
    96    53    54    1
    97     3     4    2
    98     3     9   am
    99    61    60    2
   100    52    51    2
   101   161   162    1
   102    41    38    1
   103    41    43    1
   104   127   128    2
   105   127   129   am
   106   134   135    1
   107   134   131    1
   108   173   170    1
   109   135   136    1
   110    38    37    1
   111   131   130    1
   112    60    59    1
   113     9    10    1
   114   142   141    2
   115    54    55    1
   116    55    56    1
   117   169   170    1
   118   169   163   am
   119   162   163    1
   120   162   165    1
   121   170   171    1
   122    66    64   ar
   123   136   138   ar
   124   136   137   ar
   125   163   164    2
   126   141   140    1
   127    63    64    1
   128    63    62    1
   129    10    11    1
   130    57    56    1
   131    59    62    1
   132    59    58    1
   133    64    65   ar
   134   165   166    1
   135   140   139    1
   136   140   143    1
   137   171   172    2
   138    12    11    2
   139    11    13   am
   140   166   167   ar
   141   166   168   ar
   142   143   144    1
   143    13    14    1
   144    36    34   ar
   145    36    35   ar
   146    34    32   ar
   147   144   145    1
   148   147   145   ar
   149    21    19   ar
   150    14    17    1
   151    14    15    1
   152   145   146   ar
   153    35    33   ar
   154    18    19    1
   155    18    17    1
   156    32    31   ar
   157    19    20   ar
   158    16    15    2
   159    15    22   am
   160    33    31   ar
   161    31    30    1
   162    22    23    1
   163    30    27    1
   164    23    24    1
   165    28    29    2
   166    28    27    1
   167    27    26    1
   168    24    25    2
