@<TRIPOS>MOLECULE
tmp/6fyqA00.pdb
 124 119 0 0 0
SMALL
GASTEIGER

@<TRIPOS>ATOM
      1  N         34.0320    1.1100    1.5500 N.3    15  PHE15      -0.1241
      2  CA        33.6220    2.2370    0.6930 C.3    15  PHE15       0.1605
      3  C         34.2930    2.1930   -0.6890 C.2    15  PHE15       0.2264
      4  O         34.9300    3.1520   -1.1520 O.2    15  PHE15      -0.2867
      5  CB        33.8970    3.5660    1.3980 C.3    15  PHE15       0.0534
      6  CG        33.0310    3.7820    2.6260 C.ar   15  PHE15      -0.0203
      7  CD1       31.6490    3.8820    2.5090 C.ar   15  PHE15      -0.0042
      8  CD2       33.5920    3.8720    3.8830 C.ar   15  PHE15      -0.0042
      9  CE1       30.8370    4.0730    3.6410 C.ar   15  PHE15      -0.0003
     10  CE2       32.7940    4.0520    5.0040 C.ar   15  PHE15      -0.0003
     11  CZ        31.4160    4.1510    4.8890 C.ar   15  PHE15      -0.0000
     12  N         41.5860   12.3370    5.8680 N.3    54  TRP54      -0.1241
     13  CA        41.4970   13.4530    6.8020 C.3    54  TRP54       0.1605
     14  C         42.2020   13.1280    8.1120 C.2    54  TRP54       0.2264
     15  O         41.8090   13.6120    9.1760 O.2    54  TRP54      -0.2867
     16  CB        40.0260   13.8370    7.0520 C.3    54  TRP54       0.0550
     17  CG        39.3850   14.4770    5.8210 C.ar   54  TRP54       0.0003
     18  CD1       39.4040   15.8270    5.4650 C.ar   54  TRP54       0.0946
     19  CD2       38.6510   13.8130    4.8060 C.ar   54  TRP54       0.0152
     20  NE1       38.7300   16.0160    4.2840 N.ar   54  TRP54      -0.2442
     21  CE2       38.2550   14.7950    3.8590 C.ar   54  TRP54       0.0810
     22  CE3       38.2550   12.4820    4.6150 C.ar   54  TRP54       0.0012
     23  CZ2       37.4910   14.4760    2.7340 C.ar   54  TRP54       0.0191
     24  CZ3       37.5350   12.1680    3.4970 C.ar   54  TRP54       0.0001
     25  CH2       37.1450   13.1580    2.5700 C.ar   54  TRP54       0.0015
     26  N         38.2030    4.1870   17.0740 N.3   113  GLY113     -0.1210
     27  CA        37.8360    4.8010   15.8110 C.3   113  GLY113      0.1956
     28  C         36.6470    5.7370   15.9810 C.2   113  GLY113      0.2612
     29  O         36.1120    5.8920   17.0710 O.2   113  GLY113     -0.2717
     30  N         36.2510    6.3560   14.8680 N.am  114  GLY114     -0.1942
     31  CA        35.2280    7.3960   14.9370 C.3   114  GLY114      0.2014
     32  C         33.8360    6.8160   15.1220 C.2   114  GLY114      0.2639
     33  O         33.0470    7.3230   15.9170 O.2   114  GLY114     -0.2714
     34  N         33.5240    5.7410   14.3780 N.am  115  SER115     -0.1949
     35  CA        32.2350    5.0810   14.5380 C.3   115  SER115      0.1924
     36  C         32.0770    4.5480   15.9460 C.2   115  SER115      0.2314
     37  O         30.9980    4.6900   16.5480 O.2   115  SER115     -0.2863
     38  CB        32.0650    3.9540   13.5060 C.3   115  SER115      0.2116
     39  OG        32.1510    4.4550   12.1790 O.3   115  SER115     -0.2180
     40  N         31.3050    7.4930   18.2600 N.3   118  ASN118     -0.1240
     41  CA        29.9540    8.0600   18.1880 C.3   118  ASN118      0.1653
     42  C         28.9050    7.0720   18.6820 C.2   118  ASN118      0.2266
     43  O         27.9130    7.4740   19.2970 O.2   118  ASN118     -0.2867
     44  CB        29.6530    8.5160   16.7600 C.3   118  ASN118      0.1155
     45  CG        30.3670    9.8380   16.4440 C.2   118  ASN118      0.2627
     46  OD1       30.5830   10.6400   17.3530 O.2   118  ASN118     -0.2716
     47  ND2       30.7720   10.0390   15.1860 N.am  118  ASN118     -0.0877
     48  N         27.9780   13.2160    8.5630 N.3   147  TYR147     -0.1227
     49  CA        28.5570   11.8730    8.5590 C.3   147  TYR147      0.1736
     50  C         29.1440   11.6390    9.9350 C.2   147  TYR147      0.2595
     51  O         30.0120   12.4000   10.3740 O.2   147  TYR147     -0.2718
     52  CB        29.6440   11.6790    7.4960 C.3   147  TYR147      0.0548
     53  CG        30.1870   10.2350    7.5120 C.ar  147  TYR147     -0.0200
     54  CD1       29.3420    9.1620    7.1830 C.ar  147  TYR147     -0.0009
     55  CD2       31.5000    9.9510    7.8700 C.ar  147  TYR147     -0.0009
     56  CE1       29.7950    7.8380    7.2240 C.ar  147  TYR147      0.0417
     57  CE2       31.9850    8.6020    7.8950 C.ar  147  TYR147      0.0417
     58  CZ        31.1080    7.5640    7.5650 C.ar  147  TYR147      0.1957
     59  OH        31.5060    6.2350    7.5860 O.3   147  TYR147     -0.2866
     60  N         28.6950   10.5700   10.5880 N.am  148  HIS148     -0.1961
     61  CA        29.1340   10.2310   11.9370 C.3   148  HIS148      0.1787
     62  C         29.6430    8.7920   12.0590 C.2   148  HIS148      0.2620
     63  O         29.8530    8.3320   13.1800 O.2   148  HIS148     -0.2715
     64  CB        27.9800   10.4750   12.9160 C.3   148  HIS148      0.0785
     65  CG        27.5730   11.9250   13.0150 C.ar  148  HIS148      0.0821
     66  ND1       28.3560   12.8760   13.6350 N.ar  148  HIS148     -0.2267
     67  CD2       26.4630   12.5800   12.5750 C.ar  148  HIS148      0.1154
     68  CE1       27.7390   14.0520   13.5920 C.ar  148  HIS148      0.1986
     69  NE2       26.5950   13.9040   12.9400 N.ar  148  HIS148     -0.2212
     70  N         29.8420    8.0890   10.9530 N.am  149  GLY149     -0.1954
     71  CA        30.3260    6.7100   10.9440 C.3   149  GLY149      0.1869
     72  C         29.2240    5.7120   10.5920 C.2   149  GLY149      0.2309
     73  O         28.0880    6.0770   10.2750 O.2   149  GLY149     -0.2863
     74  N         28.8470   17.9760   13.4460 N.3   210  GLU210     -0.1245
     75  CA        30.2630   18.2130   13.1310 C.3   210  GLU210      0.1567
     76  C         30.4950   19.7190   13.1330 C.2   210  GLU210      0.2260
     77  O         29.6550   20.4490   12.6240 O.2   210  GLU210     -0.2867
     78  CB        30.6170   17.6770   11.7550 C.3   210  GLU210      0.0388
     79  CG        30.4120   16.2080   11.5670 C.3   210  GLU210      0.1160
     80  CD        30.2110   15.8950   10.1000 C.2   210  GLU210      0.3649
     81  OE1       31.2210   15.7970    9.3790 O.co2 210  GLU210     -0.2457
     82  OE2       29.0400   15.8190    9.6720 O.co2 210  GLU210     -0.2457
     83  N         32.4010   14.9700    5.2910 N.3   215  ALA215     -0.1245
     84  CA        31.8980   14.1900    4.1610 C.3   215  ALA215      0.1562
     85  C         30.7740   14.9010    3.4190 C.2   215  ALA215      0.2260
     86  O         30.5070   14.5900    2.2510 O.2   215  ALA215     -0.2867
     87  CB        31.3850   12.8360    4.6440 C.3   215  ALA215      0.0290
     88  N         31.0630   16.3890   17.0860 N.3   243  ASP243     -0.1239
     89  CA        31.8340   15.3200   16.4250 C.3   243  ASP243      0.1674
     90  C         33.0940   15.9330   15.8400 C.2   243  ASP243      0.2266
     91  O         33.0630   16.4580   14.7290 O.2   243  ASP243     -0.2867
     92  CB        31.0180   14.6510   15.3210 C.3   243  ASP243      0.1410
     93  CG        31.7570   13.4680   14.6680 C.2   243  ASP243      0.3668
     94  OD1       32.9950   13.4660   14.7250 O.co2 243  ASP243     -0.2456
     95  OD2       31.0830   12.5820   14.0660 O.co2 243  ASP243     -0.2456
     96  N         35.7480   14.2620   14.8800 N.3   245  VAL245     -0.1231
     97  CA        36.5510   13.1970   14.2780 C.3   245  VAL245      0.1692
     98  C         37.4010   13.7280   13.1380 C.2   245  VAL245      0.2591
     99  O         38.5960   13.4040   13.0290 O.2   245  VAL245     -0.2718
    100  CB        35.6350   12.0470   13.8030 C.3   245  VAL245      0.0266
    101  CG1       36.4160   11.1320   12.8650 C.3   245  VAL245      0.0020
    102  CG2       35.1650   11.3000   15.0030 C.3   245  VAL245      0.0020
    103  N         36.8310   14.5550   12.2660 N.am  246  ILE246     -0.1980
    104  CA        37.7060   15.1780   11.2650 C.3   246  ILE246      0.1595
    105  C         38.3710   16.4380   11.8060 C.2   246  ILE246      0.2287
    106  O         39.5860   16.6330   11.6230 O.2   246  ILE246     -0.2864
    107  CB        36.9470   15.4650    9.9520 C.3   246  ILE246      0.0276
    108  CG1       36.8680   14.1790    9.1220 C.3   246  ILE246      0.0022
    109  CG2       37.6710   16.5900    9.1680 C.3   246  ILE246      0.0022
    110  CD1       35.8450   14.2020    7.9710 C.3   246  ILE246      0.0001
    111  N         38.8130   11.0150   16.7160 N.3   271  ALA271     -0.1231
    112  CA        39.5590    9.8510   16.2220 C.3   271  ALA271      0.1694
    113  C         40.6280   10.3620   15.2710 C.2   271  ALA271      0.2591
    114  O         41.2680   11.3790   15.5420 O.2   271  ALA271     -0.2718
    115  CB        38.6210    8.8240   15.5240 C.3   271  ALA271      0.0304
    116  N         40.7980    9.6790   14.1400 N.am  272  LYS272     -0.1980
    117  CA        41.6380   10.1300   13.0340 C.3   272  LYS272      0.1596
    118  C         42.9380   10.8190   13.4580 C.2   272  LYS272      0.2287
    119  O         43.9340   10.1390   13.7580 O.2   272  LYS272     -0.2864
    120  CB        40.8100   11.0370   12.1080 C.3   272  LYS272      0.0298
    121  CG        39.7530   10.2410   11.2920 C.3   272  LYS272      0.0038
    122  CD        39.0370   11.1750   10.2880 C.3   272  LYS272      0.0206
    123  CE        37.9280   10.4410    9.5090 C.3   272  LYS272      0.1093
    124  NZ        38.4790    9.4820    8.4930 N.3   272  LYS272     -0.1314
@<TRIPOS>BOND
     1     4     3    2
     2     3     2    1
     3     2     5    1
     4     2     1    1
     5     5     6    1
     6    86    85    2
     7     7     6   ar
     8     7     9   ar
     9    25    23   ar
    10    25    24   ar
    11     6     8   ar
    12    23    21   ar
    13    85    84    1
    14    24    22   ar
    15     9    11   ar
    16    21    20   ar
    17    21    19   ar
    18     8    10   ar
    19    84    87    1
    20    84    83    1
    21    20    18   ar
    22    22    19   ar
    23    19    17   ar
    24    11    10   ar
    25    18    17   ar
    26    17    16    1
    27    12    13    1
    28    13    16    1
    29    13    14    1
    30    54    56   ar
    31    54    53   ar
    32    56    58   ar
    33    52    53    1
    34    52    49    1
    35    53    55   ar
    36    58    59    1
    37    58    57   ar
    38    55    57   ar
    39   110   108    1
    40    14    15    2
    41   124   123    1
    42    49    48    1
    43    49    50    1
    44   108   107    1
    45   109   107    1
    46    81    80   ar
    47   123   122    1
    48    82    80   ar
    49    50    51    2
    50    50    60   am
    51   107   104    1
    52    80    79    1
    53    73    72    2
    54   122   121    1
    55    60    61    1
    56    72    71    1
    57    71    70    1
    58    70    62   am
    59   104   105    1
    60   104   103    1
    61   121   120    1
    62    79    78    1
    63   106   105    2
    64    78    75    1
    65    61    62    1
    66    61    64    1
    67    62    63    2
    68   120   117    1
    69    39    38    1
    70   103    98   am
    71    67    69   ar
    72    67    65   ar
    73    77    76    2
    74   101   100    1
    75    64    65    1
    76    69    68   ar
    77    65    66   ar
    78    99    98    2
    79   117   118    1
    80   117   116    1
    81    75    76    1
    82    75    74    1
    83    98    97    1
    84   118   119    2
    85    38    35    1
    86    68    66   ar
    87   100    97    1
    88   100   102    1
    89    95    93   ar
    90   116   113   am
    91    97    96    1
    92    34    35    1
    93    34    32   am
    94    35    36    1
    95    93    94   ar
    96    93    92    1
    97    91    90    2
    98    30    31    1
    99    30    28   am
   100    31    32    1
   101    32    33    2
   102    47    45   am
   103   113   114    2
   104   113   112    1
   105    92    89    1
   106   115   112    1
   107    27    28    1
   108    27    26    1
   109    90    89    1
   110    36    37    2
   111    28    29    2
   112   112   111    1
   113    89    88    1
   114    45    44    1
   115    45    46    2
   116    44    41    1
   117    41    40    1
   118    41    42    1
   119    42    43    2
