@<TRIPOS>MOLECULE
tmp/6fyrA00.pdb
 141 132 0 0 0
SMALL
GASTEIGER

@<TRIPOS>ATOM
      1  N        -12.2250   10.9420   40.9850 N.3    35  LEU35      -0.1245
      2  CA       -11.8190   11.2650   39.6220 C.3    35  LEU35       0.1561
      3  C        -12.5300   10.4210   38.5780 C.2    35  LEU35       0.2260
      4  O        -12.7480   10.8690   37.4550 O.2    35  LEU35      -0.2867
      5  CB       -10.2990   11.1690   39.4690 C.3    35  LEU35       0.0270
      6  CG        -9.4940   12.1850   40.2870 C.3    35  LEU35       0.0019
      7  CD1       -8.0110   11.8830   40.1680 C.3    35  LEU35       0.0001
      8  CD2       -9.7930   13.6320   39.8650 C.3    35  LEU35       0.0001
      9  N        -10.6620    5.5980   40.8540 N.3    43  VAL43      -0.1245
     10  CA        -9.5600    6.5560   40.8140 C.3    43  VAL43       0.1561
     11  C         -9.9450    7.7430   41.6920 C.2    43  VAL43       0.2260
     12  O        -10.9950    8.3690   41.4980 O.2    43  VAL43      -0.2867
     13  CB        -9.2300    7.0300   39.3700 C.3    43  VAL43       0.0252
     14  CG1       -7.9790    7.8910   39.3610 C.3    43  VAL43       0.0019
     15  CG2       -9.0370    5.8430   38.4250 C.3    43  VAL43       0.0019
     16  N         -8.6230   11.4350   43.8130 N.3    45  GLU45      -0.1245
     17  CA        -7.6120   12.4650   44.0250 C.3    45  GLU45       0.1567
     18  C         -7.1690   12.4120   45.4800 C.2    45  GLU45       0.2260
     19  O         -8.0060   12.3780   46.3810 O.2    45  GLU45      -0.2867
     20  CB        -8.1280   13.8660   43.6840 C.3    45  GLU45       0.0388
     21  CG        -7.0450   14.9440   43.8470 C.3    45  GLU45       0.1160
     22  CD        -7.5210   16.3620   43.5680 C.2    45  GLU45       0.3649
     23  OE1       -8.5280   16.5330   42.8560 O.co2  45  GLU45      -0.2457
     24  OE2       -6.8690   17.3120   44.0540 O.co2  45  GLU45      -0.2457
     25  N         -3.3550   11.3990   41.4100 N.3    57  ALA57      -0.1245
     26  CA        -4.4600   10.5260   41.0600 C.3    57  ALA57       0.1562
     27  C         -4.0560    9.1370   41.5110 C.2    57  ALA57       0.2260
     28  O         -2.9790    8.6500   41.1270 O.2    57  ALA57      -0.2867
     29  CB        -4.6950   10.5510   39.5720 C.3    57  ALA57       0.0290
     30  N         -5.1730    5.2030   41.6300 N.3    59  LYS59      -0.1245
     31  CA        -6.0170    4.1180   41.1520 C.3    59  LYS59       0.1561
     32  C         -6.0250    3.0310   42.2190 C.2    59  LYS59       0.2260
     33  O         -4.9680    2.5250   42.5900 O.2    59  LYS59      -0.2867
     34  CB        -5.4610    3.5880   39.8210 C.3    59  LYS59       0.0271
     35  CG        -6.3660    2.6430   39.0340 C.3    59  LYS59       0.0035
     36  CD        -5.6490    2.2080   37.7510 C.3    59  LYS59       0.0206
     37  CE        -6.5420    1.3670   36.8680 C.3    59  LYS59       0.1093
     38  NZ        -5.7940    0.8990   35.6810 N.3    59  LYS59      -0.1314
     39  N          0.3140   -3.8300   34.5290 N.3    74  GLU74      -0.1245
     40  CA         0.3040   -2.3890   34.3180 C.3    74  GLU74       0.1567
     41  C          1.4780   -1.7270   35.0540 C.2    74  GLU74       0.2260
     42  O          2.1870   -0.9010   34.4860 O.2    74  GLU74      -0.2867
     43  CB        -1.0250   -1.7850   34.7780 C.3    74  GLU74       0.0388
     44  CG        -1.0940   -0.2750   34.6350 C.3    74  GLU74       0.1160
     45  CD        -2.4450    0.3200   34.9980 C.2    74  GLU74       0.3649
     46  OE1       -3.3580   -0.4230   35.4290 O.co2  74  GLU74      -0.2457
     47  OE2       -2.5930    1.5540   34.8460 O.co2  74  GLU74      -0.2457
     48  N          2.4870    9.1010   31.2470 N.3    93  VAL93      -0.1245
     49  CA         2.2940    9.2800   32.6930 C.3    93  VAL93       0.1561
     50  C          3.3890    8.5920   33.5170 C.2    93  VAL93       0.2260
     51  O          3.7240    7.4270   33.2970 O.2    93  VAL93      -0.2867
     52  CB         0.8770    8.8460   33.1910 C.3    93  VAL93       0.0252
     53  CG1       -0.1780    9.7890   32.6760 C.3    93  VAL93       0.0019
     54  CG2        0.5490    7.4040   32.8050 C.3    93  VAL93       0.0019
     55  N         -0.2000    8.5900   40.4370 N.3   109  PHE109     -0.1227
     56  CA         0.3220    9.3910   39.3260 C.3   109  PHE109      0.1736
     57  C          0.2130   10.8590   39.7060 C.2   109  PHE109      0.2595
     58  O         -0.6850   11.2240   40.4580 O.2   109  PHE109     -0.2718
     59  CB        -0.5390    9.2070   38.0740 C.3   109  PHE109      0.0547
     60  CG        -0.7130    7.7860   37.6300 C.ar  109  PHE109     -0.0202
     61  CD1        0.1930    7.1990   36.7530 C.ar  109  PHE109     -0.0042
     62  CD2       -1.8100    7.0400   38.0560 C.ar  109  PHE109     -0.0042
     63  CE1        0.0140    5.8800   36.3250 C.ar  109  PHE109     -0.0003
     64  CE2       -1.9890    5.7230   37.6310 C.ar  109  PHE109     -0.0003
     65  CZ        -1.0720    5.1520   36.7640 C.ar  109  PHE109     -0.0000
     66  N          1.0780   11.7220   39.1710 N.am  110  GLU110     -0.1965
     67  CA         0.8590   13.1630   39.3510 C.3   110  GLU110      0.1733
     68  C         -0.4790   13.5400   38.7050 C.2   110  GLU110      0.2616
     69  O         -0.8610   13.0020   37.6600 O.2   110  GLU110     -0.2715
     70  CB         2.0210   14.0160   38.8110 C.3   110  GLU110      0.0429
     71  CG         1.9970   14.3210   37.3220 C.3   110  GLU110      0.1163
     72  CD         3.2640   15.0070   36.8180 C.2   110  GLU110      0.3649
     73  OE1        3.3280   15.3000   35.6010 O.co2 110  GLU110     -0.2457
     74  OE2        4.1950   15.2530   37.6220 O.co2 110  GLU110     -0.2457
     75  N         -1.2060   14.4320   39.3640 N.am  111  LEU111     -0.1963
     76  CA        -2.5320   14.8260   38.9150 C.3   111  LEU111      0.1728
     77  C         -2.4600   15.6770   37.6600 C.2   111  LEU111      0.2616
     78  O         -1.6900   16.6300   37.5890 O.2   111  LEU111     -0.2715
     79  CB        -3.2610   15.5860   40.0260 C.3   111  LEU111      0.0311
     80  CG        -4.7430   15.8590   39.7680 C.3   111  LEU111      0.0022
     81  CD1       -5.5460   14.5740   39.8410 C.3   111  LEU111      0.0001
     82  CD2       -5.2830   16.9010   40.7450 C.3   111  LEU111      0.0001
     83  N         -3.2860   15.3170   36.6790 N.am  112  LEU112     -0.1963
     84  CA        -3.3970   16.0600   35.4280 C.3   112  LEU112      0.1728
     85  C         -4.7790   16.6880   35.3320 C.2   112  LEU112      0.2617
     86  O         -5.5730   16.5920   36.2700 O.2   112  LEU112     -0.2715
     87  CB        -3.1280   15.1270   34.2400 C.3   112  LEU112      0.0311
     88  CG        -1.7510   14.4530   34.2350 C.3   112  LEU112      0.0022
     89  CD1       -1.7390   13.3160   33.2370 C.3   112  LEU112      0.0001
     90  CD2       -0.6420   15.4670   33.9350 C.3   112  LEU112      0.0001
     91  N         -5.0630   17.3420   34.2100 N.am  113  GLY113     -0.1940
     92  CA        -6.3550   17.9820   33.9970 C.3   113  GLY113      0.2014
     93  C         -7.3250   17.1340   33.1920 C.2   113  GLY113      0.2638
     94  O         -7.2210   15.9020   33.1710 O.2   113  GLY113     -0.2714
     95  N         -8.2780   17.7940   32.5320 N.am  114  LYS114     -0.1977
     96  CA        -9.2890   17.1000   31.7380 C.3   114  LYS114      0.1596
     97  C         -8.6580   16.3340   30.5860 C.2   114  LYS114      0.2287
     98  O         -7.6390   16.7510   30.0290 O.2   114  LYS114     -0.2864
     99  CB       -10.3140   18.0910   31.1760 C.3   114  LYS114      0.0298
    100  CG       -11.2110   18.7140   32.2180 C.3   114  LYS114      0.0038
    101  CD       -12.2150   19.6370   31.5560 C.3   114  LYS114      0.0206
    102  CE       -13.0390   20.3790   32.5820 C.3   114  LYS114      0.1093
    103  NZ       -13.9960   19.4900   33.2880 N.3   114  LYS114     -0.1314
    104  N         -4.5130   13.1750   28.2980 N.3   163  LEU163     -0.1245
    105  CA        -4.8900   14.1740   29.3030 C.3   163  LEU163      0.1561
    106  C         -4.0670   15.4480   29.1720 C.2   163  LEU163      0.2260
    107  O         -2.8490   15.3940   28.9670 O.2   163  LEU163     -0.2867
    108  CB        -4.7730   13.6020   30.7270 C.3   163  LEU163      0.0270
    109  CG        -5.9390   12.7400   31.2500 C.3   163  LEU163      0.0019
    110  CD1       -6.1610   11.4650   30.4340 C.3   163  LEU163      0.0001
    111  CD2       -5.7150   12.3770   32.7050 C.3   163  LEU163      0.0001
    112  N         -5.8960   21.9300   31.7590 N.3   167  SER167     -0.1217
    113  CA        -6.9760   22.0670   30.7910 C.3   167  SER167      0.1889
    114  C         -7.7020   23.4200   30.8490 C.2   167  SER167      0.2288
    115  O         -8.7650   23.5700   30.2640 O.2   167  SER167     -0.2866
    116  CB        -7.9550   20.8950   30.9190 C.3   167  SER167      0.2089
    117  OG        -8.2960   20.6560   32.2730 O.3   167  SER167     -0.2183
    118  N         -2.0620    8.4980   29.0150 N.3   192  ALA192     -0.1231
    119  CA        -2.4490    7.7870   30.2310 C.3   192  ALA192      0.1694
    120  C         -2.9940    6.3910   29.9480 C.2   192  ALA192      0.2592
    121  O         -3.1280    5.9750   28.7960 O.2   192  ALA192     -0.2718
    122  CB        -3.4880    8.5980   31.0060 C.3   192  ALA192      0.0304
    123  N         -3.3190    5.6890   31.0330 N.am  193  ASP193     -0.1960
    124  CA        -3.9420    4.3600   31.0110 C.3   193  ASP193      0.1840
    125  C         -3.1380    3.3020   30.2710 C.2   193  ASP193      0.2622
    126  O         -3.4770    2.8970   29.1540 O.2   193  ASP193     -0.2715
    127  CB        -5.3850    4.3880   30.4960 C.3   193  ASP193      0.1450
    128  CG        -6.0630    3.0420   30.6260 C.2   193  ASP193      0.3671
    129  OD1       -5.5640    2.1910   31.3960 O.co2 193  ASP193     -0.2456
    130  OD2       -7.0930    2.8200   29.9530 O.co2 193  ASP193     -0.2456
    131  N         -2.0910    2.8360   30.9370 N.am  194  PHE194     -0.1974
    132  CA        -1.2810    1.7280   30.4430 C.3   194  PHE194      0.1639
    133  C         -1.7940    0.3600   30.8900 C.2   194  PHE194      0.2290
    134  O         -1.0640   -0.6340   30.8330 O.2   194  PHE194     -0.2864
    135  CB         0.1930    1.9700   30.8150 C.3   194  PHE194      0.0560
    136  CG         0.7900    3.0820   30.0220 C.ar  194  PHE194     -0.0200
    137  CD1        1.4050    2.8120   28.8050 C.ar  194  PHE194     -0.0042
    138  CD2        0.6500    4.4110   30.4340 C.ar  194  PHE194     -0.0042
    139  CE1        1.9060    3.8320   28.0220 C.ar  194  PHE194     -0.0003
    140  CE2        1.1500    5.4530   29.6450 C.ar  194  PHE194     -0.0003
    141  CZ         1.7860    5.1550   28.4370 C.ar  194  PHE194     -0.0000
@<TRIPOS>BOND
     1   139   141   ar
     2   139   137   ar
     3   104   105    1
     4   141   140   ar
     5   121   120    2
     6   137   136   ar
     7   107   106    2
     8   118   119    1
     9   126   125    2
    10   106   105    1
    11   105   108    1
    12   140   138   ar
    13   120   119    1
    14   120   123   am
    15   130   128   ar
    16   136   138   ar
    17   136   135    1
    18    98    97    2
    19   119   122    1
    20   115   114    2
    21   125   131   am
    22   125   124    1
    23   110   109    1
    24   132   135    1
    25   132   133    1
    26   132   131    1
    27   127   128    1
    28   127   124    1
    29    97    96    1
    30   128   129   ar
    31   108   109    1
    32   113   114    1
    33   113   116    1
    34   113   112    1
    35   134   133    2
    36   116   117    1
    37   124   123    1
    38    99    96    1
    39    99   100    1
    40    48    49    1
    41   109   111    1
    42   101   100    1
    43   101   102    1
    44    96    95    1
    45    95    93   am
    46   102   103    1
    47    53    52    1
    48    49    52    1
    49    49    50    1
    50    54    52    1
    51    94    93    2
    52    93    92    1
    53    89    88    1
    54    51    50    2
    55    90    88    1
    56    92    91    1
    57    91    85   am
    58    88    87    1
    59    87    84    1
    60    40    39    1
    61    40    43    1
    62    40    41    1
    63    42    41    2
    64    44    43    1
    65    44    45    1
    66    47    45   ar
    67    45    46   ar
    68    85    84    1
    69    85    86    2
    70    84    83    1
    71    73    72   ar
    72    38    37    1
    73    63    61   ar
    74    63    65   ar
    75    83    77   am
    76    61    60   ar
    77    65    64   ar
    78    72    71    1
    79    72    74   ar
    80    37    36    1
    81    71    70    1
    82     4     3    2
    83    78    77    2
    84    60    62   ar
    85    60    59    1
    86    64    62   ar
    87    77    76    1
    88    69    68    2
    89    36    35    1
    90    59    56    1
    91    15    13    1
    92     3     2    1
    93    68    67    1
    94    68    75   am
    95    70    67    1
    96    76    75    1
    97    76    79    1
    98    35    34    1
    99    66    67    1
   100    66    57   am
   101    56    57    1
   102    56    55    1
   103    14    13    1
   104    13    10    1
   105     5     2    1
   106     5     6    1
   107    29    26    1
   108     2     1    1
   109    57    58    2
   110    80    81    1
   111    80    79    1
   112    80    82    1
   113    34    31    1
   114     8     6    1
   115     7     6    1
   116    10     9    1
   117    10    11    1
   118    26    25    1
   119    26    27    1
   120    28    27    2
   121    31    30    1
   122    31    32    1
   123    12    11    2
   124    32    33    2
   125    23    22   ar
   126    22    21    1
   127    22    24   ar
   128    20    21    1
   129    20    17    1
   130    16    17    1
   131    17    18    1
   132    18    19    2
