@<TRIPOS>MOLECULE
tmp/6fyvA00.pdb
 174 163 0 0 0
SMALL
GASTEIGER

@<TRIPOS>ATOM
      1  N        -37.2020   23.7570  -18.2520 N.3    18  LEU18      -0.1231
      2  CA       -36.2840   23.2140  -17.2520 C.3    18  LEU18       0.1693
      3  C        -35.4830   24.3110  -16.5530 C.2    18  LEU18       0.2593
      4  O        -34.8540   24.0670  -15.5180 O.2    18  LEU18      -0.2718
      5  CB       -35.3410   22.1860  -17.8840 C.3    18  LEU18       0.0284
      6  CG       -35.8450   20.7530  -18.0750 C.3    18  LEU18       0.0019
      7  CD1      -35.0030   20.0430  -19.1140 C.3    18  LEU18       0.0001
      8  CD2      -35.8390   19.9740  -16.7680 C.3    18  LEU18       0.0001
      9  N        -35.5060   25.5150  -17.1200 N.am   19  GLY19      -0.1942
     10  CA       -34.7920   26.6440  -16.5430 C.3    19  GLY19       0.2014
     11  C        -34.5750   27.8010  -17.4960 C.2    19  GLY19       0.2638
     12  O        -34.6920   27.6480  -18.7140 O.2    19  GLY19      -0.2714
     13  N        -34.2510   28.9620  -16.9290 N.am   20  GLU20      -0.1977
     14  CA       -34.0600   30.1900  -17.6990 C.3    20  GLU20       0.1602
     15  C        -32.7890   30.9290  -17.2840 C.2    20  GLU20       0.2287
     16  O        -32.2030   30.6400  -16.2380 O.2    20  GLU20      -0.2864
     17  CB       -35.2660   31.1190  -17.5310 C.3    20  GLU20       0.0415
     18  CG       -36.5860   30.5500  -18.0250 C.3    20  GLU20       0.1163
     19  CD       -37.7390   31.5120  -17.8340 C.2    20  GLU20       0.3649
     20  OE1      -37.6830   32.6300  -18.3910 O.co2  20  GLU20      -0.2457
     21  OE2      -38.7050   31.1440  -17.1320 O.co2  20  GLU20      -0.2457
     22  N        -29.2730   34.2320  -21.3740 N.3    23  PHE23      -0.1241
     23  CA       -29.1210   33.7190  -22.7400 C.3    23  PHE23       0.1605
     24  C        -30.4620   33.3820  -23.4030 C.2    23  PHE23       0.2264
     25  O        -30.6360   33.5830  -24.6060 O.2    23  PHE23      -0.2867
     26  CB       -28.2260   32.4690  -22.7340 C.3    23  PHE23       0.0534
     27  CG       -28.8330   31.2910  -22.0120 C.ar   23  PHE23      -0.0203
     28  CD1      -28.6820   31.1450  -20.6360 C.ar   23  PHE23      -0.0042
     29  CD2      -29.5670   30.3330  -22.7080 C.ar   23  PHE23      -0.0042
     30  CE1      -29.2520   30.0640  -19.9660 C.ar   23  PHE23      -0.0003
     31  CE2      -30.1440   29.2540  -22.0470 C.ar   23  PHE23      -0.0003
     32  CZ       -29.9840   29.1170  -20.6780 C.ar   23  PHE23      -0.0000
     33  N        -33.7540   26.6840  -21.3470 N.3    26  VAL26      -0.1245
     34  CA       -33.5200   25.2640  -21.6020 C.3    26  VAL26       0.1561
     35  C        -34.8160   24.5170  -21.3150 C.2    26  VAL26       0.2260
     36  O        -35.3390   24.5560  -20.1930 O.2    26  VAL26      -0.2867
     37  CB       -32.3610   24.6700  -20.7550 C.3    26  VAL26       0.0252
     38  CG1      -32.1640   23.1860  -21.0810 C.3    26  VAL26       0.0019
     39  CG2      -31.0660   25.4400  -20.9850 C.3    26  VAL26       0.0019
     40  N        -33.1580   17.6240  -23.7940 N.3    40  ALA40      -0.1245
     41  CA       -33.1470   19.0050  -23.3380 C.3    40  ALA40       0.1562
     42  C        -32.6740   19.8930  -24.4770 C.2    40  ALA40       0.2260
     43  O        -31.7240   19.5480  -25.1840 O.2    40  ALA40      -0.2867
     44  CB       -32.2380   19.1580  -22.1340 C.3    40  ALA40       0.0290
     45  N        -31.5120   23.8120  -25.4740 N.3    42  LYS42      -0.1245
     46  CA       -31.1160   25.1620  -25.1250 C.3    42  LYS42       0.1561
     47  C        -31.5130   26.0970  -26.2680 C.2    42  LYS42       0.2260
     48  O        -30.9400   26.0320  -27.3580 O.2    42  LYS42      -0.2867
     49  CB       -29.6090   25.1970  -24.8790 C.3    42  LYS42       0.0271
     50  CG       -29.0770   26.4250  -24.1550 C.3    42  LYS42       0.0035
     51  CD       -27.5840   26.2500  -23.9310 C.3    42  LYS42       0.0206
     52  CE       -26.9740   27.3440  -23.1010 C.3    42  LYS42       0.1093
     53  NZ       -25.5350   27.0280  -22.8480 N.3    42  LYS42      -0.1314
     54  N        -19.7120   28.2100  -28.4940 N.3    57  GLU57      -0.1245
     55  CA       -20.0960   27.0960  -27.6250 C.3    57  GLU57       0.1567
     56  C        -20.3010   25.8190  -28.4430 C.2    57  GLU57       0.2260
     57  O        -19.7950   24.7520  -28.0780 O.2    57  GLU57      -0.2867
     58  CB       -21.3620   27.4410  -26.8420 C.3    57  GLU57       0.0388
     59  CG       -21.8710   26.3300  -25.9240 C.3    57  GLU57       0.1160
     60  CD       -23.1890   26.6800  -25.2490 C.2    57  GLU57       0.3649
     61  OE1      -23.6170   27.8500  -25.3190 O.co2  57  GLU57      -0.2457
     62  OE2      -23.8040   25.7840  -24.6390 O.co2  57  GLU57      -0.2457
     63  N        -18.4000   22.2140  -28.0930 N.3    61  LEU61      -0.1245
     64  CA       -19.1530   20.9710  -27.9200 C.3    61  LEU61       0.1561
     65  C        -18.8630   19.9480  -29.0320 C.2    61  LEU61       0.2260
     66  O        -18.7420   18.7390  -28.7650 O.2    61  LEU61      -0.2867
     67  CB       -20.6530   21.2610  -27.8260 C.3    61  LEU61       0.0270
     68  CG       -21.1660   21.9220  -26.5400 C.3    61  LEU61       0.0019
     69  CD1      -22.4990   22.5980  -26.7950 C.3    61  LEU61       0.0001
     70  CD2      -21.2750   20.9110  -25.3890 C.3    61  LEU61       0.0001
     71  N        -21.2230   17.1260  -21.1490 N.3    76  VAL76      -0.1245
     72  CA       -22.5680   16.9120  -21.6890 C.3    76  VAL76       0.1561
     73  C        -22.5070   16.6210  -23.1950 C.2    76  VAL76       0.2260
     74  O        -21.6770   17.1820  -23.9120 O.2    76  VAL76      -0.2867
     75  CB       -23.5220   18.1020  -21.3540 C.3    76  VAL76       0.0252
     76  CG1      -23.0560   19.3900  -22.0090 C.3    76  VAL76       0.0019
     77  CG2      -24.9580   17.7830  -21.7310 C.3    76  VAL76       0.0019
     78  N        -29.4640   18.6290  -26.3310 N.3    92  PHE92      -0.1227
     79  CA       -28.6010   17.8760  -25.4240 C.3    92  PHE92       0.1736
     80  C        -29.2990   16.6150  -24.9260 C.2    92  PHE92       0.2595
     81  O        -30.5340   16.5370  -24.9320 O.2    92  PHE92      -0.2718
     82  CB       -28.2640   18.7190  -24.1880 C.3    92  PHE92       0.0547
     83  CG       -27.4270   19.9220  -24.4680 C.ar   92  PHE92      -0.0202
     84  CD1      -26.0520   19.8000  -24.6860 C.ar   92  PHE92      -0.0042
     85  CD2      -27.9980   21.1880  -24.4800 C.ar   92  PHE92      -0.0042
     86  CE1      -25.2630   20.9250  -24.9340 C.ar   92  PHE92      -0.0003
     87  CE2      -27.2080   22.3290  -24.7150 C.ar   92  PHE92      -0.0003
     88  CZ       -25.8400   22.1930  -24.9440 C.ar   92  PHE92      -0.0000
     89  N        -28.5080   15.6440  -24.4720 N.am   93  GLU93      -0.1965
     90  CA       -29.0230   14.5450  -23.6610 C.3    93  GLU93       0.1733
     91  C        -29.7870   15.1230  -22.4710 C.2    93  GLU93       0.2616
     92  O        -29.4460   16.2040  -21.9740 O.2    93  GLU93      -0.2715
     93  CB       -27.8770   13.6470  -23.1680 C.3    93  GLU93       0.0429
     94  CG       -26.7630   14.3680  -22.3720 C.3    93  GLU93       0.1163
     95  CD       -25.6340   13.4390  -21.9280 C.2    93  GLU93       0.3649
     96  OE1      -25.9070   12.2730  -21.5720 O.co2  93  GLU93      -0.2457
     97  OE2      -24.4650   13.8750  -21.9270 O.co2  93  GLU93      -0.2457
     98  N        -30.8270   14.4200  -22.0310 N.am   94  LEU94      -0.1963
     99  CA       -31.5880   14.8420  -20.8610 C.3    94  LEU94       0.1728
    100  C        -30.9000   14.3650  -19.5820 C.2    94  LEU94       0.2616
    101  O        -30.6160   13.1790  -19.4170 O.2    94  LEU94      -0.2715
    102  CB       -33.0370   14.3430  -20.9160 C.3    94  LEU94       0.0311
    103  CG       -33.9460   14.7830  -19.7590 C.3    94  LEU94       0.0022
    104  CD1      -34.2020   16.2900  -19.7700 C.3    94  LEU94       0.0001
    105  CD2      -35.2550   14.0250  -19.7960 C.3    94  LEU94       0.0001
    106  N        -30.6350   15.3110  -18.6880 N.am   95  LEU95      -0.1963
    107  CA       -29.9400   15.0410  -17.4450 C.3    95  LEU95       0.1728
    108  C        -30.8600   15.3790  -16.2850 C.2    95  LEU95       0.2616
    109  O        -31.9530   15.9080  -16.4890 O.2    95  LEU95      -0.2715
    110  CB       -28.6680   15.8910  -17.3720 C.3    95  LEU95       0.0311
    111  CG       -27.6060   15.6980  -18.4600 C.3    95  LEU95       0.0022
    112  CD1      -26.5440   16.7810  -18.3550 C.3    95  LEU95       0.0001
    113  CD2      -26.9710   14.3120  -18.3910 C.3    95  LEU95       0.0001
    114  N        -30.4130   15.0800  -15.0690 N.am   96  GLY96      -0.1955
    115  CA       -31.1800   15.3850  -13.8710 C.3    96  GLY96       0.1869
    116  C        -30.9520   16.7930  -13.3640 C.2    96  GLY96       0.2309
    117  O        -30.5170   17.6740  -14.1140 O.2    96  GLY96      -0.2863
    118  N        -29.3100   19.9190  -11.2220 N.3    98  SER98      -0.1217
    119  CA       -27.9580   20.3960  -10.9270 C.3    98  SER98       0.1889
    120  C        -27.6170   20.0770   -9.4770 C.2    98  SER98       0.2288
    121  O        -28.5180   19.9700   -8.6340 O.2    98  SER98      -0.2866
    122  CB       -27.8430   21.9000  -11.1660 C.3    98  SER98       0.2089
    123  OG       -28.5770   22.6400  -10.2040 O.3    98  SER98      -0.2183
    124  N        -29.2350   22.5780   -7.3430 N.3   101  ASP101     -0.1239
    125  CA       -30.6750   22.4290   -7.1540 C.3   101  ASP101      0.1674
    126  C        -31.0310   21.2710   -6.2340 C.2   101  ASP101      0.2266
    127  O        -32.0230   21.3470   -5.5060 O.2   101  ASP101     -0.2867
    128  CB       -31.4110   22.3060   -8.4940 C.3   101  ASP101      0.1410
    129  CG       -31.6460   23.6580   -9.1620 C.2   101  ASP101      0.3668
    130  OD1      -31.5210   24.7010   -8.4830 O.co2 101  ASP101     -0.2456
    131  OD2      -31.9540   23.6840  -10.3730 O.co2 101  ASP101     -0.2456
    132  N        -24.2620   24.9200  -10.1110 N.3   143  GLU143     -0.1245
    133  CA       -25.3260   24.9930  -11.1220 C.3   143  GLU143      0.1567
    134  C        -24.9320   24.3390  -12.4590 C.2   143  GLU143      0.2260
    135  O        -25.8070   23.9040  -13.2120 O.2   143  GLU143     -0.2867
    136  CB       -25.7460   26.4470  -11.3800 C.3   143  GLU143      0.0388
    137  CG       -26.4160   27.1530  -10.2050 C.3   143  GLU143      0.1160
    138  CD       -25.4450   27.8930   -9.2820 C.2   143  GLU143      0.3649
    139  OE1      -24.2400   27.5480   -9.2130 O.co2 143  GLU143     -0.2457
    140  OE2      -25.9040   28.8330   -8.6020 O.co2 143  GLU143     -0.2457
    141  N        -24.3070   18.7410  -13.1610 N.3   146  LEU146     -0.1245
    142  CA       -25.6340   18.1360  -13.1410 C.3   146  LEU146      0.1561
    143  C        -25.5720   16.6300  -12.9120 C.2   146  LEU146      0.2260
    144  O        -24.6660   15.9570  -13.3950 O.2   146  LEU146     -0.2867
    145  CB       -26.3560   18.4300  -14.4590 C.3   146  LEU146      0.0270
    146  CG       -27.2090   19.6920  -14.5390 C.3   146  LEU146      0.0019
    147  CD1      -26.3670   20.9400  -14.4100 C.3   146  LEU146      0.0001
    148  CD2      -27.9840   19.7050  -15.8390 C.3   146  LEU146      0.0001
    149  N        -21.7630   20.9260  -17.6740 N.3   172  VAL172     -0.1231
    150  CA       -22.4800   21.6220  -18.7420 C.3   172  VAL172      0.1692
    151  C        -21.9940   23.0580  -18.9160 C.2   172  VAL172      0.2592
    152  O        -21.1130   23.5300  -18.1730 O.2   172  VAL172     -0.2718
    153  CB       -24.0390   21.5860  -18.5460 C.3   172  VAL172      0.0266
    154  CG1      -24.5560   20.1500  -18.4050 C.3   172  VAL172      0.0020
    155  CG2      -24.4680   22.4180  -17.3570 C.3   172  VAL172      0.0020
    156  N        -22.5650   23.7300  -19.9180 N.am  173  ASP173     -0.1960
    157  CA       -22.3640   25.1560  -20.1800 C.3   173  ASP173      0.1840
    158  C        -20.9430   25.5060  -20.5890 C.2   173  ASP173      0.2622
    159  O        -20.1720   26.0680  -19.8080 O.2   173  ASP173     -0.2715
    160  CB       -22.8030   26.0120  -18.9930 C.3   173  ASP173      0.1450
    161  CG       -22.9660   27.4710  -19.3590 C.2   173  ASP173      0.3671
    162  OD1      -22.6310   27.8510  -20.5030 O.co2 173  ASP173     -0.2456
    163  OD2      -23.4350   28.2390  -18.4970 O.co2 173  ASP173     -0.2456
    164  N        -20.6130   25.1900  -21.8330 N.am  174  PHE174     -0.1974
    165  CA       -19.2910   25.4710  -22.3490 C.3   174  PHE174      0.1639
    166  C        -19.2410   26.7870  -23.1110 C.2   174  PHE174      0.2290
    167  O        -18.2800   27.0600  -23.8080 O.2   174  PHE174     -0.2864
    168  CB       -18.7980   24.2960  -23.1850 C.3   174  PHE174      0.0560
    169  CG       -18.5770   23.0760  -22.3800 C.ar  174  PHE174     -0.0200
    170  CD1      -17.3460   22.8420  -21.7830 C.ar  174  PHE174     -0.0042
    171  CD2      -19.6140   22.1820  -22.1640 C.ar  174  PHE174     -0.0042
    172  CE1      -17.1430   21.7210  -20.9950 C.ar  174  PHE174     -0.0003
    173  CE2      -19.4210   21.0490  -21.3830 C.ar  174  PHE174     -0.0003
    174  CZ       -18.1850   20.8210  -20.7930 C.ar  174  PHE174     -0.0000
@<TRIPOS>BOND
     1    65    66    2
     2    65    64    1
     3    54    55    1
     4    56    57    2
     5    56    55    1
     6    63    64    1
     7    64    67    1
     8    67    68    1
     9    55    58    1
    10    48    47    2
    11    58    59    1
    12    69    68    1
    13    68    70    1
    14    78    79    1
    15    47    46    1
    16    59    60    1
    17    45    46    1
    18    79    80    1
    19    79    82    1
    20    61    60   ar
    21    60    62   ar
    22    43    42    2
    23    46    49    1
    24    88    86   ar
    25    88    87   ar
    26    86    84   ar
    27    81    80    2
    28    80    89   am
    29    49    50    1
    30    87    85   ar
    31    84    83   ar
    32    25    24    2
    33    85    83   ar
    34    42    41    1
    35    89    90    1
    36    83    82    1
    37    50    51    1
    38    51    52    1
    39    74    73    2
    40   167   166    2
    41    40    41    1
    42    90    93    1
    43    90    91    1
    44    24    23    1
    45    41    44    1
    46    73    72    1
    47   168   169    1
    48   168   165    1
    49    93    94    1
    50   166   165    1
    51    52    53    1
    52    23    26    1
    53    23    22    1
    54    26    27    1
    55    29    31   ar
    56    29    27   ar
    57    91    98   am
    58    91    92    2
    59   169   171   ar
    60   169   170   ar
    61    94    95    1
    62   165   164    1
    63   171   173   ar
    64    31    32   ar
    65    98    99    1
    66    27    28   ar
    67    76    75    1
    68    95    97   ar
    69    95    96   ar
    70   164   158   am
    71   170   172   ar
    72    77    75    1
    73    72    75    1
    74    72    71    1
    75    34    33    1
    76    34    35    1
    77    34    37    1
    78   173   174   ar
    79    35    36    2
    80    38    37    1
    81   172   174   ar
    82    39    37    1
    83   102    99    1
    84   102   103    1
    85    99   100    1
    86    32    30   ar
    87    28    30   ar
    88   158   157    1
    89   158   159    2
    90   162   161   ar
    91   157   156    1
    92   157   160    1
    93   156   151   am
    94   105   103    1
    95   104   103    1
    96   100   101    2
    97   100   106   am
    98   161   160    1
    99   161   163   ar
   100     7     6    1
   101   151   150    1
   102   151   152    2
   103   150   153    1
   104   150   149    1
   105    12    11    2
   106   106   107    1
   107   153   154    1
   108   153   155    1
   109   111   113    1
   110   111   112    1
   111   111   110    1
   112    20    19   ar
   113     1     2    1
   114     6     5    1
   115     6     8    1
   116    18    19    1
   117    18    17    1
   118     5     2    1
   119    19    21   ar
   120    14    17    1
   121    14    15    1
   122    14    13    1
   123    11    13   am
   124    11    10    1
   125   107   110    1
   126   107   108    1
   127    15    16    2
   128     2     3    1
   129     9     3   am
   130     9    10    1
   131     3     4    2
   132   109   108    2
   133   108   114   am
   134   148   146    1
   135   114   115    1
   136   146   145    1
   137   146   147    1
   138   145   142    1
   139   117   116    2
   140   115   116    1
   141   144   143    2
   142   135   134    2
   143   141   142    1
   144   142   143    1
   145   134   133    1
   146   136   133    1
   147   136   137    1
   148   118   119    1
   149   122   119    1
   150   122   123    1
   151   133   132    1
   152   119   120    1
   153   131   129   ar
   154   137   138    1
   155   120   121    2
   156   138   139   ar
   157   138   140   ar
   158   129   128    1
   159   129   130   ar
   160   128   125    1
   161   124   125    1
   162   125   126    1
   163   126   127    2
