@<TRIPOS>MOLECULE
tmp/6fyzA00.pdb
 139 137 0 0 0
SMALL
GASTEIGER

@<TRIPOS>ATOM
      1  N         -2.4700   -9.0580   10.0100 N.3    27  PRO27      -0.2102
      2  CA        -3.6460   -9.8670   10.3830 C.3    27  PRO27       0.1504
      3  C         -4.8160   -9.9000    9.3710 C.2    27  PRO27       0.2575
      4  O         -5.6650  -10.7980    9.4520 O.2    27  PRO27      -0.2718
      5  CB        -4.0910   -9.2550   11.7190 C.3    27  PRO27       0.0282
      6  CG        -3.5100   -7.8860   11.7400 C.3    27  PRO27       0.0208
      7  CD        -2.2400   -7.9490   10.9540 C.3    27  PRO27       0.0893
      8  N         -4.8650   -8.9470    8.4410 N.am   28  GLU28      -0.1980
      9  CA        -5.8200   -9.0090    7.3380 C.3    28  GLU28       0.1602
     10  C         -5.1660   -9.7430    6.1560 C.2    28  GLU28       0.2287
     11  O         -4.6680   -9.1150    5.2290 O.2    28  GLU28      -0.2864
     12  CB        -6.3100   -7.6020    6.9590 C.3    28  GLU28       0.0415
     13  CG        -7.6660   -7.5850    6.2640 C.3    28  GLU28       0.1163
     14  CD        -7.6760   -8.3170    4.9300 C.2    28  GLU28       0.3649
     15  OE1       -7.3450   -7.6700    3.8990 O.co2  28  GLU28      -0.2457
     16  OE2       -8.0060   -9.5320    4.9180 O.co2  28  GLU28      -0.2457
     17  N         -7.9100  -15.7810    5.5240 N.3    32  ARG32      -0.1245
     18  CA        -9.2390  -15.4960    6.0730 C.3    32  ARG32       0.1563
     19  C        -10.3480  -15.9750    5.1340 C.2    32  ARG32       0.2260
     20  O        -11.2320  -16.7190    5.5550 O.2    32  ARG32      -0.2867
     21  CB        -9.4040  -14.0020    6.3590 C.3    32  ARG32       0.0307
     22  CG        -8.4690  -13.4500    7.4260 C.3    32  ARG32       0.0489
     23  CD        -8.5670  -11.9430    7.5350 C.3    32  ARG32       0.2205
     24  NE        -9.9160  -11.5650    7.9470 N.pl3  32  ARG32      -0.0865
     25  CZ       -10.7850  -10.8190    7.2570 C.cat  32  ARG32       0.5346
     26  NH1      -11.9880  -10.5890    7.7770 N.pl3  32  ARG32       0.1354
     27  NH2      -10.4720  -10.2750    6.0850 N.pl3  32  ARG32       0.1354
     28  N        -11.5250   -5.7660    3.6080 N.3   119  PRO119     -0.2116
     29  CA       -12.7640   -5.2310    4.1660 C.3   119  PRO119      0.1372
     30  C        -12.9930   -3.7680    3.7460 C.2   119  PRO119      0.2244
     31  O        -12.0900   -3.1300    3.1900 O.2   119  PRO119     -0.2868
     32  CB       -12.5230   -5.3340    5.6710 C.3   119  PRO119      0.0268
     33  CG       -11.0530   -5.1760    5.8040 C.3   119  PRO119      0.0207
     34  CD       -10.4680   -5.8790    4.6320 C.3   119  PRO119      0.0892
     35  N        -15.5080   -1.2400    5.6420 N.3   121  HIS121     -0.1226
     36  CA       -16.3150   -0.3190    6.4440 C.3   121  HIS121      0.1752
     37  C        -15.5770    0.8690    7.0850 C.2   121  HIS121      0.2596
     38  O        -16.2220    1.8560    7.4310 O.2   121  HIS121     -0.2718
     39  CB       -17.2240   -1.0870    7.4250 C.3   121  HIS121      0.0759
     40  CG       -16.5350   -1.6590    8.6260 C.ar  121  HIS121      0.0818
     41  ND1      -17.1930   -1.8440    9.8200 N.ar  121  HIS121     -0.2268
     42  CD2      -15.2650   -2.1000    8.8200 C.ar  121  HIS121      0.1154
     43  CE1      -16.3550   -2.3630   10.7020 C.ar  121  HIS121      0.1986
     44  NE2      -15.1800   -2.5260   10.1220 N.ar  121  HIS121     -0.2212
     45  N        -14.2450    0.8030    7.1970 N.am  122  HIS122     -0.1975
     46  CA       -13.4580    1.9540    7.6620 C.3   122  HIS122      0.1656
     47  C        -13.0440    2.9410    6.5650 C.2   122  HIS122      0.2291
     48  O        -12.5520    4.0250    6.8840 O.2   122  HIS122     -0.2864
     49  CB       -12.1980    1.5040    8.4050 C.3   122  HIS122      0.0771
     50  CG       -12.4680    0.7050    9.6360 C.ar  122  HIS122      0.0820
     51  ND1      -13.2710    1.1570   10.6610 N.ar  122  HIS122     -0.2267
     52  CD2      -12.0190   -0.5120   10.0170 C.ar  122  HIS122      0.1154
     53  CE1      -13.3110    0.2460   11.6170 C.ar  122  HIS122      0.1986
     54  NE2      -12.5610   -0.7760   11.2510 N.ar  122  HIS122     -0.2212
     55  N         -7.7840    1.1570    8.6900 N.3   130  GLY130     -0.1210
     56  CA        -8.1770   -0.1240    9.2710 C.3   130  GLY130      0.1956
     57  C         -8.1880   -1.2690    8.2780 C.2   130  GLY130      0.2611
     58  O         -9.0940   -2.0950    8.2950 O.2   130  GLY130     -0.2717
     59  N         -7.1720   -1.3050    7.4200 N.am  131  PHE131     -0.1976
     60  CA        -7.0370   -2.3200    6.3520 C.3   131  PHE131      0.1639
     61  C         -8.1400   -2.2700    5.2680 C.2   131  PHE131      0.2290
     62  O         -8.3100   -3.2390    4.5370 O.2   131  PHE131     -0.2864
     63  CB        -6.9250   -3.7360    6.9330 C.3   131  PHE131      0.0560
     64  CG        -5.9720   -3.8540    8.0990 C.ar  131  PHE131     -0.0200
     65  CD1       -4.7030   -3.2620    8.0590 C.ar  131  PHE131     -0.0042
     66  CD2       -6.3280   -4.5890    9.2320 C.ar  131  PHE131     -0.0042
     67  CE1       -3.8280   -3.3820    9.1390 C.ar  131  PHE131     -0.0003
     68  CE2       -5.4500   -4.7180   10.3080 C.ar  131  PHE131     -0.0003
     69  CZ        -4.1990   -4.1130   10.2590 C.ar  131  PHE131     -0.0000
     70  N        -19.7790   -6.0610   12.8650 N.3   159  ASP159     -0.1239
     71  CA       -18.3590   -6.0510   13.1530 C.3   159  ASP159      0.1674
     72  C        -18.1950   -5.3390   14.5040 C.2   159  ASP159      0.2266
     73  O        -18.9380   -4.4010   14.8150 O.2   159  ASP159     -0.2867
     74  CB       -17.6120   -5.3200   12.0450 C.3   159  ASP159      0.1410
     75  CG       -16.1170   -5.4650   12.1560 C.2   159  ASP159      0.3668
     76  OD1      -15.5380   -4.8230   13.0600 O.co2 159  ASP159     -0.2456
     77  OD2      -15.5180   -6.1970   11.3320 O.co2 159  ASP159     -0.2456
     78  N        -15.9380   -3.3860   15.5760 N.3   161  HIS161     -0.1241
     79  CA       -15.4800   -1.9950   15.4300 C.3   161  HIS161      0.1621
     80  C        -16.4950   -1.1530   14.6600 C.2   161  HIS161      0.2264
     81  O        -17.2150   -1.6660   13.8140 O.2   161  HIS161     -0.2867
     82  CB       -14.1240   -1.9500   14.7220 C.3   161  HIS161      0.0745
     83  CG       -13.1070   -2.8750   15.3090 C.ar  161  HIS161      0.0817
     84  ND1      -12.8600   -4.1250   14.7910 N.ar  161  HIS161     -0.2268
     85  CD2      -12.2860   -2.7410   16.3760 C.ar  161  HIS161      0.1154
     86  CE1      -11.9360   -4.7270   15.5190 C.ar  161  HIS161      0.1986
     87  NE2      -11.5640   -3.9050   16.4800 N.ar  161  HIS161     -0.2212
     88  N        -10.9910    1.1350   19.2130 N.3   190  PHE190     -0.1241
     89  CA       -10.7020    1.3920   17.8060 C.3   190  PHE190      0.1605
     90  C        -11.9980    1.3590   16.9810 C.2   190  PHE190      0.2264
     91  O        -12.7510    0.3980   17.1050 O.2   190  PHE190     -0.2867
     92  CB        -9.7190    0.3520   17.2550 C.3   190  PHE190      0.0534
     93  CG        -9.4020    0.5510   15.8090 C.ar  190  PHE190     -0.0203
     94  CD1       -8.3860    1.4100   15.4260 C.ar  190  PHE190     -0.0042
     95  CD2      -10.1460   -0.0890   14.8270 C.ar  190  PHE190     -0.0042
     96  CE1       -8.1100    1.6200   14.0870 C.ar  190  PHE190     -0.0003
     97  CE2       -9.8680    0.1080   13.4950 C.ar  190  PHE190     -0.0003
     98  CZ        -8.8550    0.9680   13.1230 C.ar  190  PHE190     -0.0000
     99  N        -15.4160  -10.4930   14.3840 N.3   253  ASP253     -0.1239
    100  CA       -14.3990  -10.2450   15.4080 C.3   253  ASP253      0.1674
    101  C        -14.9720   -9.9990   16.8150 C.2   253  ASP253      0.2266
    102  O        -14.2000   -9.8850   17.7720 O.2   253  ASP253     -0.2867
    103  CB       -13.4140   -9.1300   14.9840 C.3   253  ASP253      0.1410
    104  CG       -14.0920   -7.9020   14.3930 C.2   253  ASP253      0.3668
    105  OD1      -15.3250   -7.7650   14.5060 O.co2 253  ASP253     -0.2456
    106  OD2      -13.3720   -7.0570   13.8140 O.co2 253  ASP253     -0.2456
    107  N         -6.7240   -5.3650   20.7070 N.3   261  PRO261     -0.2102
    108  CA        -7.8400   -4.5420   20.2340 C.3   261  PRO261      0.1504
    109  C         -8.5600   -5.0370   18.9600 C.2   261  PRO261      0.2575
    110  O         -9.2980   -4.2640   18.3420 O.2   261  PRO261     -0.2718
    111  CB        -7.1450   -3.2080   19.9530 C.3   261  PRO261      0.0282
    112  CG        -5.8080   -3.6230   19.4250 C.3   261  PRO261      0.0208
    113  CD        -5.4600   -4.9390   20.0840 C.3   261  PRO261      0.0893
    114  N         -8.3470   -6.2930   18.5710 N.am  262  LEU262     -0.1980
    115  CA        -9.0910   -6.8950   17.4600 C.3   262  LEU262      0.1596
    116  C        -10.5030   -7.3010   17.8800 C.2   262  LEU262      0.2287
    117  O        -11.3670   -7.4830   17.0280 O.2   262  LEU262     -0.2864
    118  CB        -8.3610   -8.1220   16.9090 C.3   262  LEU262      0.0297
    119  CG        -6.9630   -7.8860   16.3440 C.3   262  LEU262      0.0022
    120  CD1       -6.2660   -9.2160   16.0870 C.3   262  LEU262      0.0001
    121  CD2       -7.0250   -7.0480   15.0790 C.3   262  LEU262      0.0001
    122  N        -14.4170   -7.5370    9.2490 N.3   293  GLY293     -0.1210
    123  CA       -13.3360   -8.0340   10.1060 C.3   293  GLY293      0.1956
    124  C        -13.5310   -9.4630   10.5680 C.2   293  GLY293      0.2612
    125  O        -14.3590  -10.2090   10.0300 O.2   293  GLY293     -0.2717
    126  N        -12.7510   -9.8530   11.5680 N.am  294  GLY294     -0.1942
    127  CA       -12.6930  -11.2460   11.9960 C.3   294  GLY294      0.2014
    128  C        -11.3950  -11.8430   11.4930 C.2   294  GLY294      0.2638
    129  O        -11.1310  -11.8600   10.2920 O.2   294  GLY294     -0.2714
    130  N        -10.6160  -12.3590   12.4370 N.am  295  HIS295     -0.1973
    131  CA        -9.2130  -12.7130   12.2700 C.3   295  HIS295      0.1656
    132  C         -8.9560  -14.2020   12.5620 C.2   295  HIS295      0.2291
    133  O         -8.3500  -14.9070   11.7450 O.2   295  HIS295     -0.2864
    134  CB        -8.4020  -11.8170   13.2120 C.3   295  HIS295      0.0771
    135  CG        -6.9830  -12.2370   13.3830 C.ar  295  HIS295      0.0820
    136  ND1       -6.0100  -11.9630   12.4480 N.ar  295  HIS295     -0.2267
    137  CD2       -6.3680  -12.9060   14.3840 C.ar  295  HIS295      0.1154
    138  CE1       -4.8550  -12.4550   12.8590 C.ar  295  HIS295      0.1986
    139  NE2       -5.0460  -13.0340   14.0310 N.ar  295  HIS295     -0.2212
@<TRIPOS>BOND
     1    31    30    2
     2    28    29    1
     3    28    34    1
     4    30    29    1
     5    15    14   ar
     6    29    32    1
     7    62    61    2
     8    34    33    1
     9    16    14   ar
    10    14    13    1
    11    19    20    2
    12    19    18    1
    13    11    10    2
    14    61    60    1
    15    17    18    1
    16    35    36    1
    17    32    33    1
    18    18    21    1
    19    27    25    1
    20    10     9    1
    21    13    12    1
    22    60    63    1
    23    60    59    1
    24    21    22    1
    25    36    37    1
    26    36    39    1
    27    47    48    2
    28    47    46    1
    29    63    64    1
    30    12     9    1
    31    37    45   am
    32    37    38    2
    33    45    46    1
    34    25    26    1
    35    25    24    2
    36     9     8    1
    37    59    57   am
    38    39    40    1
    39    22    23    1
    40    23    24    1
    41    46    49    1
    42    65    64   ar
    43    65    67   ar
    44    64    66   ar
    45    57    58    2
    46    57    56    1
    47    49    50    1
    48     8     3   am
    49    40    42   ar
    50    40    41   ar
    51    55    56    1
    52    42    44   ar
    53    67    69   ar
    54    66    68   ar
    55   122   123    1
    56     3     4    2
    57     3     2    1
    58    50    52   ar
    59    50    51   ar
    60    41    43   ar
    61     1     2    1
    62     1     7    1
    63    52    54   ar
    64   125   124    2
    65   123   124    1
    66    44    43   ar
    67    69    68   ar
    68   129   128    2
    69     2     5    1
    70   124   126   am
    71    51    53   ar
    72     7     6    1
    73    54    53   ar
    74    77    75   ar
    75   128   127    1
    76   128   130   am
    77   126   127    1
    78     5     6    1
    79   133   132    2
    80    74    75    1
    81    74    71    1
    82    75    76   ar
    83   131   130    1
    84   131   132    1
    85   131   134    1
    86   136   138   ar
    87   136   135   ar
    88   138   139   ar
    89    70    71    1
    90    98    97   ar
    91    98    96   ar
    92    71    72    1
    93   134   135    1
    94   135   137   ar
    95    97    95   ar
    96    81    80    2
    97   106   104   ar
    98   139   137   ar
    99    96    94   ar
   100    99   100    1
   101   104   105   ar
   102   104   103    1
   103    72    73    2
   104    80    79    1
   105    82    83    1
   106    82    79    1
   107    84    83   ar
   108    84    86   ar
   109    95    93   ar
   110   103   100    1
   111   121   119    1
   112    83    85   ar
   113   100   101    1
   114    94    93   ar
   115    79    78    1
   116    86    87   ar
   117    93    92    1
   118   120   119    1
   119   119   118    1
   120    85    87   ar
   121   101   102    2
   122   118   115    1
   123    90    91    2
   124    90    89    1
   125   117   116    2
   126    92    89    1
   127   115   116    1
   128   115   114    1
   129    89    88    1
   130   110   109    2
   131   114   109   am
   132   109   108    1
   133   112   111    1
   134   112   113    1
   135   111   108    1
   136   113   107    1
   137   108   107    1
