@<TRIPOS>MOLECULE
tmp/6fyzB00.pdb
 156 153 0 0 0
SMALL
GASTEIGER

@<TRIPOS>ATOM
      1  N        -43.6040   32.5460  -26.8070 N.3    27  PRO27      -0.2102
      2  CA       -42.4440   31.7630  -26.3360 C.3    27  PRO27       0.1504
      3  C        -41.7400   30.9120  -27.4110 C.2    27  PRO27       0.2575
      4  O        -40.5200   30.7690  -27.3840 O.2    27  PRO27      -0.2718
      5  CB       -43.0510   30.8410  -25.2740 C.3    27  PRO27       0.0282
      6  CG       -44.2660   31.5390  -24.8190 C.3    27  PRO27       0.0208
      7  CD       -44.8070   32.2560  -26.0160 C.3    27  PRO27       0.0893
      8  N        -42.5120   30.3330  -28.3210 N.am   28  GLU28      -0.1980
      9  CA       -41.9590   29.5190  -29.4020 C.3    28  GLU28       0.1602
     10  C        -41.6810   30.4550  -30.5930 C.2    28  GLU28       0.2287
     11  O        -42.4960   30.5760  -31.5070 O.2    28  GLU28      -0.2864
     12  CB       -42.9380   28.3890  -29.7490 C.3    28  GLU28       0.0415
     13  CG       -42.3410   27.2070  -30.4910 C.3    28  GLU28       0.1163
     14  CD       -41.6730   27.5800  -31.7990 C.2    28  GLU28       0.3649
     15  OE1      -42.3440   27.5170  -32.8570 O.co2  28  GLU28      -0.2457
     16  OE2      -40.4830   27.9460  -31.7620 O.co2  28  GLU28      -0.2457
     17  N        -35.0720   31.0110  -31.1830 N.3    32  ARG32      -0.1245
     18  CA       -34.6850   29.7310  -30.6010 C.3    32  ARG32       0.1563
     19  C        -33.6680   29.0180  -31.5050 C.2    32  ARG32       0.2260
     20  O        -32.5560   28.7170  -31.0730 O.2    32  ARG32      -0.2867
     21  CB       -35.9230   28.8610  -30.3270 C.3    32  ARG32       0.0307
     22  CG       -36.8460   29.4460  -29.2530 C.3    32  ARG32       0.0489
     23  CD       -38.1310   28.6540  -29.0690 C.3    32  ARG32       0.2205
     24  NE       -37.8180   27.2790  -28.6730 N.pl3  32  ARG32      -0.0865
     25  CZ       -38.0340   26.1710  -29.3890 C.cat  32  ARG32       0.5346
     26  NH1      -38.6330   26.2080  -30.5800 N.pl3  32  ARG32       0.1354
     27  NH2      -37.6560   24.9950  -28.8850 N.pl3  32  ARG32       0.1354
     28  N        -51.4240   33.2220  -27.4940 N.3    93  ASP93      -0.1239
     29  CA       -49.9650   32.9670  -27.6050 C.3    93  ASP93       0.1674
     30  C        -49.5120   31.9640  -28.6960 C.2    93  ASP93       0.2266
     31  O        -48.3070   31.8660  -28.9490 O.2    93  ASP93      -0.2867
     32  CB       -49.3610   32.5850  -26.2270 C.3    93  ASP93       0.1410
     33  CG       -50.2360   31.6130  -25.4280 C.2    93  ASP93       0.3668
     34  OD1      -50.8320   30.6970  -26.0350 O.co2  93  ASP93      -0.2456
     35  OD2      -50.3290   31.7720  -24.1890 O.co2  93  ASP93      -0.2456
     36  N        -42.0380   23.0040  -33.1250 N.3   134  PRO134     -0.2116
     37  CA       -41.9360   21.6650  -32.5550 C.3   134  PRO134      0.1372
     38  C        -43.0940   20.7730  -33.0060 C.2   134  PRO134      0.2244
     39  O        -44.0730   21.2600  -33.5790 O.2   134  PRO134     -0.2868
     40  CB       -41.9970   21.9220  -31.0440 C.3   134  PRO134      0.0268
     41  CG       -42.7950   23.1720  -30.9100 C.3   134  PRO134      0.0207
     42  CD       -42.4360   24.0060  -32.1140 C.3   134  PRO134      0.0892
     43  N        -44.0690   17.3540  -31.0920 N.3   136  HIS136     -0.1226
     44  CA       -44.5070   16.2040  -30.2900 C.3   136  HIS136      0.1752
     45  C        -45.9240   16.2490  -29.6730 C.2   136  HIS136      0.2596
     46  O        -46.4730   15.1990  -29.3600 O.2   136  HIS136     -0.2718
     47  CB       -43.4240   15.7840  -29.2680 C.3   136  HIS136      0.0759
     48  CG       -43.3140   16.6700  -28.0680 C.ar  136  HIS136      0.0818
     49  ND1      -42.8950   16.1990  -26.8380 N.ar  136  HIS136     -0.2268
     50  CD2      -43.5550   17.9920  -27.9040 C.ar  136  HIS136      0.1154
     51  CE1      -42.8920   17.1960  -25.9700 C.ar  136  HIS136      0.1986
     52  NE2      -43.2870   18.2940  -26.5910 N.ar  136  HIS136     -0.2212
     53  N        -46.5250   17.4300  -29.5420 N.am  137  HIS137     -0.1975
     54  CA       -47.9270   17.5460  -29.0830 C.3   137  HIS137      0.1656
     55  C        -48.9670   17.4320  -30.1930 C.2   137  HIS137      0.2291
     56  O        -50.1590   17.3820  -29.9010 O.2   137  HIS137     -0.2864
     57  CB       -48.1830   18.8960  -28.3990 C.3   137  HIS137      0.0771
     58  CG       -47.3520   19.1340  -27.1840 C.ar  137  HIS137      0.0820
     59  ND1      -47.2860   18.2360  -26.1410 N.ar  137  HIS137     -0.2267
     60  CD2      -46.5550   20.1750  -26.8420 C.ar  137  HIS137      0.1154
     61  CE1      -46.4830   18.7150  -25.2060 C.ar  137  HIS137      0.1986
     62  NE2      -46.0310   19.8910  -25.6050 N.ar  137  HIS137     -0.2212
     63  N        -50.0360   22.9200  -28.2670 N.3   145  GLY145     -0.1210
     64  CA       -48.7670   23.2300  -27.6170 C.3   145  GLY145      0.1956
     65  C        -47.6940   23.8090  -28.5210 C.2   145  GLY145      0.2611
     66  O        -46.5200   23.4500  -28.4070 O.2   145  GLY145     -0.2717
     67  N        -48.1260   24.6910  -29.4240 N.am  146  PHE146     -0.1976
     68  CA       -47.2710   25.3010  -30.4530 C.3   146  PHE146      0.1639
     69  C        -46.7620   24.3210  -31.5330 C.2   146  PHE146      0.2290
     70  O        -45.8940   24.6830  -32.3180 O.2   146  PHE146     -0.2864
     71  CB       -46.0770   26.0750  -29.8420 C.3   146  PHE146      0.0560
     72  CG       -46.4260   26.9620  -28.6630 C.ar  146  PHE146     -0.0200
     73  CD1      -47.5660   27.7490  -28.6650 C.ar  146  PHE146     -0.0042
     74  CD2      -45.5790   27.0280  -27.5630 C.ar  146  PHE146     -0.0042
     75  CE1      -47.8760   28.5650  -27.5800 C.ar  146  PHE146     -0.0003
     76  CE2      -45.8740   27.8430  -26.4790 C.ar  146  PHE146     -0.0003
     77  CZ       -47.0270   28.6160  -26.4840 C.ar  146  PHE146     -0.0000
     78  N        -37.8890   16.0290  -23.7550 N.3   174  ASP174     -0.1239
     79  CA       -38.6630   17.2440  -23.4640 C.3   174  ASP174      0.1674
     80  C        -39.4210   17.0300  -22.1230 C.2   174  ASP174      0.2266
     81  O        -39.9180   15.9350  -21.8380 O.2   174  ASP174     -0.2867
     82  CB       -39.6340   17.5390  -24.6110 C.3   174  ASP174      0.1410
     83  CG       -40.2750   18.9190  -24.5170 C.2   174  ASP174      0.3668
     84  OD1      -41.1400   19.1240  -23.6400 O.co2 174  ASP174     -0.2456
     85  OD2      -39.9350   19.7980  -25.3450 O.co2 174  ASP174     -0.2456
     86  N        -42.2250   18.0370  -21.1030 N.3   176  HIS176     -0.1241
     87  CA       -43.6450   17.7840  -21.3220 C.3   176  HIS176      0.1621
     88  C        -43.8680   16.4700  -22.0620 C.2   176  HIS176      0.2264
     89  O        -43.0550   16.0650  -22.8850 O.2   176  HIS176     -0.2867
     90  CB       -44.2660   18.9430  -22.1150 C.3   176  HIS176      0.0745
     91  CG       -44.0420   20.2740  -21.4780 C.ar  176  HIS176      0.0817
     92  ND1      -44.7590   20.6940  -20.3840 N.ar  176  HIS176     -0.2268
     93  CD2      -43.1470   21.2530  -21.7350 C.ar  176  HIS176      0.1154
     94  CE1      -44.3310   21.8870  -20.0140 C.ar  176  HIS176      0.1986
     95  NE2      -43.3520   22.2510  -20.8190 N.ar  176  HIS176     -0.2212
     96  N        -48.6700   20.2890  -17.5890 N.3   205  PHE205     -0.1241
     97  CA       -49.0260   20.3520  -19.0110 C.3   205  PHE205      0.1605
     98  C        -48.3580   19.2310  -19.8140 C.2   205  PHE205      0.2264
     99  O        -47.1580   19.0180  -19.6590 O.2   205  PHE205     -0.2867
    100  CB       -48.6320   21.7000  -19.6050 C.3   205  PHE205      0.0534
    101  CG       -49.0700   21.8630  -21.0190 C.ar  205  PHE205     -0.0203
    102  CD1      -50.3710   22.2870  -21.3040 C.ar  205  PHE205     -0.0042
    103  CD2      -48.2120   21.5440  -22.0680 C.ar  205  PHE205     -0.0042
    104  CE1      -50.8010   22.4120  -22.6170 C.ar  205  PHE205     -0.0003
    105  CE2      -48.6410   21.6610  -23.3830 C.ar  205  PHE205     -0.0003
    106  CZ       -49.9360   22.0900  -23.6550 C.ar  205  PHE205     -0.0000
    107  N        -36.2990   22.0330  -22.2740 N.3   268  ASP268     -0.1239
    108  CA       -37.0260   22.7760  -21.2270 C.3   268  ASP268      0.1674
    109  C        -36.8730   22.1960  -19.8130 C.2   268  ASP268      0.2266
    110  O        -37.3360   22.8110  -18.8500 O.2   268  ASP268     -0.2867
    111  CB       -38.5090   23.0180  -21.5880 C.3   268  ASP268      0.1410
    112  CG       -39.1760   21.8190  -22.2560 C.2   268  ASP268      0.3668
    113  OD1      -38.5920   20.7100  -22.2500 O.co2 268  ASP268     -0.2456
    114  OD2      -40.2810   22.0000  -22.8160 O.co2 268  ASP268     -0.2456
    115  N        -45.0220   27.0570  -15.9680 N.3   276  PRO276     -0.2102
    116  CA       -45.1530   25.6890  -16.4640 C.3   276  PRO276      0.1504
    117  C        -44.3630   25.3900  -17.7400 C.2   276  PRO276      0.2575
    118  O        -44.6830   24.4290  -18.4220 O.2   276  PRO276     -0.2718
    119  CB       -46.6640   25.5830  -16.7390 C.3   276  PRO276      0.0282
    120  CG       -47.0140   26.9520  -17.2260 C.3   276  PRO276      0.0208
    121  CD       -46.1580   27.8970  -16.4050 C.3   276  PRO276      0.0893
    122  N        -43.3570   26.1920  -18.0780 N.am  277  LEU277     -0.1980
    123  CA       -42.4650   25.8270  -19.1780 C.3   277  LEU277      0.1596
    124  C        -41.5020   24.7400  -18.7560 C.2   277  LEU277      0.2287
    125  O        -40.9780   24.0360  -19.6080 O.2   277  LEU277     -0.2864
    126  CB       -41.6560   27.0140  -19.6890 C.3   277  LEU277      0.0297
    127  CG       -42.4560   28.1330  -20.3450 C.3   277  LEU277      0.0022
    128  CD1      -41.5230   29.2830  -20.7110 C.3   277  LEU277      0.0001
    129  CD2      -43.1960   27.6080  -21.5650 C.3   277  LEU277      0.0001
    130  N        -37.4070   19.9840  -29.8630 N.3   307  GLU307     -0.1231
    131  CA       -38.8130   20.1430  -29.5510 C.3   307  GLU307      0.1699
    132  C        -38.9250   21.4700  -28.7890 C.2   307  GLU307      0.2593
    133  O        -38.7520   22.5140  -29.4080 O.2   307  GLU307     -0.2718
    134  CB       -39.3450   18.9300  -28.7770 C.3   307  GLU307      0.0402
    135  CG       -39.2590   17.6010  -29.5280 C.3   307  GLU307      0.1161
    136  CD       -40.3260   17.3840  -30.6040 C.2   307  GLU307      0.3649
    137  OE1      -41.1470   18.2950  -30.8640 O.co2 307  GLU307     -0.2457
    138  OE2      -40.3470   16.2680  -31.1940 O.co2 307  GLU307     -0.2457
    139  N        -39.1680   21.4290  -27.4740 N.am  308  GLY308     -0.1942
    140  CA       -39.2650   22.6130  -26.6440 C.3   308  GLY308      0.2014
    141  C        -37.9470   23.0830  -26.0590 C.2   308  GLY308      0.2639
    142  O        -36.8590   22.6460  -26.4610 O.2   308  GLY308     -0.2714
    143  N        -38.0610   23.9750  -25.0860 N.am  309  GLY309     -0.1939
    144  CA       -36.9260   24.7240  -24.5680 C.3   309  GLY309      0.2014
    145  C        -37.0110   26.1450  -25.0930 C.2   309  GLY309      0.2638
    146  O        -37.1250   26.3670  -26.3010 O.2   309  GLY309     -0.2714
    147  N        -36.9140   27.0960  -24.1730 N.am  310  HIS310     -0.1973
    148  CA       -37.2650   28.4930  -24.4000 C.3   310  HIS310      0.1656
    149  C        -36.1170   29.4520  -24.0520 C.2   310  HIS310      0.2291
    150  O        -35.8400   30.3810  -24.8160 O.2   310  HIS310     -0.2864
    151  CB       -38.5210   28.8100  -23.5740 C.3   310  HIS310      0.0771
    152  CG       -38.7790   30.2670  -23.3920 C.ar  310  HIS310      0.0820
    153  ND1      -39.2200   31.0770  -24.4160 N.ar  310  HIS310     -0.2267
    154  CD2      -38.6580   31.0630  -22.3060 C.ar  310  HIS310      0.1154
    155  CE1      -39.3540   32.3130  -23.9690 C.ar  310  HIS310      0.1986
    156  NE2      -39.0190   32.3310  -22.6910 N.ar  310  HIS310     -0.2212
@<TRIPOS>BOND
     1    39    38    2
     2    36    37    1
     3    36    42    1
     4    38    37    1
     5    15    14   ar
     6    37    40    1
     7    70    69    2
     8    42    41    1
     9    14    16   ar
    10    14    13    1
    11    69    68    1
    12    11    10    2
    13    19    20    2
    14    19    18    1
    15   138   136   ar
    16    17    18    1
    17    43    44    1
    18    40    41    1
    19   137   136   ar
    20   136   135    1
    21    18    21    1
    22    10     9    1
    23    26    25    1
    24    13    12    1
    25    68    71    1
    26    68    67    1
    27    21    22    1
    28    44    45    1
    29    44    47    1
    30    55    56    2
    31    55    54    1
    32   130   131    1
    33    71    72    1
    34    12     9    1
    35    45    53   am
    36    45    46    2
    37   131   132    1
    38   131   134    1
    39    53    54    1
    40   135   134    1
    41    67    65   am
    42   133   132    2
    43     9     8    1
    44    25    27    1
    45    25    24    2
    46    47    48    1
    47    22    23    1
    48    54    57    1
    49    23    24    1
    50    31    30    2
    51   132   139   am
    52    30    29    1
    53    73    72   ar
    54    73    75   ar
    55    72    74   ar
    56    65    66    2
    57    65    64    1
    58    57    58    1
    59     8     3   am
    60    63    64    1
    61    48    50   ar
    62    48    49   ar
    63    50    52   ar
    64    29    28    1
    65    29    32    1
    66    75    77   ar
    67    74    76   ar
    68   139   140    1
    69     3     4    2
    70     3     2    1
    71    58    60   ar
    72    58    59   ar
    73    60    62   ar
    74    49    51   ar
    75     1     2    1
    76     1     7    1
    77   140   141    1
    78    52    51   ar
    79    77    76   ar
    80   142   141    2
    81     2     5    1
    82   146   145    2
    83    32    33    1
    84    59    61   ar
    85   141   143   am
    86    34    33   ar
    87     7     6    1
    88    62    61   ar
    89    33    35   ar
    90    85    83   ar
    91     5     6    1
    92   145   144    1
    93   145   147   am
    94   143   144    1
    95   150   149    2
    96    82    83    1
    97    82    79    1
    98    83    84   ar
    99   153   155   ar
   100   153   152   ar
   101   148   147    1
   102   148   149    1
   103   148   151    1
   104   155   156   ar
   105    78    79    1
   106   106   105   ar
   107   106   104   ar
   108   151   152    1
   109    79    80    1
   110   152   154   ar
   111   105   103   ar
   112    89    88    2
   113   114   112   ar
   114   156   154   ar
   115   104   102   ar
   116   107   108    1
   117   112   113   ar
   118   112   111    1
   119    80    81    2
   120    90    91    1
   121    90    87    1
   122   103   101   ar
   123    88    87    1
   124    93    91   ar
   125    93    95   ar
   126   111   108    1
   127   129   127    1
   128    91    92   ar
   129    87    86    1
   130   102   101   ar
   131   108   109    1
   132   101   100    1
   133    95    94   ar
   134   128   127    1
   135    92    94   ar
   136   127   126    1
   137    98    99    2
   138    98    97    1
   139   109   110    2
   140   126   123    1
   141   125   124    2
   142   100    97    1
   143   123   124    1
   144   123   122    1
   145    97    96    1
   146   118   117    2
   147   122   117   am
   148   117   116    1
   149   120   119    1
   150   120   121    1
   151   119   116    1
   152   116   115    1
   153   121   115    1
