@<TRIPOS>MOLECULE
tmp/6fz4A00.pdb
 143 136 0 0 0
SMALL
GASTEIGER

@<TRIPOS>ATOM
      1  N         14.6870   35.0730   57.9180 N.3    10  GLU10      -0.1231
      2  CA        14.7310   33.8700   58.7510 C.3    10  GLU10       0.1699
      3  C         13.3450   33.7270   59.3670 C.2    10  GLU10       0.2592
      4  O         12.9510   34.6020   60.1320 O.2    10  GLU10      -0.2718
      5  CB        15.7920   34.0060   59.8300 C.3    10  GLU10       0.0402
      6  CG        16.0400   32.7480   60.6350 C.3    10  GLU10       0.1161
      7  CD        16.8540   31.7660   59.8480 C.2    10  GLU10       0.3649
      8  OE1       18.0960   31.9730   59.7550 O.co2  10  GLU10      -0.2457
      9  OE2       16.2440   30.8070   59.3230 O.co2  10  GLU10      -0.2457
     10  N         12.6000   32.7030   58.9630 N.am   11  GLU11      -0.1979
     11  CA        11.2170   32.5350   59.4540 C.3    11  GLU11       0.1602
     12  C         11.2360   32.1400   60.9340 C.2    11  GLU11       0.2287
     13  O         12.0600   31.3190   61.3390 O.2    11  GLU11      -0.2864
     14  CB        10.5160   31.4610   58.6330 C.3    11  GLU11       0.0415
     15  CG         9.0670   31.1640   59.0530 C.3    11  GLU11       0.1163
     16  CD         8.3630   30.1310   58.1800 C.2    11  GLU11       0.3649
     17  OE1        9.0490   29.4180   57.3930 O.co2  11  GLU11      -0.2457
     18  OE2        7.1150   30.0260   58.3110 O.co2  11  GLU11      -0.2457
     19  N         11.1740   35.2780   62.1110 N.3    13  TYR13      -0.1241
     20  CA        11.7030   36.5450   62.6180 C.3    13  TYR13       0.1605
     21  C         11.5660   37.6730   61.6000 C.2    13  TYR13       0.2264
     22  O         11.1450   38.7920   61.9330 O.2    13  TYR13      -0.2867
     23  CB        13.1660   36.3490   63.0180 C.3    13  TYR13       0.0534
     24  CG        13.3550   35.2640   64.0650 C.ar   13  TYR13      -0.0201
     25  CD1       13.2630   35.5790   65.4310 C.ar   13  TYR13      -0.0009
     26  CD2       13.6210   33.9590   63.7050 C.ar   13  TYR13      -0.0009
     27  CE1       13.4350   34.6130   66.3770 C.ar   13  TYR13       0.0417
     28  CE2       13.7810   32.9630   64.6660 C.ar   13  TYR13       0.0417
     29  CZ        13.7190   33.3200   66.0070 C.ar   13  TYR13       0.1957
     30  OH        13.8540   32.3650   66.9930 O.3    13  TYR13      -0.2866
     31  N         24.9230   35.7960   58.9560 N.3    58  TYR58      -0.1241
     32  CA        24.8490   36.3400   60.3010 C.3    58  TYR58       0.1605
     33  C         26.1620   37.0510   60.6710 C.2    58  TYR58       0.2264
     34  O         26.1620   38.1820   61.1630 O.2    58  TYR58      -0.2867
     35  CB        24.5470   35.2110   61.3080 C.3    58  TYR58       0.0534
     36  CG        23.1040   34.8270   61.3010 C.ar   58  TYR58      -0.0201
     37  CD1       22.1640   35.6460   61.9300 C.ar   58  TYR58      -0.0009
     38  CD2       22.6700   33.7040   60.6690 C.ar   58  TYR58      -0.0009
     39  CE1       20.8350   35.3170   61.9300 C.ar   58  TYR58       0.0417
     40  CE2       21.3070   33.3870   60.6360 C.ar   58  TYR58       0.0417
     41  CZ        20.4300   34.1950   61.2570 C.ar   58  TYR58       0.1957
     42  OH        19.1130   33.8650   61.2120 O.3    58  TYR58      -0.2866
     43  N         17.7550   37.3120   64.6690 N.3    85  PRO85      -0.2102
     44  CA        18.1010   36.2630   65.6420 C.3    85  PRO85       0.1504
     45  C         19.6010   35.9940   65.6190 C.2    85  PRO85       0.2576
     46  O         20.1100   34.9420   65.1690 O.2    85  PRO85      -0.2718
     47  CB        17.2690   35.0810   65.1580 C.3    85  PRO85       0.0282
     48  CG        17.0630   35.2980   63.7530 C.3    85  PRO85       0.0208
     49  CD        16.9750   36.7640   63.5440 C.3    85  PRO85       0.0893
     50  N         20.3040   36.9750   66.1100 N.am   86  LEU86      -0.1966
     51  CA        21.7650   37.0120   66.0800 C.3    86  LEU86       0.1728
     52  C         22.3100   36.5220   67.4220 C.2    86  LEU86       0.2616
     53  O         22.1220   37.1620   68.4630 O.2    86  LEU86      -0.2715
     54  CB        22.2660   38.4230   65.7730 C.3    86  LEU86       0.0311
     55  CG        23.7790   38.5770   65.7100 C.3    86  LEU86       0.0022
     56  CD1       24.3770   37.8130   64.5320 C.3    86  LEU86       0.0001
     57  CD2       24.1200   40.0730   65.6440 C.3    86  LEU86       0.0001
     58  N         23.0050   35.4080   67.3740 N.am   87  THR87      -0.1951
     59  CA        23.4380   34.7270   68.5860 C.3    87  THR87       0.1897
     60  C         24.5910   35.4800   69.2370 C.2    87  THR87       0.2313
     61  O         25.5750   35.8300   68.5660 O.2    87  THR87      -0.2863
     62  CB        23.8530   33.2990   68.2360 C.3    87  THR87       0.1794
     63  OG1       22.7650   32.7000   67.4990 O.3    87  THR87      -0.2208
     64  CG2       24.1180   32.5160   69.5290 C.3    87  THR87       0.0378
     65  N         31.9920   37.1280   68.6970 N.3    92  ARG92      -0.1245
     66  CA        31.2710   38.3040   68.2270 C.3    92  ARG92       0.1563
     67  C         31.2790   39.4140   69.2500 C.2    92  ARG92       0.2260
     68  O         31.3960   40.5970   68.8930 O.2    92  ARG92      -0.2867
     69  CB        29.8180   37.9320   67.8850 C.3    92  ARG92       0.0307
     70  CG        29.6990   37.0950   66.6690 C.3    92  ARG92       0.0489
     71  CD        28.2380   36.6610   66.4340 C.3    92  ARG92       0.2205
     72  NE        28.1280   35.9180   65.1830 N.pl3  92  ARG92      -0.0865
     73  CZ        27.0950   35.1490   64.8830 C.cat  92  ARG92       0.5346
     74  NH1       26.1330   34.9760   65.7910 N.pl3  92  ARG92       0.1354
     75  NH2       27.0390   34.5310   63.6970 N.pl3  92  ARG92       0.1354
     76  N         25.3060   20.3170   59.1590 N.3   136  ASP136     -0.1225
     77  CA        26.0790   21.5440   59.0140 C.3   136  ASP136      0.1805
     78  C         25.4590   22.7430   59.7160 C.2   136  ASP136      0.2598
     79  O         25.8520   23.8870   59.4560 O.2   136  ASP136     -0.2718
     80  CB        26.3010   21.8640   57.5330 C.3   136  ASP136      0.1424
     81  CG        27.0920   20.7800   56.8180 C.2   136  ASP136      0.3668
     82  OD1       28.1820   20.4090   57.3440 O.co2 136  ASP136     -0.2456
     83  OD2       26.6240   20.3030   55.7340 O.co2 136  ASP136     -0.2456
     84  N         24.5270   22.5130   60.6380 N.am  137  GLY137     -0.1942
     85  CA        23.9400   23.5800   61.4150 C.3   137  GLY137      0.2014
     86  C         24.5850   23.7900   62.7810 C.2   137  GLY137      0.2639
     87  O         25.5550   23.1450   63.1770 O.2   137  GLY137     -0.2714
     88  N         23.9740   24.7150   63.5200 N.am  138  SER138     -0.1949
     89  CA        24.4630   25.0380   64.8580 C.3   138  SER138      0.1924
     90  C         24.3770   23.8350   65.7910 C.2   138  SER138      0.2314
     91  O         25.2950   23.6020   66.5810 O.2   138  SER138     -0.2863
     92  CB        23.7040   26.2300   65.4520 C.3   138  SER138      0.2116
     93  OG        22.4160   25.8680   65.9410 O.3   138  SER138     -0.2180
     94  N         26.8600   21.1940   64.9460 N.3   141  THR141     -0.1218
     95  CA        28.2000   21.6980   65.1880 C.3   141  THR141      0.1862
     96  C         28.5010   21.6610   66.6770 C.2   141  THR141      0.2287
     97  O         29.6130   21.3130   67.0790 O.2   141  THR141     -0.2866
     98  CB        28.3490   23.1090   64.6250 C.3   141  THR141      0.1770
     99  OG1       28.1990   23.0850   63.1860 O.3   141  THR141     -0.2211
    100  CG2       29.7010   23.6470   64.9500 C.3   141  THR141      0.0375
    101  N         17.1350   23.4390   67.7610 N.3   187  GLU187     -0.1245
    102  CA        16.8750   24.5620   68.6600 C.3   187  GLU187      0.1567
    103  C         15.4370   24.5040   69.1940 C.2   187  GLU187      0.2260
    104  O         14.5000   24.1730   68.4660 O.2   187  GLU187     -0.2867
    105  CB        17.1070   25.9010   67.9370 C.3   187  GLU187      0.0388
    106  CG        18.5510   26.1820   67.4630 C.3   187  GLU187      0.1160
    107  CD        19.5660   26.3500   68.5980 C.2   187  GLU187      0.3649
    108  OE1       19.2770   25.9600   69.7620 O.co2 187  GLU187     -0.2457
    109  OE2       20.6630   26.9070   68.3310 O.co2 187  GLU187     -0.2457
    110  N         13.4130   26.8800   69.9100 N.3   189  THR189     -0.1203
    111  CA        12.5320   27.7870   69.1710 C.3   189  THR189      0.1994
    112  C         11.9350   27.1080   67.9370 C.2   189  THR189      0.2618
    113  O         10.7560   27.3010   67.6130 O.2   189  THR189     -0.2717
    114  CB        13.3030   29.0350   68.7350 C.3   189  THR189      0.1784
    115  OG1       14.6120   28.6520   68.3070 O.3   189  THR189     -0.2211
    116  CG2       13.4360   30.0370   69.8600 C.3   189  THR189      0.0376
    117  N         12.7340   26.3200   67.2240 N.am  190  SER190     -0.1951
    118  CA        12.1910   25.6370   66.0530 C.3   190  SER190      0.1924
    119  C         11.2700   24.5030   66.4620 C.2   190  SER190      0.2314
    120  O         10.2230   24.2920   65.8410 O.2   190  SER190     -0.2863
    121  CB        13.3240   25.1260   65.1730 C.3   190  SER190      0.2116
    122  OG        14.2090   26.1950   64.8540 O.3   190  SER190     -0.2180
    123  N         21.7010   29.6040   74.9520 N.3   211  LYS211     -0.1245
    124  CA        22.2010   30.7300   74.1850 C.3   211  LYS211      0.1561
    125  C         21.0960   31.7710   74.0740 C.2   211  LYS211      0.2260
    126  O         19.9170   31.5320   74.3840 O.2   211  LYS211     -0.2867
    127  CB        22.6810   30.3000   72.8090 C.3   211  LYS211      0.0271
    128  CG        21.6470   29.5820   72.0130 C.3   211  LYS211      0.0035
    129  CD        22.3100   28.6790   70.9650 C.3   211  LYS211      0.0206
    130  CE        22.1140   29.1900   69.5600 C.3   211  LYS211      0.1093
    131  NZ        23.0640   28.4770   68.5350 N.3   211  LYS211     -0.1314
    132  N         19.7050   35.3040   71.6740 N.3   213  TYR213     -0.1241
    133  CA        19.6990   36.2130   70.5210 C.3   213  TYR213      0.1605
    134  C         19.6310   37.6360   71.0640 C.2   213  TYR213      0.2264
    135  O         18.7870   37.9260   71.9010 O.2   213  TYR213     -0.2867
    136  CB        18.4850   35.9780   69.6280 C.3   213  TYR213      0.0534
    137  CG        18.4250   34.6580   68.9100 C.ar  213  TYR213     -0.0201
    138  CD1       19.5830   34.0280   68.4680 C.ar  213  TYR213     -0.0009
    139  CD2       17.1930   34.0620   68.6240 C.ar  213  TYR213     -0.0009
    140  CE1       19.5060   32.8370   67.7950 C.ar  213  TYR213      0.0417
    141  CE2       17.1150   32.8730   67.9780 C.ar  213  TYR213      0.0417
    142  CZ        18.2510   32.2640   67.5250 C.ar  213  TYR213      0.1957
    143  OH        18.1340   31.0620   66.8540 O.3   213  TYR213     -0.2866
@<TRIPOS>BOND
     1    83    81   ar
     2    81    82   ar
     3    81    80    1
     4    17    16   ar
     5    80    77    1
     6     1     2    1
     7    16    18   ar
     8    16    15    1
     9    14    15    1
    10    14    11    1
    11     2     3    1
    12     2     5    1
    13    31    32    1
    14    10     3   am
    15    10    11    1
    16    77    76    1
    17    77    78    1
    18     9     7   ar
    19     3     4    2
    20    11    12    1
    21    79    78    2
    22    78    84   am
    23     8     7   ar
    24     5     6    1
    25     7     6    1
    26    32    33    1
    27    32    35    1
    28    40    38   ar
    29    40    41   ar
    30    84    85    1
    31    38    36   ar
    32    33    34    2
    33    12    13    2
    34    42    41    1
    35    41    39   ar
    36    36    35    1
    37    36    37   ar
    38    85    86    1
    39    21    22    2
    40    21    20    1
    41    37    39   ar
    42    19    20    1
    43    20    23    1
    44    86    87    2
    45    86    88   am
    46    23    24    1
    47    99    98    1
    48    88    89    1
    49    49    48    1
    50    49    43    1
    51    75    73    1
    52    26    24   ar
    53    26    28   ar
    54    48    47    1
    55    24    25   ar
    56    56    55    1
    57    98   100    1
    58    98    95    1
    59    28    29   ar
    60    43    44    1
    61   122   121    1
    62    89    92    1
    63    89    90    1
    64    73    72    2
    65    73    74    1
    66    94    95    1
    67    47    44    1
    68    46    45    2
    69   121   118    1
    70    72    71    1
    71    95    96    1
    72    25    27   ar
    73    92    93    1
    74    45    44    1
    75    45    50   am
    76    57    55    1
    77    55    54    1
    78    54    51    1
    79    90    91    2
    80   120   119    2
    81    29    27   ar
    82    29    30    1
    83   118   119    1
    84   118   117    1
    85    51    50    1
    86    51    52    1
    87    71    70    1
    88    70    69    1
    89    96    97    2
    90   143   142    1
    91   117   112   am
    92    58    52   am
    93    58    59    1
    94    52    53    2
    95   106   105    1
    96   106   107    1
    97    63    62    1
    98   142   140   ar
    99   142   141   ar
   100   113   112    2
   101   101   102    1
   102   140   138   ar
   103    69    66    1
   104   105   102    1
   105   112   111    1
   106   141   139   ar
   107    66    65    1
   108    66    67    1
   109    62    59    1
   110    62    64    1
   111   115   114    1
   112   109   107   ar
   113   104   103    2
   114   138   137   ar
   115   131   130    1
   116    61    60    2
   117    59    60    1
   118   107   108   ar
   119   139   137   ar
   120   102   103    1
   121   114   111    1
   122   114   116    1
   123    68    67    2
   124   137   136    1
   125   111   110    1
   126   130   129    1
   127   136   133    1
   128   133   134    1
   129   133   132    1
   130   129   128    1
   131   134   135    2
   132   128   127    1
   133   127   124    1
   134   125   124    1
   135   125   126    2
   136   124   123    1
