@<TRIPOS>MOLECULE
tmp/6fzmA00.pdb
 145 143 0 0 0
SMALL
GASTEIGER

@<TRIPOS>ATOM
      1  N        -11.1400  -10.7810   -9.7680 N.3    70  PHE70      -0.1227
      2  CA        -9.9080  -11.2690   -9.1540 C.3    70  PHE70       0.1736
      3  C        -10.1440  -12.4580   -8.2480 C.2    70  PHE70       0.2595
      4  O        -11.1660  -12.5150   -7.5730 O.2    70  PHE70      -0.2718
      5  CB        -9.2490  -10.1290   -8.3500 C.3    70  PHE70       0.0547
      6  CG        -8.6960   -9.0430   -9.2350 C.ar   70  PHE70      -0.0202
      7  CD1       -7.4360   -9.1730   -9.8220 C.ar   70  PHE70      -0.0042
      8  CD2       -9.4400   -7.8980   -9.5060 C.ar   70  PHE70      -0.0042
      9  CE1       -6.9290   -8.1790  -10.6590 C.ar   70  PHE70      -0.0003
     10  CE2       -8.9270   -6.8990  -10.3440 C.ar   70  PHE70      -0.0003
     11  CZ        -7.6780   -7.0560  -10.9180 C.ar   70  PHE70      -0.0000
     12  N         -9.1880  -13.3800   -8.1930 N.am   71  HIS71      -0.1961
     13  CA        -9.2700  -14.5590   -7.3270 C.3    71  HIS71       0.1787
     14  C         -7.9080  -14.8720   -6.7100 C.2    71  HIS71       0.2621
     15  O         -7.0300  -15.3790   -7.3980 O.2    71  HIS71      -0.2715
     16  CB        -9.8230  -15.8020   -8.0790 C.3    71  HIS71       0.0785
     17  CG        -9.9930  -17.0000   -7.1890 C.ar   71  HIS71       0.0821
     18  ND1      -11.1620  -17.2170   -6.4900 N.ar   71  HIS71      -0.2267
     19  CD2       -9.1140  -17.9760   -6.8630 C.ar   71  HIS71       0.1154
     20  CE1      -10.9650  -18.3180   -5.7830 C.ar   71  HIS71       0.1986
     21  NE2       -9.7500  -18.8020   -5.9700 N.ar   71  HIS71      -0.2212
     22  N         -7.7720  -14.6060   -5.4160 N.am   72  GLY72      -0.1940
     23  CA        -6.5690  -14.9250   -4.6560 C.3    72  GLY72       0.2014
     24  C         -6.5680  -16.3880   -4.2370 C.2    72  GLY72       0.2639
     25  O         -7.6070  -16.9190   -3.8310 O.2    72  GLY72      -0.2714
     26  N         -5.4070  -17.0670   -4.3630 N.am   73  THR73      -0.1950
     27  CA        -5.2630  -18.4830   -4.0120 C.3    73  THR73       0.1897
     28  C         -3.8070  -18.8020   -3.5540 C.2    73  THR73       0.2313
     29  O         -2.9010  -17.9780   -3.7430 O.2    73  THR73      -0.2863
     30  CB        -5.7560  -19.3880   -5.1750 C.3    73  THR73       0.1794
     31  OG1       -5.9770  -20.7140   -4.6950 O.3    73  THR73      -0.2208
     32  CG2       -4.8470  -19.3820   -6.4050 C.3    73  THR73       0.0378
     33  N        -12.9760  -27.4540   -6.3630 N.3    90  TYR90      -0.1241
     34  CA       -12.2260  -26.2750   -5.9210 C.3    90  TYR90       0.1605
     35  C        -13.0780  -25.3900   -4.9530 C.2    90  TYR90       0.2264
     36  O        -12.5090  -24.6020   -4.1910 O.2    90  TYR90      -0.2867
     37  CB       -11.6900  -25.4570   -7.1400 C.3    90  TYR90       0.0534
     38  CG       -10.8300  -24.2990   -6.7010 C.ar   90  TYR90      -0.0201
     39  CD1       -9.5890  -24.5140   -6.1080 C.ar   90  TYR90      -0.0009
     40  CD2      -11.3160  -22.9940   -6.7330 C.ar   90  TYR90      -0.0009
     41  CE1       -8.8350  -23.4590   -5.5960 C.ar   90  TYR90       0.0417
     42  CE2      -10.5730  -21.9320   -6.2190 C.ar   90  TYR90       0.0417
     43  CZ        -9.3340  -22.1700   -5.6450 C.ar   90  TYR90       0.1957
     44  OH        -8.6050  -21.1460   -5.0890 O.3    90  TYR90      -0.2866
     45  N        -12.2640  -24.8860   -1.1610 N.3    93  LYS93      -0.1231
     46  CA       -11.0880  -24.1030   -0.7730 C.3    93  LYS93       0.1693
     47  C        -11.5650  -22.6800   -0.3820 C.2    93  LYS93       0.2592
     48  O        -10.9210  -22.0280    0.4450 O.2    93  LYS93      -0.2718
     49  CB       -10.0170  -24.0760   -1.8990 C.3    93  LYS93       0.0285
     50  CG        -9.7630  -25.4460   -2.5460 C.3    93  LYS93       0.0035
     51  CD        -8.2960  -25.7030   -2.8860 C.3    93  LYS93       0.0206
     52  CE        -8.0880  -26.9960   -3.6630 C.3    93  LYS93       0.1093
     53  NZ        -6.6980  -27.1210   -4.2030 N.3    93  LYS93      -0.1314
     54  N        -12.7500  -22.2520   -0.9360 N.am   94  ASN94      -0.1960
     55  CA       -13.4160  -20.9450   -0.7790 C.3    94  ASN94       0.1819
     56  C        -14.3120  -20.8490    0.4790 C.2    94  ASN94       0.2621
     57  O        -14.2500  -21.7130    1.3550 O.2    94  ASN94      -0.2715
     58  CB       -14.2550  -20.6300   -2.0310 C.3    94  ASN94       0.1195
     59  CG       -13.4330  -20.4000   -3.2720 C.2    94  ASN94       0.2630
     60  OD1      -13.2640  -19.2640   -3.7310 O.2    94  ASN94      -0.2716
     61  ND2      -12.8920  -21.4730   -3.8380 N.am   94  ASN94      -0.0877
     62  N        -15.1030  -19.7580    0.5810 N.am   95  ALA95      -0.1977
     63  CA       -16.0050  -19.5100    1.7030 C.3    95  ALA95       0.1597
     64  C        -17.3720  -20.1180    1.4320 C.2    95  ALA95       0.2287
     65  O        -17.5600  -20.7840    0.4050 O.2    95  ALA95      -0.2864
     66  CB       -16.1320  -18.0150    1.9590 C.3    95  ALA95       0.0319
     67  N        -20.2000  -18.0900    2.9620 N.3    97  ALA97      -0.1231
     68  CA       -20.9470  -16.8620    3.2950 C.3    97  ALA97       0.1694
     69  C        -22.2080  -16.6400    2.4340 C.2    97  ALA97       0.2592
     70  O        -23.3100  -16.4940    2.9820 O.2    97  ALA97      -0.2718
     71  CB       -20.0280  -15.6520    3.1680 C.3    97  ALA97       0.0304
     72  N        -22.0270  -16.6220    1.0950 N.am   98  TYR98      -0.1976
     73  CA       -23.0690  -16.4160    0.0920 C.3    98  TYR98       0.1639
     74  C        -23.2660  -17.6630   -0.7860 C.2    98  TYR98       0.2290
     75  O        -23.7720  -17.5680   -1.9110 O.2    98  TYR98      -0.2864
     76  CB       -22.7700  -15.1750   -0.7660 C.3    98  TYR98       0.0560
     77  CG       -22.5000  -13.9430    0.0700 C.ar   98  TYR98      -0.0198
     78  CD1      -23.5260  -13.3120    0.7720 C.ar   98  TYR98      -0.0009
     79  CD2      -21.2110  -13.4400    0.2060 C.ar   98  TYR98      -0.0009
     80  CE1      -23.2730  -12.2080    1.5830 C.ar   98  TYR98       0.0417
     81  CE2      -20.9470  -12.3310    1.0030 C.ar   98  TYR98       0.0417
     82  CZ       -21.9810  -11.7130    1.6870 C.ar   98  TYR98       0.1957
     83  OH       -21.7130  -10.6190    2.4740 O.3    98  TYR98      -0.2866
     84  N        -15.5150  -17.7730   -4.9970 N.3   103  TYR103     -0.1241
     85  CA       -15.6450  -16.3380   -4.8080 C.3   103  TYR103      0.1605
     86  C        -14.6730  -15.5910   -5.6710 C.2   103  TYR103      0.2264
     87  O        -13.5490  -16.0380   -5.8390 O.2   103  TYR103     -0.2867
     88  CB       -15.4050  -15.9960   -3.3470 C.3   103  TYR103      0.0534
     89  CG       -16.5500  -16.3980   -2.4420 C.ar  103  TYR103     -0.0201
     90  CD1      -16.9450  -17.7280   -2.3300 C.ar  103  TYR103     -0.0009
     91  CD2      -17.2090  -15.4560   -1.6590 C.ar  103  TYR103     -0.0009
     92  CE1      -17.9970  -18.1030   -1.4970 C.ar  103  TYR103      0.0417
     93  CE2      -18.2370  -15.8270   -0.7920 C.ar  103  TYR103      0.0417
     94  CZ       -18.6330  -17.1530   -0.7230 C.ar  103  TYR103      0.1957
     95  OH       -19.6430  -17.5590    0.1030 O.3   103  TYR103     -0.2866
     96  N        -13.3670  -11.3710   -6.2490 N.3   105  ALA105     -0.1245
     97  CA       -13.4690   -9.9780   -5.7990 C.3   105  ALA105      0.1562
     98  C        -13.4330   -8.9900   -6.9910 C.2   105  ALA105      0.2260
     99  O        -12.9320   -9.3140   -8.0690 O.2   105  ALA105     -0.2867
    100  CB       -12.3600   -9.6530   -4.8100 C.3   105  ALA105      0.0290
    101  N         -8.8890   -7.0700   -2.2600 N.3   110  TYR110     -0.1227
    102  CA        -9.6510   -8.0200   -1.4450 C.3   110  TYR110      0.1736
    103  C         -8.9470   -9.3730   -1.6200 C.2   110  TYR110      0.2596
    104  O         -8.5420   -9.9870   -0.6330 O.2   110  TYR110     -0.2718
    105  CB       -11.1550   -8.0730   -1.8250 C.3   110  TYR110      0.0548
    106  CG       -12.0940   -8.6290   -0.7510 C.ar  110  TYR110     -0.0200
    107  CD1      -11.6440   -9.5330    0.2070 C.ar  110  TYR110     -0.0009
    108  CD2      -13.4320   -8.2640   -0.7090 C.ar  110  TYR110     -0.0009
    109  CE1      -12.5010  -10.0550    1.1790 C.ar  110  TYR110      0.0417
    110  CE2      -14.2970   -8.7780    0.2630 C.ar  110  TYR110      0.0417
    111  CZ       -13.8270   -9.6840    1.1980 C.ar  110  TYR110      0.1957
    112  OH       -14.6460  -10.1810    2.1810 O.3   110  TYR110     -0.2866
    113  N         -8.7150   -9.7710   -2.8880 N.am  111  SER111     -0.1952
    114  CA        -8.0300  -11.0030   -3.2790 C.3   111  SER111      0.1924
    115  C         -6.5540  -11.0450   -2.8380 C.2   111  SER111      0.2314
    116  O         -6.0000  -12.1390   -2.7460 O.2   111  SER111     -0.2863
    117  CB        -8.1190  -11.1870   -4.7890 C.3   111  SER111      0.2116
    118  OG        -9.4580  -11.4390   -5.1840 O.3   111  SER111     -0.2180
    119  N         -5.1580  -14.2090    3.7640 N.3   115  THR115     -0.1203
    120  CA        -6.0490  -15.3620    3.9840 C.3   115  THR115      0.1994
    121  C         -6.3920  -16.0240    2.6320 C.2   115  THR115      0.2617
    122  O         -6.6750  -17.2270    2.5940 O.2   115  THR115     -0.2717
    123  CB        -7.3380  -14.9290    4.7380 C.3   115  THR115      0.1784
    124  OG1       -6.9850  -14.2500    5.9380 O.3   115  THR115     -0.2211
    125  CG2       -8.2540  -16.0990    5.0890 C.3   115  THR115      0.0376
    126  N         -6.3680  -15.2300    1.5320 N.am  116  TYR116     -0.1975
    127  CA        -6.7170  -15.7110    0.1920 C.3   116  TYR116      0.1639
    128  C         -5.4440  -15.9420   -0.6710 C.2   116  TYR116      0.2290
    129  O         -5.1750  -17.0840   -1.0310 O.2   116  TYR116     -0.2864
    130  CB        -7.7490  -14.7740   -0.5050 C.3   116  TYR116      0.0560
    131  CG        -8.9090  -14.3580    0.3820 C.ar  116  TYR116     -0.0198
    132  CD1       -9.6040  -15.2940    1.1480 C.ar  116  TYR116     -0.0009
    133  CD2       -9.3080  -13.0290    0.4640 C.ar  116  TYR116     -0.0009
    134  CE1      -10.6490  -14.9120    1.9920 C.ar  116  TYR116      0.0417
    135  CE2      -10.3570  -12.6390    1.2990 C.ar  116  TYR116      0.0417
    136  CZ       -11.0260  -13.5840    2.0570 C.ar  116  TYR116      0.1957
    137  OH       -12.0560  -13.2080    2.8820 O.3   116  TYR116     -0.2866
    138  N        -18.0470   -8.7050   -4.3250 N.3   171  LEU171     -0.1245
    139  CA       -17.6650  -10.0670   -4.6190 C.3   171  LEU171      0.1561
    140  C        -18.8220  -10.8170   -5.2430 C.2   171  LEU171      0.2260
    141  O        -19.9750  -10.4850   -4.9870 O.2   171  LEU171     -0.2867
    142  CB       -17.0980  -10.8160   -3.3990 C.3   171  LEU171      0.0270
    143  CG       -17.9310  -10.9400   -2.1290 C.3   171  LEU171      0.0019
    144  CD1      -18.8590  -12.1540   -2.1730 C.3   171  LEU171      0.0001
    145  CD2      -17.0090  -11.0500   -0.9300 C.3   171  LEU171      0.0001
@<TRIPOS>BOND
     1    11     9   ar
     2    11    10   ar
     3     9     7   ar
     4    10     8   ar
     5     7     6   ar
     6     1     2    1
     7     8     6   ar
     8     6     5    1
     9     2     5    1
    10     2     3    1
    11     3    12   am
    12     3     4    2
    13    12    13    1
    14    16    13    1
    15    16    17    1
    16    99    98    2
    17    15    14    2
    18    13    14    1
    19    17    19   ar
    20    17    18   ar
    21    37    38    1
    22    37    34    1
    23    98    97    1
    24    19    21   ar
    25    40    38   ar
    26    40    42   ar
    27    14    22   am
    28    38    39   ar
    29    18    20   ar
    30    32    30    1
    31    33    34    1
    32    96    97    1
    33    42    43   ar
    34    39    41   ar
    35    21    20   ar
    36    34    35    1
    37    87    86    2
    38    97   100    1
    39    86    85    1
    40    43    41   ar
    41    43    44    1
    42    22    23    1
    43   140   141    2
    44   140   139    1
    45   118   117    1
    46    30    31    1
    47    30    27    1
    48    84    85    1
    49    35    36    2
    50    85    88    1
    51   117   114    1
    52    23    24    1
    53   139   138    1
    54   139   142    1
    55    26    24   am
    56    26    27    1
    57    24    25    2
    58    53    52    1
    59    27    28    1
    60    61    59   am
    61    29    28    2
    62    60    59    2
    63    52    51    1
    64   142   143    1
    65    88    89    1
    66   114   113    1
    67   114   115    1
    68    59    58    1
    69   113   103   am
    70    51    50    1
    71   115   116    2
    72    50    49    1
    73    89    90   ar
    74    89    91   ar
    75    90    92   ar
    76   101   102    1
    77   144   143    1
    78   143   145    1
    79    58    55    1
    80    75    74    2
    81    49    46    1
    82   105   102    1
    83   105   106    1
    84    91    93   ar
    85   103   102    1
    86   103   104    2
    87    92    94   ar
    88    45    46    1
    89   129   128    2
    90    54    55    1
    91    54    47   am
    92    93    94   ar
    93    74    73    1
    94    55    56    1
    95    46    47    1
    96    76    77    1
    97    76    73    1
    98   106   108   ar
    99   106   107   ar
   100    94    95    1
   101   108   110   ar
   102   128   127    1
   103   130   127    1
   104   130   131    1
   105    47    48    2
   106    77    79   ar
   107    77    78   ar
   108    73    72    1
   109   127   126    1
   110    79    81   ar
   111   107   109   ar
   112   110   111   ar
   113   131   133   ar
   114   131   132   ar
   115    65    64    2
   116   133   135   ar
   117    56    62   am
   118    56    57    2
   119    62    63    1
   120    78    80   ar
   121    81    82   ar
   122    72    69   am
   123   132   134   ar
   124   109   111   ar
   125   111   112    1
   126   135   136   ar
   127    64    63    1
   128   126   121   am
   129    80    82   ar
   130    82    83    1
   131    63    66    1
   132   134   136   ar
   133   136   137    1
   134    69    70    2
   135    69    68    1
   136   122   121    2
   137   121   120    1
   138    67    68    1
   139    71    68    1
   140   119   120    1
   141   120   123    1
   142   123   125    1
   143   123   124    1
