@<TRIPOS>MOLECULE
tmp/6fznA00.pdb
 214 206 0 0 0
SMALL
GASTEIGER

@<TRIPOS>ATOM
      1  N          4.5110   -7.2560   36.3720 N.3    28  LEU28      -0.1231
      2  CA         3.2120   -7.8440   36.0370 C.3    28  LEU28       0.1693
      3  C          2.9470   -9.1310   36.8130 C.2    28  LEU28       0.2592
      4  O          1.8240   -9.3550   37.2620 O.2    28  LEU28      -0.2718
      5  CB         3.0860   -8.1150   34.5300 C.3    28  LEU28       0.0284
      6  CG         1.7470   -8.6990   34.0430 C.3    28  LEU28       0.0019
      7  CD1        0.5920   -7.7420   34.3060 C.3    28  LEU28       0.0001
      8  CD2        1.8210   -9.0380   32.5650 C.3    28  LEU28       0.0001
      9  N          3.9680   -9.9710   36.9630 N.am   29  TRP29      -0.1976
     10  CA         3.8170  -11.2160   37.7210 C.3    29  TRP29       0.1640
     11  C          3.7340  -10.9470   39.2340 C.2    29  TRP29       0.2290
     12  O          3.0180  -11.6500   39.9400 O.2    29  TRP29      -0.2864
     13  CB         4.9410  -12.2240   37.4170 C.3    29  TRP29       0.0576
     14  CG         5.2910  -12.4240   35.9580 C.ar   29  TRP29       0.0006
     15  CD1        6.5460  -12.6140   35.4480 C.ar   29  TRP29       0.0946
     16  CD2        4.3970  -12.4310   34.8280 C.ar   29  TRP29       0.0152
     17  NE1        6.4920  -12.7450   34.0820 N.ar   29  TRP29      -0.2442
     18  CE2        5.1900  -12.6380   33.6720 C.ar   29  TRP29       0.0810
     19  CE3        3.0080  -12.2920   34.6770 C.ar   29  TRP29       0.0012
     20  CZ2        4.6410  -12.7090   32.3800 C.ar   29  TRP29       0.0191
     21  CZ3        2.4590  -12.3680   33.3840 C.ar   29  TRP29       0.0001
     22  CH2        3.2800  -12.5730   32.2570 C.ar   29  TRP29       0.0015
     23  N         -1.4420  -15.1570   36.7700 N.3    35  LEU35      -0.1245
     24  CA        -1.2920  -15.2120   35.3060 C.3    35  LEU35       0.1561
     25  C         -0.2880  -16.2650   34.8160 C.2    35  LEU35       0.2260
     26  O         -0.5070  -16.8850   33.7740 O.2    35  LEU35      -0.2867
     27  CB        -0.9070  -13.8350   34.7540 C.3    35  LEU35       0.0270
     28  CG        -1.8660  -12.6790   35.0520 C.3    35  LEU35       0.0019
     29  CD1       -1.2930  -11.3810   34.5060 C.3    35  LEU35       0.0001
     30  CD2       -3.2500  -12.9510   34.4810 C.3    35  LEU35       0.0001
     31  N         -3.3200  -17.2390   31.7830 N.3    41  ILE41      -0.1231
     32  CA        -3.0910  -17.0220   30.3460 C.3    41  ILE41       0.1694
     33  C         -1.6070  -16.9490   29.9330 C.2    41  ILE41       0.2591
     34  O         -1.2980  -16.9920   28.7450 O.2    41  ILE41      -0.2718
     35  CB        -3.8780  -15.7750   29.8340 C.3    41  ILE41       0.0301
     36  CG1       -4.0510  -15.7880   28.2980 C.3    41  ILE41       0.0019
     37  CG2       -3.2270  -14.4710   30.3030 C.3    41  ILE41       0.0218
     38  CD1       -4.5680  -17.0880   27.6970 C.3    41  ILE41       0.0019
     39  N         -0.7000  -16.8360   30.9030 N.am   42  ALA42      -0.1980
     40  CA         0.7370  -16.8810   30.6360 C.3    42  ALA42       0.1597
     41  C          1.4560  -18.0670   31.3190 C.2    42  ALA42       0.2287
     42  O          2.6510  -17.9750   31.6190 O.2    42  ALA42      -0.2864
     43  CB         1.3680  -15.5570   31.0520 C.3    42  ALA42       0.0319
     44  N          4.2290  -21.4020   25.1710 N.3    46  ARG46      -0.1231
     45  CA         3.7760  -20.6980   23.9580 C.3    46  ARG46       0.1694
     46  C          3.1300  -19.3600   24.3000 C.2    46  ARG46       0.2592
     47  O          3.5090  -18.3220   23.7550 O.2    46  ARG46      -0.2718
     48  CB         2.7850  -21.5530   23.1560 C.3    46  ARG46       0.0321
     49  CG         2.0510  -20.8150   22.0400 C.3    46  ARG46       0.0489
     50  CD         1.2850  -21.7790   21.1410 C.3    46  ARG46       0.2205
     51  NE         0.3790  -21.0990   20.2060 N.pl3  46  ARG46      -0.0865
     52  CZ         0.7460  -20.4600   19.0890 C.cat  46  ARG46       0.5346
     53  NH1        2.0290  -20.3670   18.7230 N.pl3  46  ARG46       0.1354
     54  NH2       -0.1870  -19.8930   18.3250 N.pl3  46  ARG46       0.1354
     55  N          2.1520  -19.3950   25.1980 N.am   47  ASP47      -0.1974
     56  CA         1.3860  -18.1950   25.5320 C.3    47  ASP47       0.1709
     57  C          2.2360  -17.1390   26.2590 C.2    47  ASP47       0.2293
     58  O          2.0640  -15.9410   26.0360 O.2    47  ASP47      -0.2864
     59  CB         0.1210  -18.5540   26.3300 C.3    47  ASP47       0.1436
     60  CG        -0.8980  -19.3760   25.5110 C.2    47  ASP47       0.3671
     61  OD1       -0.6310  -19.7180   24.3320 O.co2  47  ASP47      -0.2456
     62  OD2       -1.9840  -19.6800   26.0570 O.co2  47  ASP47      -0.2456
     63  N          4.4800  -15.5020   23.5530 N.3    50  LEU50      -0.1231
     64  CA         3.7120  -14.5520   22.7500 C.3    50  LEU50       0.1693
     65  C          3.4560  -13.2650   23.5130 C.2    50  LEU50       0.2592
     66  O          3.4480  -12.1790   22.9280 O.2    50  LEU50      -0.2718
     67  CB         2.3900  -15.1710   22.3030 C.3    50  LEU50       0.0284
     68  CG         2.5650  -16.2440   21.2230 C.3    50  LEU50       0.0019
     69  CD1        1.3480  -17.1530   21.1690 C.3    50  LEU50       0.0001
     70  CD2        2.8280  -15.6210   19.8590 C.3    50  LEU50       0.0001
     71  N          3.2470  -13.3960   24.8200 N.am   51  CYS51      -0.1970
     72  CA         3.1490  -12.2380   25.7030 C.3    51  CYS51       0.1712
     73  C          4.4650  -11.4530   25.7330 C.2    51  CYS51       0.2296
     74  O          4.4600  -10.2350   25.6460 O.2    51  CYS51      -0.2864
     75  CB         2.7360  -12.6640   27.1210 C.3    51  CYS51       0.0983
     76  SG         1.9780  -11.3400   28.0890 S.3    51  CYS51      -0.0798
     77  N          6.8480  -11.5900   23.3410 N.3    53  ARG53      -0.1231
     78  CA         7.0210  -11.0820   21.9760 C.3    53  ARG53       0.1694
     79  C          6.2430   -9.7880   21.7750 C.2    53  ARG53       0.2592
     80  O          6.8220   -8.7600   21.4110 O.2    53  ARG53      -0.2718
     81  CB         6.5510  -12.1450   20.9800 C.3    53  ARG53       0.0321
     82  CG         6.7000  -11.8260   19.5010 C.3    53  ARG53       0.0489
     83  CD         5.7840  -12.7160   18.6660 C.3    53  ARG53       0.2205
     84  NE         4.3800  -12.2850   18.7370 N.pl3  53  ARG53      -0.0865
     85  CZ         3.3880  -12.7310   17.9570 C.cat  53  ARG53       0.5346
     86  NH1        3.6070  -13.6410   17.0110 N.pl3  53  ARG53       0.1354
     87  NH2        2.1550  -12.2560   18.1210 N.pl3  53  ARG53       0.1354
     88  N          4.9380   -9.8460   22.0390 N.am   54  ASP54      -0.1960
     89  CA         4.0460   -8.6990   21.8390 C.3    54  ASP54       0.1840
     90  C          4.3920   -7.4980   22.7020 C.2    54  ASP54       0.2621
     91  O          4.3330   -6.3730   22.2340 O.2    54  ASP54      -0.2715
     92  CB         2.5890   -9.1070   22.0700 C.3    54  ASP54       0.1450
     93  CG         2.0540   -9.9990   20.9630 C.2    54  ASP54       0.3671
     94  OD1        2.8590  -10.5960   20.2070 O.co2  54  ASP54      -0.2456
     95  OD2        0.8260  -10.0980   20.8290 O.co2  54  ASP54      -0.2456
     96  N          4.7950   -7.7470   23.9440 N.am   55  ARG55      -0.1977
     97  CA         5.1810   -6.6690   24.8440 C.3    55  ARG55       0.1597
     98  C          6.3100   -5.8570   24.2130 C.2    55  ARG55       0.2287
     99  O          6.2460   -4.6290   24.1510 O.2    55  ARG55      -0.2864
    100  CB         5.6230   -7.2290   26.1970 C.3    55  ARG55       0.0334
    101  CG         5.7070   -6.1880   27.3020 C.3    55  ARG55       0.0492
    102  CD         6.0310   -6.8310   28.6410 C.3    55  ARG55       0.2205
    103  NE         4.9000   -7.5840   29.1740 N.pl3  55  ARG55      -0.0865
    104  CZ         4.8930   -8.9020   29.3430 C.cat  55  ARG55       0.5346
    105  NH1        5.9610   -9.6190   29.0210 N.pl3  55  ARG55       0.1354
    106  NH2        3.8190   -9.5040   29.8350 N.pl3  55  ARG55       0.1354
    107  N          7.1620   -5.6850   21.0810 N.3    57  TRP57      -0.1227
    108  CA         6.6490   -4.9800   19.9020 C.3    57  TRP57       0.1737
    109  C          5.8930   -3.7040   20.2650 C.2    57  TRP57       0.2595
    110  O          5.9500   -2.7370   19.5080 O.2    57  TRP57      -0.2718
    111  CB         5.7880   -5.8880   19.0100 C.3    57  TRP57       0.0564
    112  CG         6.5670   -6.9620   18.2700 C.ar   57  TRP57       0.0003
    113  CD1        7.9240   -7.0210   18.0850 C.ar   57  TRP57       0.0946
    114  CD2        6.0270   -8.1110   17.5970 C.ar   57  TRP57       0.0152
    115  NE1        8.2550   -8.1340   17.3570 N.ar   57  TRP57      -0.2442
    116  CE2        7.1140   -8.8210   17.0450 C.ar   57  TRP57       0.0810
    117  CE3        4.7300   -8.6130   17.4120 C.ar   57  TRP57       0.0012
    118  CZ2        6.9450  -10.0030   16.3280 C.ar   57  TRP57       0.0191
    119  CZ3        4.5590   -9.7820   16.6950 C.ar   57  TRP57       0.0001
    120  CH2        5.6630  -10.4670   16.1640 C.ar   57  TRP57       0.0015
    121  N          5.2070   -3.6880   21.4090 N.am   58  PHE58      -0.1976
    122  CA         4.5720   -2.4520   21.8900 C.3    58  PHE58       0.1639
    123  C          5.6060   -1.4050   22.2810 C.2    58  PHE58       0.2290
    124  O          5.4340   -0.2320   21.9680 O.2    58  PHE58      -0.2864
    125  CB         3.5830   -2.7100   23.0410 C.3    58  PHE58       0.0560
    126  CG         2.2540   -3.2330   22.5740 C.ar   58  PHE58      -0.0200
    127  CD1        1.3700   -2.4040   21.8930 C.ar   58  PHE58      -0.0042
    128  CD2        1.8870   -4.5510   22.8000 C.ar   58  PHE58      -0.0042
    129  CE1        0.1450   -2.8830   21.4460 C.ar   58  PHE58      -0.0003
    130  CE2        0.6650   -5.0360   22.3580 C.ar   58  PHE58      -0.0003
    131  CZ        -0.2050   -4.2020   21.6770 C.ar   58  PHE58      -0.0000
    132  N          6.6960    0.2440   19.1420 N.3    61  LEU61      -0.1245
    133  CA         5.6700    1.1670   18.6700 C.3    61  LEU61       0.1561
    134  C          5.7860    2.5380   19.3590 C.2    61  LEU61       0.2260
    135  O          5.5840    3.5730   18.7230 O.2    61  LEU61      -0.2867
    136  CB         4.2820    0.5700   18.8960 C.3    61  LEU61       0.0270
    137  CG         3.1390    1.1610   18.0730 C.3    61  LEU61       0.0019
    138  CD1        3.3640    0.9330   16.5880 C.3    61  LEU61       0.0001
    139  CD2        1.8160    0.5500   18.5130 C.3    61  LEU61       0.0001
    140  N         -0.2380    1.2080   12.6860 N.3    77  ILE77      -0.1231
    141  CA         0.0840   -0.1740   13.0740 C.3    77  ILE77       0.1692
    142  C         -0.5560   -0.6080   14.3940 C.2    77  ILE77       0.2592
    143  O         -0.9310   -1.7660   14.5430 O.2    77  ILE77      -0.2718
    144  CB         1.6170   -0.3770   13.1430 C.3    77  ILE77       0.0266
    145  CG1        2.2440   -0.0870   11.7710 C.3    77  ILE77       0.0019
    146  CG2        1.9760   -1.7970   13.5850 C.3    77  ILE77       0.0020
    147  CD1        3.6990    0.3080   11.8400 C.3    77  ILE77       0.0001
    148  N         -0.6650    0.3030   15.3500 N.am   78  GLY78      -0.1957
    149  CA        -1.1820   -0.0320   16.6790 C.3    78  GLY78       0.1869
    150  C         -2.6030   -0.5630   16.6680 C.2    78  GLY78       0.2309
    151  O         -2.8350   -1.7100   17.0510 O.2    78  GLY78      -0.2863
    152  N         -3.3190   -3.8960   14.8030 N.3    81  SER81      -0.1217
    153  CA        -2.7500   -4.9950   15.5970 C.3    81  SER81       0.1889
    154  C         -3.5490   -5.3080   16.8580 C.2    81  SER81       0.2288
    155  O         -3.7560   -6.4830   17.1840 O.2    81  SER81      -0.2866
    156  CB        -1.3140   -4.6780   15.9920 C.3    81  SER81       0.2089
    157  OG        -0.5410   -4.3480   14.8570 O.3    81  SER81      -0.2183
    158  N         -6.8290   -7.2060   15.9880 N.3    84  GLU84      -0.1231
    159  CA        -6.5440   -8.6070   15.6520 C.3    84  GLU84       0.1699
    160  C         -6.1560   -9.4700   16.8480 C.2    84  GLU84       0.2592
    161  O         -6.5160  -10.6450   16.9120 O.2    84  GLU84      -0.2718
    162  CB        -5.4390   -8.6850   14.5960 C.3    84  GLU84       0.0402
    163  CG        -5.8370   -8.1150   13.2470 C.3    84  GLU84       0.1161
    164  CD        -7.0420   -8.8190   12.6490 C.2    84  GLU84       0.3649
    165  OE1       -7.0230  -10.0660   12.5760 O.co2  84  GLU84      -0.2457
    166  OE2       -8.0150   -8.1260   12.2700 O.co2  84  GLU84      -0.2457
    167  N         -5.4240   -8.8820   17.7840 N.am   85  MET85      -0.1979
    168  CA        -4.9710   -9.5940   18.9750 C.3    85  MET85       0.1605
    169  C         -6.1600  -10.0710   19.8110 C.2    85  MET85       0.2287
    170  O         -6.2350  -11.2500   20.1680 O.2    85  MET85      -0.2864
    171  CB        -4.0580   -8.6900   19.8010 C.3    85  MET85       0.0413
    172  CG        -3.2040   -9.4100   20.8180 C.3    85  MET85       0.0598
    173  SD        -1.9320   -8.2920   21.4320 S.3    85  MET85      -0.1393
    174  CE        -2.9220   -7.1540   22.3990 C.3    85  MET85       0.0692
    175  N         -8.2460  -12.8370   18.2430 N.3    88  SER88      -0.1217
    176  CA        -7.6890  -14.1650   18.4990 C.3    88  SER88       0.1889
    177  C         -8.2010  -14.7360   19.8270 C.2    88  SER88       0.2288
    178  O         -8.5090  -15.9250   19.9100 O.2    88  SER88      -0.2866
    179  CB        -6.1650  -14.1370   18.4780 C.3    88  SER88       0.2089
    180  OG        -5.6700  -15.4520   18.3320 O.3    88  SER88      -0.2183
    181  N         -4.8210  -15.0660   26.7710 N.3    89  LEU89      -0.1231
    182  CA        -5.7850  -15.7750   27.6320 C.3    89  LEU89       0.1677
    183  C         -6.3950  -14.7350   28.5900 C.2    89  LEU89       0.2433
    184  O         -7.6230  -14.6470   28.6900 O.2    89  LEU89      -0.2733
    185  CB        -5.0850  -16.8470   28.4400 C.3    89  LEU89       0.0247
    186  CG        -6.0050  -18.0120   28.7990 C.3    89  LEU89       0.0018
    187  CD1       -6.6070  -18.6980   27.5730 C.3    89  LEU89       0.0001
    188  CD2       -5.2940  -19.1180   29.5830 C.3    89  LEU89       0.0001
    189  N         -5.5860  -13.8820   29.1870 N.am   90  PRO90      -0.2745
    190  CA        -6.1170  -12.6680   29.8410 C.3    90  PRO90       0.1401
    191  C         -6.6940  -11.7530   28.7720 C.2    90  PRO90       0.2269
    192  O         -6.3860  -11.9880   27.5970 O.2    90  PRO90      -0.2865
    193  CB        -4.9120  -12.1090   30.5960 C.3    90  PRO90       0.0296
    194  CG        -3.8360  -12.3270   29.5540 C.3    90  PRO90       0.0220
    195  CD        -4.1180  -13.7430   29.0600 C.3    90  PRO90       0.0759
    196  N         -5.4060   -8.3390   31.3260 N.3    93  ALA93      -0.1231
    197  CA        -3.9530   -8.5340   31.3870 C.3    93  ALA93       0.1694
    198  C         -3.2180   -7.7740   30.2790 C.2    93  ALA93       0.2591
    199  O         -2.0930   -7.3050   30.4910 O.2    93  ALA93      -0.2718
    200  CB        -3.6150  -10.0130   31.3090 C.3    93  ALA93       0.0304
    201  N         -3.8550   -7.6700   29.1070 N.am   94  MET94      -0.1979
    202  CA        -3.3310   -6.8920   27.9750 C.3    94  MET94       0.1605
    203  C         -3.0300   -5.4620   28.3970 C.2    94  MET94       0.2287
    204  O         -1.9480   -4.9510   28.1360 O.2    94  MET94      -0.2864
    205  CB        -4.3410   -6.8180   26.8250 C.3    94  MET94       0.0413
    206  CG        -4.7690   -8.1250   26.1710 C.3    94  MET94       0.0598
    207  SD        -3.4320   -9.1570   25.5570 S.3    94  MET94      -0.1393
    208  CE        -3.3030  -10.3200   26.9140 C.3    94  MET94       0.0692
    209  N         -0.3580   -5.2210   31.3970 N.3    97  SER97      -0.1217
    210  CA         1.0120   -5.4080   30.8800 C.3    97  SER97       0.1889
    211  C          1.5780   -4.1200   30.2650 C.2    97  SER97       0.2288
    212  O          2.7530   -3.8240   30.4460 O.2    97  SER97      -0.2866
    213  CB         1.1000   -6.5780   29.8900 C.3    97  SER97       0.2089
    214  OG         0.0970   -6.5120   28.9000 O.3    97  SER97      -0.2183
@<TRIPOS>BOND
     1   145   147    1
     2   145   144    1
     3   166   164   ar
     4   165   164   ar
     5   164   163    1
     6   140   141    1
     7   141   144    1
     8   141   142    1
     9   144   146    1
    10   163   162    1
    11   142   143    2
    12   142   148   am
    13   162   159    1
    14   152   153    1
    15   157   156    1
    16   148   149    1
    17   153   156    1
    18   153   154    1
    19   159   158    1
    20   159   160    1
    21   120   118   ar
    22   120   119   ar
    23   118   116   ar
    24   138   137    1
    25   150   149    1
    26   150   151    2
    27   119   117   ar
    28   160   161    2
    29   160   167   am
    30   154   155    2
    31    86    85    1
    32   116   115   ar
    33   116   114   ar
    34   115   113   ar
    35   117   114   ar
    36   114   112   ar
    37   167   168    1
    38    85    87    1
    39    85    84    2
    40   137   139    1
    41   137   136    1
    42   113   112   ar
    43   175   176    1
    44   112   111    1
    45    54    52    1
    46   180   179    1
    47   179   176    1
    48   176   177    1
    49    83    84    1
    50    83    82    1
    51   133   136    1
    52   133   132    1
    53   133   134    1
    54   135   134    2
    55    53    52    1
    56   168   171    1
    57   168   169    1
    58   111   108    1
    59    52    51    2
    60    82    81    1
    61   110   109    2
    62   171   172    1
    63   169   170    2
    64   177   178    2
    65    70    68    1
    66   108   109    1
    67   108   107    1
    68    51    50    1
    69    94    93   ar
    70   109   121   am
    71   172   173    1
    72    95    93   ar
    73    93    92    1
    74    81    78    1
    75    50    49    1
    76    69    68    1
    77    68    67    1
    78   121   122    1
    79    80    79    2
    80   173   174    1
    81   129   131   ar
    82   129   127   ar
    83   131   130   ar
    84    79    78    1
    85    79    88   am
    86    89    88    1
    87    89    92    1
    88    89    90    1
    89   122   123    1
    90   122   125    1
    91   127   126   ar
    92   124   123    2
    93    78    77    1
    94    49    48    1
    95    91    90    2
    96    67    64    1
    97   130   128   ar
    98   126   128   ar
    99   126   125    1
   100    90    96   am
   101    64    65    1
   102    64    63    1
   103    66    65    2
   104    48    45    1
   105    65    71   am
   106    47    46    2
   107    96    97    1
   108    45    46    1
   109    45    44    1
   110    99    98    2
   111    98    97    1
   112    46    55   am
   113    61    60   ar
   114    71    72    1
   115    97   100    1
   116    55    56    1
   117    60    62   ar
   118    60    59    1
   119    56    57    1
   120    56    59    1
   121   207   206    1
   122   207   208    1
   123    74    73    2
   124    72    73    1
   125    72    75    1
   126    58    57    2
   127   206   205    1
   128   100   101    1
   129   181   182    1
   130   205   202    1
   131    75    76    1
   132   101   102    1
   133   187   186    1
   134   192   191    2
   135   182   185    1
   136   182   183    1
   137    38   185    1
   138   202   203    1
   139   202   201    1
   140   204   203    2
   141    36   185    1
   142   185   186    1
   143   183   184    2
   144   183   189   am
   145   102   103    1
   146    34    33    2
   147   191   190    1
   148   186   188    1
   149   214   213    1
   150   105   104    1
   151   195   189    1
   152   195   194    1
   153   195    37    1
   154   201   198   am
   155   103   104    2
   156   189   190    1
   157   104   106    1
   158   194   193    1
   159    35    37    1
   160    35    32    1
   161   190   193    1
   162   213   210    1
   163    33    32    1
   164    33    39   am
   165   211   212    2
   166   211   210    1
   167   198   199    2
   168   198   197    1
   169    32    31    1
   170    40    39    1
   171    40    43    1
   172    40    41    1
   173   210   209    1
   174   200   197    1
   175    41    42    2
   176   196   197    1
   177    22    20   ar
   178    22    21   ar
   179    20    18   ar
   180     8     6    1
   181    21    19   ar
   182    18    17   ar
   183    18    16   ar
   184    26    25    2
   185     6     7    1
   186     6     5    1
   187    17    15   ar
   188    30    28    1
   189    29    28    1
   190     5     2    1
   191    19    16   ar
   192    27    28    1
   193    27    24    1
   194    25    24    1
   195    16    14   ar
   196    24    23    1
   197    15    14   ar
   198    14    13    1
   199     2     1    1
   200     2     3    1
   201     3     9   am
   202     3     4    2
   203     9    10    1
   204    13    10    1
   205    10    11    1
   206    11    12    2
