@<TRIPOS>MOLECULE
tmp/6fzuB01.pdb
 143 137 0 0 0
SMALL
GASTEIGER

@<TRIPOS>ATOM
      1  N         22.1810    0.6380    2.1570 N.3    23  GLN23      -0.1231
      2  CA        22.5430    0.3390    3.5570 C.3    23  GLN23       0.1698
      3  C         23.3760   -0.9280    3.7560 C.2    23  GLN23       0.2592
      4  O         24.4890   -0.8750    4.2680 O.2    23  GLN23      -0.2718
      5  CB        21.3180    0.3230    4.4920 C.3    23  GLN23       0.0381
      6  CG        21.6840    0.1990    5.9750 C.3    23  GLN23       0.0905
      7  CD        20.4810    0.0290    6.9030 C.2    23  GLN23       0.2608
      8  OE1       19.3270    0.0020    6.4640 O.2    23  GLN23      -0.2717
      9  NE2       20.7520   -0.0750    8.1970 N.am   23  GLN23      -0.0878
     10  N         22.8160   -2.0670    3.3850 N.am   24  LEU24      -0.1980
     11  CA        23.5200   -3.3270    3.4950 C.3    24  LEU24       0.1596
     12  C         23.7470   -3.9040    2.1040 C.2    24  LEU24       0.2287
     13  O         22.8650   -3.8460    1.2500 O.2    24  LEU24      -0.2864
     14  CB        22.7130   -4.3000    4.3580 C.3    24  LEU24       0.0297
     15  CG        22.3210   -3.8910    5.7850 C.3    24  LEU24       0.0022
     16  CD1       21.4070   -4.9610    6.3650 C.3    24  LEU24       0.0001
     17  CD2       23.5120   -3.6470    6.6930 C.3    24  LEU24       0.0001
     18  N         15.7050   -1.6730   18.9910 N.3    57  CYS57      -0.1235
     19  CA        14.9720   -1.7740   17.7270 C.3    57  CYS57       0.1677
     20  C         14.6850   -0.4110   17.0770 C.2    57  CYS57       0.2270
     21  O         14.8460   -0.2630   15.8670 O.2    57  CYS57      -0.2867
     22  CB        13.7070   -2.6250   17.8890 C.3    57  CYS57       0.0956
     23  SG        14.1490   -4.3630   18.1370 S.3    57  CYS57      -0.0801
     24  N         17.8280    0.7460   15.3690 N.3    60  HIS60      -0.1226
     25  CA        17.9710    0.0600   14.0880 C.3    60  HIS60       0.1752
     26  C         17.0060    0.5870   13.0310 C.2    60  HIS60       0.2595
     27  O         17.3900    0.7990   11.8800 O.2    60  HIS60      -0.2718
     28  CB        17.8100   -1.4500   14.2580 C.3    60  HIS60       0.0759
     29  CG        18.8340   -2.0530   15.1640 C.ar   60  HIS60       0.0818
     30  ND1       20.1580   -1.6640   15.1440 N.ar   60  HIS60      -0.2268
     31  CD2       18.7330   -3.0070   16.1180 C.ar   60  HIS60       0.1154
     32  CE1       20.8280   -2.3490   16.0580 C.ar   60  HIS60       0.1986
     33  NE2       19.9880   -3.1790   16.6530 N.ar   60  HIS60      -0.2212
     34  N         15.7550    0.8100   13.4250 N.am   61  LEU61      -0.1980
     35  CA        14.7660    1.2950   12.4880 C.3    61  LEU61       0.1596
     36  C         15.1420    2.7070   12.0110 C.2    61  LEU61       0.2287
     37  O         15.0130    3.0210   10.8240 O.2    61  LEU61      -0.2864
     38  CB        13.3820    1.2610   13.1270 C.3    61  LEU61       0.0297
     39  CG        12.1220    1.6380   12.3580 C.3    61  LEU61       0.0022
     40  CD1       12.1460    1.1480   10.8980 C.3    61  LEU61       0.0001
     41  CD2       10.9190    1.0460   13.1380 C.3    61  LEU61       0.0001
     42  N         17.9850    2.6310    9.3960 N.3    64  ALA64      -0.1245
     43  CA        17.3680    2.2610    8.1170 C.3    64  ALA64       0.1562
     44  C         16.5850    3.4220    7.4900 C.2    64  ALA64       0.2260
     45  O         16.6110    3.6140    6.2810 O.2    64  ALA64      -0.2867
     46  CB        16.4720    1.0470    8.2820 C.3    64  ALA64       0.0290
     47  N         13.5890   -4.6960    3.9610 N.3   102  MET102     -0.1245
     48  CA        13.8190   -5.7910    4.9090 C.3   102  MET102      0.1570
     49  C         13.8040   -7.1920    4.2820 C.2   102  MET102      0.2261
     50  O         14.4170   -8.1180    4.8090 O.2   102  MET102     -0.2867
     51  CB        12.7420   -5.7380    5.9990 C.3   102  MET102      0.0387
     52  CG        12.8740   -6.8400    7.0260 C.3   102  MET102      0.0595
     53  SD        11.6150   -6.7520    8.2920 S.3   102  MET102     -0.1393
     54  CE        11.5560   -4.9850    8.6110 C.3   102  MET102      0.0692
     55  N         16.9950   -9.0140    3.7840 N.3   105  ALA105     -0.1245
     56  CA        17.6510   -9.5280    4.9740 C.3   105  ALA105      0.1562
     57  C         16.9000  -10.7340    5.5250 C.2   105  ALA105      0.2260
     58  O         17.1610  -11.1690    6.6450 O.2   105  ALA105     -0.2867
     59  CB        17.7650   -8.4180    6.0250 C.3   105  ALA105      0.0290
     60  N         15.7550  -13.6130    9.9690 N.3   113  VAL113     -0.1231
     61  CA        16.1300  -12.2690    9.5000 C.3   113  VAL113      0.1692
     62  C         17.4940  -11.9140   10.0680 C.2   113  VAL113      0.2592
     63  O         17.8120  -12.2770   11.2020 O.2   113  VAL113     -0.2718
     64  CB        15.0940  -11.1780    9.8930 C.3   113  VAL113      0.0266
     65  CG1       15.0950  -10.9040   11.4030 C.3   113  VAL113      0.0020
     66  CG2       15.3220   -9.8650    9.1000 C.3   113  VAL113      0.0020
     67  N         18.2730  -11.1820    9.2780 N.am  114  PHE114     -0.1962
     68  CA        19.5510  -10.6720    9.7250 C.3   114  PHE114      0.1771
     69  C         19.3310   -9.5360   10.7200 C.2   114  PHE114      0.2620
     70  O         18.7220   -8.5130   10.3900 O.2   114  PHE114     -0.2715
     71  CB        20.3700  -10.1830    8.5430 C.3   114  PHE114      0.0574
     72  CG        21.7490   -9.7260    8.9260 C.ar  114  PHE114     -0.0200
     73  CD1       22.7460  -10.6590    9.2150 C.ar  114  PHE114     -0.0042
     74  CD2       22.0420   -8.3670    9.0290 C.ar  114  PHE114     -0.0042
     75  CE1       24.0300  -10.2390    9.5780 C.ar  114  PHE114     -0.0003
     76  CE2       23.3140   -7.9450    9.3870 C.ar  114  PHE114     -0.0003
     77  CZ        24.3090   -8.8850    9.6660 C.ar  114  PHE114     -0.0000
     78  N         19.8290   -9.7270   11.9330 N.am  115  PHE115     -0.1960
     79  CA        19.6230   -8.7810   13.0200 C.3   115  PHE115      0.1771
     80  C         20.8620   -8.8060   13.8990 C.2   115  PHE115      0.2619
     81  O         21.3090   -9.8730   14.3430 O.2   115  PHE115     -0.2715
     82  CB        18.3510   -9.1530   13.8050 C.3   115  PHE115      0.0574
     83  CG        18.0820   -8.2930   15.0110 C.ar  115  PHE115     -0.0200
     84  CD1       17.4660   -7.0470   14.8790 C.ar  115  PHE115     -0.0042
     85  CD2       18.4010   -8.7460   16.2880 C.ar  115  PHE115     -0.0042
     86  CE1       17.2040   -6.2590   15.9860 C.ar  115  PHE115     -0.0003
     87  CE2       18.1490   -7.9630   17.4080 C.ar  115  PHE115     -0.0003
     88  CZ        17.5380   -6.7130   17.2650 C.ar  115  PHE115     -0.0000
     89  N         21.4300   -7.6280   14.1260 N.am  116  GLU116     -0.1977
     90  CA        22.6220   -7.4860   14.9620 C.3   116  GLU116      0.1602
     91  C         23.7150   -8.5370   14.6700 C.2   116  GLU116      0.2287
     92  O         24.3030   -9.1050   15.5800 O.2   116  GLU116     -0.2864
     93  CB        22.2350   -7.4360   16.4530 C.3   116  GLU116      0.0415
     94  CG        21.2990   -6.2490   16.7890 C.3   116  GLU116      0.1163
     95  CD        21.0230   -6.0730   18.2770 C.2   116  GLU116      0.3649
     96  OE1       21.2420   -7.0230   19.0740 O.co2 116  GLU116     -0.2457
     97  OE2       20.5700   -4.9740   18.6590 O.co2 116  GLU116     -0.2457
     98  N         12.3570  -11.7940   18.9240 N.3   125  PHE125     -0.1241
     99  CA        11.8030  -10.4640   19.1750 C.3   125  PHE125      0.1605
    100  C         10.7440  -10.4300   20.2780 C.2   125  PHE125      0.2264
    101  O         10.0490   -9.4290   20.4530 O.2   125  PHE125     -0.2867
    102  CB        11.2890   -9.8410   17.8610 C.3   125  PHE125      0.0534
    103  CG        12.3590   -9.6900   16.8170 C.ar  125  PHE125     -0.0203
    104  CD1       12.5470  -10.6680   15.8450 C.ar  125  PHE125     -0.0042
    105  CD2       13.2140   -8.5930   16.8380 C.ar  125  PHE125     -0.0042
    106  CE1       13.5420  -10.5430   14.8930 C.ar  125  PHE125     -0.0003
    107  CE2       14.2120   -8.4630   15.8940 C.ar  125  PHE125     -0.0003
    108  CZ        14.3810   -9.4320   14.9210 C.ar  125  PHE125     -0.0000
    109  N          9.8410   -7.5960   22.9290 N.3   128  LEU128     -0.1245
    110  CA         9.1090   -6.4170   22.4580 C.3   128  LEU128      0.1561
    111  C          7.6430   -6.4360   22.8760 C.2   128  LEU128      0.2260
    112  O          7.0300   -5.3830   23.0180 O.2   128  LEU128     -0.2867
    113  CB         9.1840   -6.2660   20.9300 C.3   128  LEU128      0.0270
    114  CG        10.5220   -5.9380   20.2710 C.3   128  LEU128      0.0019
    115  CD1       10.3990   -5.9960   18.7420 C.3   128  LEU128      0.0001
    116  CD2       10.9920   -4.5710   20.7180 C.3   128  LEU128      0.0001
    117  N          5.0810   -8.5830   14.8310 N.3   134  ILE134     -0.1245
    118  CA         6.2940   -9.2560   14.3510 C.3   134  ILE134      0.1561
    119  C          5.9680  -10.4100   13.3940 C.2   134  ILE134      0.2260
    120  O          6.5940  -10.5410   12.3420 O.2   134  ILE134     -0.2867
    121  CB         7.2150   -9.7400   15.5120 C.3   134  ILE134      0.0252
    122  CG1        7.6570   -8.5670   16.4080 C.3   134  ILE134      0.0019
    123  CG2        8.4120  -10.5440   14.9700 C.3   134  ILE134      0.0019
    124  CD1        8.1200   -7.2830   15.6670 C.3   134  ILE134      0.0001
    125  N          5.0070   -9.0120   10.1480 N.3   137  ILE137     -0.1231
    126  CA         6.1600   -8.4860    9.3950 C.3   137  ILE137      0.1692
    127  C          6.9320   -9.6360    8.7710 C.2   137  ILE137      0.2592
    128  O          7.3440   -9.5620    7.6050 O.2   137  ILE137     -0.2718
    129  CB         7.0610   -7.5880   10.2790 C.3   137  ILE137      0.0266
    130  CG1        6.3770   -6.2430   10.5330 C.3   137  ILE137      0.0019
    131  CG2        8.4390   -7.3640    9.6250 C.3   137  ILE137      0.0020
    132  CD1        7.0170   -5.4210   11.6360 C.3   137  ILE137      0.0001
    133  N          7.1080  -10.7150    9.5330 N.am  138  PHE138     -0.1976
    134  CA         7.7340  -11.9230    8.9970 C.3   138  PHE138      0.1639
    135  C          6.9650  -12.5000    7.8120 C.2   138  PHE138      0.2290
    136  O          7.5710  -12.8810    6.8110 O.2   138  PHE138     -0.2864
    137  CB         7.9680  -12.9800   10.0960 C.3   138  PHE138      0.0560
    138  CG         9.3140  -12.8480   10.7720 C.ar  138  PHE138     -0.0200
    139  CD1        9.6030  -11.7330   11.5670 C.ar  138  PHE138     -0.0042
    140  CD2       10.2990  -13.8130   10.5810 C.ar  138  PHE138     -0.0042
    141  CE1       10.8630  -11.5850   12.1790 C.ar  138  PHE138     -0.0003
    142  CE2       11.5550  -13.6860   11.1890 C.ar  138  PHE138     -0.0003
    143  CZ        11.8340  -12.5640   11.9920 C.ar  138  PHE138     -0.0000
@<TRIPOS>BOND
     1    13    12    2
     2    12    11    1
     3     1     2    1
     4    10    11    1
     5    10     3   am
     6    11    14    1
     7     2     3    1
     8     2     5    1
     9     3     4    2
    10    55    56    1
    11    47    48    1
    12    49    50    2
    13    49    48    1
    14    14    15    1
    15     5     6    1
    16    48    51    1
    17    56    57    1
    18    56    59    1
    19    57    58    2
    20    15    16    1
    21    15    17    1
    22     6     7    1
    23    51    52    1
    24    45    44    2
    25     8     7    2
    26   136   135    2
    27     7     9   am
    28    52    53    1
    29    44    43    1
    30   128   127    2
    31   135   134    1
    32    43    46    1
    33    43    42    1
    34    53    54    1
    35    71    72    1
    36    71    68    1
    37   127   126    1
    38   127   133   am
    39    72    74   ar
    40    72    73   ar
    41   134   133    1
    42   134   137    1
    43    74    76   ar
    44    66    64    1
    45    73    75   ar
    46    67    68    1
    47    67    62   am
    48    76    77   ar
    49   126   125    1
    50   126   129    1
    51    61    64    1
    52    61    60    1
    53    61    62    1
    54    75    77   ar
    55   131   129    1
    56    68    69    1
    57    64    65    1
    58    62    63    2
    59   137   138    1
    60   129   130    1
    61    70    69    2
    62   130   132    1
    63   140   138   ar
    64   140   142   ar
    65    69    78   am
    66   138   139   ar
    67    37    36    2
    68    40    39    1
    69   142   143   ar
    70   139   141   ar
    71    27    26    2
    72    78    79    1
    73   143   141   ar
    74    36    35    1
    75   120   119    2
    76    39    38    1
    77    39    41    1
    78    35    38    1
    79    35    34    1
    80    79    82    1
    81    79    80    1
    82    26    34   am
    83    26    25    1
    84   119   118    1
    85    82    83    1
    86    80    89   am
    87    80    81    2
    88    25    28    1
    89    25    24    1
    90    89    90    1
    91    28    29    1
    92   118   117    1
    93   118   121    1
    94    91    90    1
    95    91    92    2
    96    84    83   ar
    97    84    86   ar
    98   106   108   ar
    99   106   104   ar
   100   108   107   ar
   101    90    93    1
   102   123   121    1
   103    83    85   ar
   104    30    29   ar
   105    30    32   ar
   106    29    31   ar
   107   121   122    1
   108   124   122    1
   109   104   103   ar
   110    21    20    2
   111   107   105   ar
   112    86    88   ar
   113    32    33   ar
   114    31    33   ar
   115    85    87   ar
   116    93    94    1
   117    94    95    1
   118   103   105   ar
   119   103   102    1
   120    20    19    1
   121    88    87   ar
   122    19    22    1
   123    19    18    1
   124   102    99    1
   125    22    23    1
   126    95    97   ar
   127    95    96   ar
   128   115   114    1
   129    98    99    1
   130    99   100    1
   131   114   116    1
   132   114   113    1
   133   100   101    2
   134   113   110    1
   135   110   111    1
   136   110   109    1
   137   111   112    2
