@<TRIPOS>MOLECULE
tmp/6g01B00.pdb
 179 168 0 0 0
SMALL
GASTEIGER

@<TRIPOS>ATOM
      1  N         39.3640   54.4190   25.5990 N.3    37  ARG37      -0.1231
      2  CA        38.0350   54.2310   26.1480 C.3    37  ARG37       0.1694
      3  C         37.5920   52.8010   25.8030 C.2    37  ARG37       0.2591
      4  O         38.3230   52.0680   25.1320 O.2    37  ARG37      -0.2718
      5  CB        37.0580   55.2950   25.6390 C.3    37  ARG37       0.0321
      6  CG        36.8290   56.4930   26.5470 C.3    37  ARG37       0.0489
      7  CD        35.4370   57.0200   26.3820 C.3    37  ARG37       0.2205
      8  NE        34.4980   56.0640   26.8900 N.pl3  37  ARG37      -0.0865
      9  CZ        33.2170   55.9580   26.5200 C.cat  37  ARG37       0.5346
     10  NH1       32.6710   56.8080   25.6580 N.pl3  37  ARG37       0.1354
     11  NH2       32.4860   54.9800   27.0350 N.pl3  37  ARG37       0.1354
     12  N         36.4010   52.4340   26.2370 N.am   38  GLU38      -0.1979
     13  CA        35.8620   51.1070   26.0110 C.3    38  GLU38       0.1602
     14  C         36.8180   49.9890   26.5070 C.2    38  GLU38       0.2287
     15  O         37.0740   48.9900   25.7890 O.2    38  GLU38      -0.2864
     16  CB        35.4710   50.9200   24.5340 C.3    38  GLU38       0.0415
     17  CG        34.4650   51.9380   23.9820 C.3    38  GLU38       0.1163
     18  CD        35.0420   53.2610   23.4870 C.2    38  GLU38       0.3649
     19  OE1       36.2510   53.3770   23.1840 O.co2  38  GLU38      -0.2457
     20  OE2       34.2580   54.2150   23.3650 O.co2  38  GLU38      -0.2457
     21  N         37.0350   62.8080   21.9120 N.3    68  ILE68      -0.1245
     22  CA        35.5920   62.5670   21.9960 C.3    68  ILE68       0.1561
     23  C         35.0850   61.7640   20.7750 C.2    68  ILE68       0.2260
     24  O         34.0890   61.0250   20.8560 O.2    68  ILE68      -0.2867
     25  CB        34.7900   63.8960   22.1190 C.3    68  ILE68       0.0252
     26  CG1       33.3140   63.6500   22.4980 C.3    68  ILE68       0.0019
     27  CG2       34.8510   64.7340   20.8290 C.3    68  ILE68       0.0019
     28  CD1       33.1150   62.9280   23.8070 C.3    68  ILE68       0.0001
     29  N         34.4320   58.9380   18.2340 N.3    70  ASP70      -0.1225
     30  CA        34.3610   57.4640   18.4380 C.3    70  ASP70       0.1805
     31  C         35.1560   56.5800   17.4810 C.2    70  ASP70       0.2597
     32  O         35.7290   55.5940   17.9320 O.2    70  ASP70      -0.2718
     33  CB        32.9080   57.0200   18.4460 C.3    70  ASP70       0.1424
     34  CG        32.1580   57.5080   19.6670 C.2    70  ASP70       0.3668
     35  OD1       32.6260   57.2380   20.7870 O.co2  70  ASP70      -0.2456
     36  OD2       31.0730   58.1250   19.5080 O.co2  70  ASP70      -0.2456
     37  N         35.1480   56.8880   16.1760 N.am   71  ARG71      -0.1979
     38  CA        35.6710   55.9730   15.1610 C.3    71  ARG71       0.1597
     39  C         36.6670   56.7130   14.2920 C.2    71  ARG71       0.2287
     40  O         36.3890   57.8220   13.7970 O.2    71  ARG71      -0.2864
     41  CB        34.5140   55.3780   14.3220 C.3    71  ARG71       0.0334
     42  CG        33.4800   54.6510   15.1730 C.3    71  ARG71       0.0492
     43  CD        32.2830   54.1040   14.3940 C.3    71  ARG71       0.2205
     44  NE        31.5580   55.1950   13.7440 N.pl3  71  ARG71      -0.0865
     45  CZ        30.7110   56.0140   14.3610 C.cat  71  ARG71       0.5346
     46  NH1       30.4860   55.9440   15.6660 N.pl3  71  ARG71       0.1354
     47  NH2       30.1030   56.9550   13.6490 N.pl3  71  ARG71       0.1354
     48  N         42.4660   54.0870   15.8400 N.3    75  ARG75      -0.1245
     49  CA        42.0850   53.3230   17.0260 C.3    75  ARG75       0.1563
     50  C         42.5140   51.8650   16.8770 C.2    75  ARG75       0.2260
     51  O         42.3610   51.3000   15.8030 O.2    75  ARG75      -0.2867
     52  CB        40.5830   53.4040   17.2850 C.3    75  ARG75       0.0307
     53  CG        40.1510   54.8430   17.5370 C.3    75  ARG75       0.0489
     54  CD        38.8850   54.8730   18.3590 C.3    75  ARG75       0.2205
     55  NE        39.1300   54.6380   19.7740 N.pl3  75  ARG75      -0.0865
     56  CZ        38.2170   54.7710   20.7310 C.cat  75  ARG75       0.5346
     57  NH1       36.9780   55.1190   20.4420 N.pl3  75  ARG75       0.1354
     58  NH2       38.5490   54.5150   21.9910 N.pl3  75  ARG75       0.1354
     59  N         37.8330   50.1140   16.1120 N.3    98  TRP98      -0.1227
     60  CA        37.0670   51.0910   16.8470 C.3    98  TRP98       0.1737
     61  C         35.8450   50.5250   17.5670 C.2    98  TRP98       0.2596
     62  O         35.0840   51.2830   18.1780 O.2    98  TRP98      -0.2718
     63  CB        36.7410   52.3160   15.9620 C.3    98  TRP98       0.0564
     64  CG        36.1820   52.0840   14.5910 C.ar   98  TRP98       0.0003
     65  CD1       36.8230   52.3620   13.4170 C.ar   98  TRP98       0.0946
     66  CD2       34.9050   51.5370   14.2350 C.ar   98  TRP98       0.0152
     67  NE1       36.0260   52.0650   12.3530 N.ar   98  TRP98      -0.2442
     68  CE2       34.8460   51.5330   12.8190 C.ar   98  TRP98       0.0810
     69  CE3       33.8200   51.0250   14.9580 C.ar   98  TRP98       0.0012
     70  CZ2       33.7580   51.0300   12.1210 C.ar   98  TRP98       0.0191
     71  CZ3       32.7110   50.5430   14.2550 C.ar   98  TRP98       0.0001
     72  CH2       32.6750   50.5750   12.8630 C.ar   98  TRP98       0.0015
     73  N         35.6910   49.1870   17.5320 N.am   99  SER99      -0.1952
     74  CA        34.7260   48.4480   18.3490 C.3    99  SER99       0.1924
     75  C         35.3030   47.0130   18.4410 C.2    99  SER99       0.2314
     76  O         35.9470   46.5690   17.5000 O.2    99  SER99      -0.2863
     77  CB        33.3610   48.3590   17.6580 C.3    99  SER99       0.2116
     78  OG        32.4130   47.6830   18.4970 O.3    99  SER99      -0.2180
     79  N         27.3770   51.2350   10.6080 N.3   142  ILE142     -0.1245
     80  CA        28.2550   51.0900   11.7820 C.3   142  ILE142      0.1561
     81  C         28.1440   49.7100   12.4150 C.2   142  ILE142      0.2260
     82  O         27.6070   49.5680   13.5410 O.2   142  ILE142     -0.2867
     83  CB        28.0390   52.1850   12.8440 C.3   142  ILE142      0.0252
     84  CG1       27.9450   53.5600   12.1760 C.3   142  ILE142      0.0019
     85  CG2       29.1970   52.1850   13.8720 C.3   142  ILE142      0.0019
     86  CD1       27.5140   54.6700   13.0940 C.3   142  ILE142      0.0001
     87  N         29.0420   46.8930   14.6760 N.3   144  ARG144     -0.1245
     88  CA        29.5830   47.1440   16.0220 C.3   144  ARG144      0.1563
     89  C         29.2960   45.9950   16.9680 C.2   144  ARG144      0.2260
     90  O         28.4280   45.1640   16.7220 O.2   144  ARG144     -0.2867
     91  CB        29.0530   48.5010   16.5400 C.3   144  ARG144      0.0307
     92  CG        27.5320   48.5800   16.5990 C.3   144  ARG144      0.0489
     93  CD        27.0890   50.0330   16.8140 C.3   144  ARG144      0.2205
     94  NE        25.6360   50.2080   16.9360 N.pl3 144  ARG144     -0.0865
     95  CZ        24.8020   50.4710   15.9420 C.cat 144  ARG144      0.5346
     96  NH1       25.2130   50.5320   14.6760 N.pl3 144  ARG144      0.1354
     97  NH2       23.5020   50.6310   16.2170 N.pl3 144  ARG144      0.1354
     98  N         32.1830   45.5640   23.1740 N.3   147  GLU147     -0.1245
     99  CA        33.0830   46.2790   24.0740 C.3   147  GLU147      0.1567
    100  C         33.2410   45.6080   25.4330 C.2   147  GLU147      0.2260
    101  O         33.5390   46.2570   26.4460 O.2   147  GLU147     -0.2867
    102  CB        32.6870   47.7730   24.2530 C.3   147  GLU147      0.0388
    103  CG        32.0380   48.4390   23.0560 C.3   147  GLU147      0.1160
    104  CD        32.8860   48.5320   21.7910 C.2   147  GLU147      0.3649
    105  OE1       34.0280   48.0060   21.7360 O.co2 147  GLU147     -0.2457
    106  OE2       32.4030   49.1600   20.8080 O.co2 147  GLU147     -0.2457
    107  N         21.2420   53.7140   15.7660 N.3   166  SER166     -0.1217
    108  CA        21.4380   53.7430   17.2020 C.3   166  SER166      0.1889
    109  C         20.2790   54.4510   17.9160 C.2   166  SER166      0.2288
    110  O         20.2790   54.5640   19.1550 O.2   166  SER166     -0.2866
    111  CB        22.7900   54.3500   17.5430 C.3   166  SER166      0.2089
    112  OG        22.8690   55.7010   17.1820 O.3   166  SER166     -0.2183
    113  N         22.5100   46.9750   22.1320 N.3   196  GLU196     -0.1231
    114  CA        23.8450   47.5310   21.9280 C.3   196  GLU196      0.1699
    115  C         24.7480   47.0160   23.0080 C.2   196  GLU196      0.2592
    116  O         24.3150   46.8640   24.1690 O.2   196  GLU196     -0.2718
    117  CB        23.8200   49.0640   22.0560 C.3   196  GLU196      0.0402
    118  CG        22.9360   49.8100   21.0800 C.3   196  GLU196      0.1161
    119  CD        23.5190   50.0330   19.7070 C.2   196  GLU196      0.3649
    120  OE1       24.5270   49.3990   19.3470 O.co2 196  GLU196     -0.2457
    121  OE2       22.9630   50.9220   18.9860 O.co2 196  GLU196     -0.2457
    122  N         26.0270   46.8370   22.6510 N.am  197  GLU197     -0.1979
    123  CA        27.1100   46.6780   23.6650 C.3   197  GLU197      0.1602
    124  C         26.7950   45.6290   24.7300 C.2   197  GLU197      0.2287
    125  O         26.8930   45.8660   25.9580 O.2   197  GLU197     -0.2864
    126  CB        27.4170   48.0450   24.2650 C.3   197  GLU197      0.0415
    127  CG        27.9440   49.0500   23.2550 C.3   197  GLU197      0.1163
    128  CD        28.0090   50.4760   23.7730 C.2   197  GLU197      0.3649
    129  OE1       27.2510   50.8350   24.7100 O.co2 197  GLU197     -0.2457
    130  OE2       28.8890   51.2060   23.2610 O.co2 197  GLU197     -0.2457
    131  N         22.2900   47.2420   26.1810 N.3   212  ARG212     -0.1245
    132  CA        21.8560   48.6510   26.2360 C.3   212  ARG212      0.1563
    133  C         20.8330   48.9060   25.1220 C.2   212  ARG212      0.2260
    134  O         21.1310   48.7030   23.9510 O.2   212  ARG212     -0.2867
    135  CB        23.0870   49.5230   25.9890 C.3   212  ARG212      0.0307
    136  CG        22.8660   51.0080   25.7180 C.3   212  ARG212      0.0489
    137  CD        24.1990   51.6580   25.3710 C.3   212  ARG212      0.2205
    138  NE        24.1060   53.0710   24.9510 N.pl3 212  ARG212     -0.0865
    139  CZ        25.1420   53.8870   24.7820 C.cat 212  ARG212      0.5346
    140  NH1       26.3840   53.4810   25.0620 N.pl3 212  ARG212      0.1354
    141  NH2       24.9480   55.1520   24.3730 N.pl3 212  ARG212      0.1354
    142  N         19.4270   51.8300   23.2630 N.3   214  ASN214     -0.1240
    143  CA        19.7200   53.2460   23.0140 C.3   214  ASN214      0.1653
    144  C         18.5720   54.0080   22.3540 C.2   214  ASN214      0.2266
    145  O         18.6640   55.2160   22.1960 O.2   214  ASN214     -0.2867
    146  CB        20.9570   53.3620   22.1300 C.3   214  ASN214      0.1155
    147  CG        21.7880   54.5860   22.4410 C.2   214  ASN214      0.2627
    148  OD1       22.2300   54.7510   23.5960 O.2   214  ASN214     -0.2716
    149  ND2       22.0310   55.4510   21.4150 N.am  214  ASN214     -0.0877
    150  N         26.5930   60.2300   33.9380 N.3   287  ARG287     -0.1245
    151  CA        27.4460   59.0770   34.2300 C.3   287  ARG287      0.1563
    152  C         28.2680   59.3470   35.4910 C.2   287  ARG287      0.2260
    153  O         29.4850   59.5510   35.4520 O.2   287  ARG287     -0.2867
    154  CB        28.2940   58.7460   33.0170 C.3   287  ARG287      0.0307
    155  CG        27.4150   58.3150   31.8300 C.3   287  ARG287      0.0489
    156  CD        28.2070   58.1830   30.5490 C.3   287  ARG287      0.2205
    157  NE        27.3910   57.5760   29.5060 N.pl3 287  ARG287     -0.0865
    158  CZ        27.8490   57.2270   28.3040 C.cat 287  ARG287      0.5346
    159  NH1       29.1250   57.3870   27.9950 N.pl3 287  ARG287      0.1354
    160  NH2       27.0380   56.6750   27.4190 N.pl3 287  ARG287      0.1354
    161  N         31.1250   53.3580   31.3400 N.3   321  TYR321     -0.1241
    162  CA        30.7660   51.9780   30.9370 C.3   321  TYR321      0.1605
    163  C         31.0200   51.0030   32.0800 C.2   321  TYR321      0.2264
    164  O         31.8650   51.2370   32.9680 O.2   321  TYR321     -0.2867
    165  CB        31.5650   51.5700   29.6730 C.3   321  TYR321      0.0534
    166  CG        30.9920   52.0640   28.3710 C.ar  321  TYR321     -0.0201
    167  CD1       30.0540   53.1140   28.3250 C.ar  321  TYR321     -0.0009
    168  CD2       31.3340   51.4380   27.1630 C.ar  321  TYR321     -0.0009
    169  CE1       29.4720   53.5090   27.1300 C.ar  321  TYR321      0.0417
    170  CE2       30.7780   51.8530   25.9590 C.ar  321  TYR321      0.0417
    171  CZ        29.8470   52.8990   25.9580 C.ar  321  TYR321      0.1957
    172  OH        29.2620   53.3230   24.7880 O.3   321  TYR321     -0.2866
    173  N         32.4610   64.7000   27.2850 N.3   350  PRO350     -0.2116
    174  CA        31.9240   66.0620   27.1370 C.3   350  PRO350      0.1372
    175  C         31.7800   66.8520   28.4370 C.2   350  PRO350      0.2244
    176  O         31.4720   68.0490   28.3750 O.2   350  PRO350     -0.2868
    177  CB        30.5280   65.8250   26.5620 C.3   350  PRO350      0.0268
    178  CG        30.1420   64.4490   27.0610 C.3   350  PRO350      0.0207
    179  CD        31.4070   63.6720   27.3030 C.3   350  PRO350      0.0892
@<TRIPOS>BOND
     1    79    80    1
     2    80    81    1
     3    80    83    1
     4    70    68   ar
     5    70    72   ar
     6    84    83    1
     7    84    86    1
     8    67    68   ar
     9    67    65   ar
    10    81    82    2
    11    68    66   ar
    12    83    85    1
    13    72    71   ar
    14    65    64   ar
    15    47    45    1
    16    44    45    2
    17    44    43    1
    18    40    39    2
    19    66    64   ar
    20    66    69   ar
    21    71    69   ar
    22    39    38    1
    23    41    38    1
    24    41    42    1
    25    45    46    1
    26    43    42    1
    27    64    63    1
    28    87    88    1
    29    96    95    1
    30    38    37    1
    31   107   108    1
    32    51    50    2
    33    48    49    1
    34    95    97    1
    35    95    94    2
    36    63    60    1
    37    88    91    1
    38    88    89    1
    39    59    60    1
    40    37    31   am
    41    91    92    1
    42    92    93    1
    43    90    89    2
    44    93    94    1
    45    60    61    1
    46    50    49    1
    47    49    52    1
    48   112   111    1
    49   108   111    1
    50   108   109    1
    51    52    53    1
    52    31    32    2
    53    31    30    1
    54    76    75    2
    55    73    61   am
    56    73    74    1
    57    53    54    1
    58    61    62    2
    59    77    74    1
    60    77    78    1
    61   109   110    2
    62    29    30    1
    63    74    75    1
    64    54    55    1
    65    30    33    1
    66    33    34    1
    67   121   119   ar
    68   120   119   ar
    69    36    34   ar
    70    34    35   ar
    71   119   118    1
    72    55    56    2
    73    57    56    1
    74    56    58    1
    75    23    24    2
    76    23    22    1
    77   106   104   ar
    78    27    25    1
    79   118   117    1
    80   149   147   am
    81   105   104   ar
    82   104   103    1
    83    21    22    1
    84   114   117    1
    85   114   113    1
    86   114   115    1
    87    22    25    1
    88    25    26    1
    89   146   147    1
    90   146   143    1
    91   145   144    2
    92   144   143    1
    93   147   148    2
    94    26    28    1
    95   122   115   am
    96   122   123    1
    97   115   116    2
    98   143   142    1
    99   103   102    1
   100    98    99    1
   101    19    18   ar
   102   127   128    1
   103   127   126    1
   104   130   128   ar
   105    20    18   ar
   106    18    17    1
   107   123   126    1
   108   123   124    1
   109   128   129   ar
   110   134   133    2
   111    17    16    1
   112    99   102    1
   113    99   100    1
   114   141   139    1
   115    16    13    1
   116   124   125    2
   117   139   138    2
   118   139   140    1
   119   172   171    1
   120   138   137    1
   121   133   132    1
   122     4     3    2
   123   137   136    1
   124   100   101    2
   125     1     2    1
   126     5     2    1
   127     5     6    1
   128    10     9    1
   129   136   135    1
   130    15    14    2
   131     3     2    1
   132     3    12   am
   133   171   170   ar
   134   171   169   ar
   135   170   168   ar
   136   135   132    1
   137    13    12    1
   138    13    14    1
   139   131   132    1
   140     7     6    1
   141     7     8    1
   142     9     8    2
   143     9    11    1
   144   177   178    1
   145   177   174    1
   146   178   179    1
   147   169   167   ar
   148   174   173    1
   149   174   175    1
   150   168   166   ar
   151   173   179    1
   152   160   158    1
   153   159   158    1
   154   158   157    2
   155   167   166   ar
   156   166   165    1
   157   176   175    2
   158   157   156    1
   159   165   162    1
   160   156   155    1
   161   162   161    1
   162   162   163    1
   163   155   154    1
   164   163   164    2
   165   154   151    1
   166   150   151    1
   167   151   152    1
   168   153   152    2
