@<TRIPOS>MOLECULE
tmp/6g02A00.pdb
 198 186 0 0 0
SMALL
GASTEIGER

@<TRIPOS>ATOM
      1  N         12.6390   15.9220    8.6890 N.3    37  ARG37      -0.1231
      2  CA        12.7410   17.3510    8.5410 C.3    37  ARG37       0.1694
      3  C         13.2200   17.5860    7.1420 C.2    37  ARG37       0.2591
      4  O         13.4590   16.6250    6.3840 O.2    37  ARG37      -0.2718
      5  CB        13.6840   17.9630    9.5970 C.3    37  ARG37       0.0321
      6  CG        13.0000   18.5760   10.7970 C.3    37  ARG37       0.0489
      7  CD        13.7580   19.8200   11.2790 C.3    37  ARG37       0.2205
      8  NE        13.7010   20.9030   10.2790 N.pl3  37  ARG37      -0.0865
      9  CZ        14.5980   21.8810   10.1860 C.cat  37  ARG37       0.5346
     10  NH1       15.5700   21.9980   11.1000 N.pl3  37  ARG37       0.1354
     11  NH2       14.4790   22.8010    9.2370 N.pl3  37  ARG37       0.1354
     12  N         13.3940   18.8430    6.7860 N.am   38  GLU38      -0.1979
     13  CA        13.8310   19.1970    5.4400 C.3    38  GLU38       0.1602
     14  C         12.9290   18.5710    4.3360 C.2    38  GLU38       0.2287
     15  O         13.4320   18.0020    3.3710 O.2    38  GLU38      -0.2864
     16  CB        15.3140   18.8220    5.2520 C.3    38  GLU38       0.0415
     17  CG        16.2000   19.5640    6.2690 C.3    38  GLU38       0.1163
     18  CD        16.4670   18.8200    7.5570 C.2    38  GLU38       0.3649
     19  OE1       16.2710   17.5840    7.6110 O.co2  38  GLU38      -0.2457
     20  OE2       16.8820   19.4870    8.5640 O.co2  38  GLU38      -0.2457
     21  N         16.9660   16.3120   17.0960 N.3    68  ILE68      -0.1245
     22  CA        17.4860   17.6590   16.8230 C.3    68  ILE68       0.1561
     23  C         18.7580   17.5670   15.9870 C.2    68  ILE68       0.2260
     24  O         19.0780   18.4870   15.2270 O.2    68  ILE68      -0.2867
     25  CB        17.7830   18.4490   18.1220 C.3    68  ILE68       0.0252
     26  CG1       18.1910   19.9240   17.8150 C.3    68  ILE68       0.0019
     27  CG2       18.8610   17.7430   18.9710 C.3    68  ILE68       0.0019
     28  CD1       17.0450   20.7600   17.3170 C.3    68  ILE68       0.0001
     29  N         21.4350   16.9890   13.1580 N.3    70  ASP70      -0.1225
     30  CA        21.2810   17.1270   11.6970 C.3    70  ASP70       0.1805
     31  C         21.7880   15.9500   10.8640 C.2    70  ASP70       0.2597
     32  O         21.1470   15.5440    9.8980 O.2    70  ASP70      -0.2718
     33  CB        21.9660   18.4080   11.1940 C.3    70  ASP70       0.1424
     34  CG        21.2660   19.6570   11.6390 C.2    70  ASP70       0.3668
     35  OD1       20.0590   19.7670   11.3770 O.co2  70  ASP70      -0.2456
     36  OD2       21.9580   20.5710   12.1640 O.co2  70  ASP70      -0.2456
     37  N         22.9200   15.3840   11.2320 N.am   71  ARG71      -0.1979
     38  CA        23.6360   14.4860   10.3480 C.3    71  ARG71       0.1597
     39  C         23.9950   13.1830   11.0810 C.2    71  ARG71       0.2287
     40  O         24.5110   13.2000   12.2030 O.2    71  ARG71      -0.2864
     41  CB        24.8660   15.1680    9.7410 C.3    71  ARG71       0.0334
     42  CG        24.5660   16.4110    8.9020 C.3    71  ARG71       0.0492
     43  CD        25.8330   17.1080    8.3880 C.3    71  ARG71       0.2205
     44  NE        26.7050   17.4860    9.4940 N.pl3  71  ARG71      -0.0865
     45  CZ        26.5300   18.5380   10.3040 C.cat  71  ARG71       0.5346
     46  NH1       25.5090   19.3850   10.1460 N.pl3  71  ARG71       0.1354
     47  NH2       27.3960   18.7370   11.3000 N.pl3  71  ARG71       0.1354
     48  N         19.9390    8.7440    8.4810 N.3    75  ARG75      -0.1245
     49  CA        19.0490    9.5940    7.6740 C.3    75  ARG75       0.1563
     50  C         18.9600    9.1260    6.2260 C.2    75  ARG75       0.2260
     51  O         19.9800    8.7960    5.6000 O.2    75  ARG75      -0.2867
     52  CB        19.4560   11.0640    7.7830 C.3    75  ARG75       0.0307
     53  CG        19.4590   11.5980    9.2310 C.3    75  ARG75       0.0489
     54  CD        19.3070   13.0850    9.2300 C.3    75  ARG75       0.2205
     55  NE        17.9130   13.4660    8.9580 N.pl3  75  ARG75      -0.0865
     56  CZ        17.4720   14.6990    9.0530 C.cat  75  ARG75       0.5346
     57  NH1       18.3230   15.6770    9.3880 N.pl3  75  ARG75       0.1354
     58  NH2       16.2130   14.9770    8.8080 N.pl3  75  ARG75       0.1354
     59  N         21.7050   12.9480    4.4420 N.3    98  TRP98      -0.1227
     60  CA        21.4080   14.0010    5.4330 C.3    98  TRP98       0.1737
     61  C         21.3130   15.4120    4.8380 C.2    98  TRP98       0.2596
     62  O         21.1720   16.3880    5.5920 O.2    98  TRP98      -0.2718
     63  CB        22.3810   13.9450    6.6590 C.3    98  TRP98       0.0564
     64  CG        23.8520   13.7550    6.4090 C.ar   98  TRP98       0.0003
     65  CD1       24.5960   12.6610    6.7520 C.ar   98  TRP98       0.0946
     66  CD2       24.7690   14.6870    5.8100 C.ar   98  TRP98       0.0152
     67  NE1       25.9150   12.8610    6.4200 N.ar   98  TRP98      -0.2442
     68  CE2       26.0470   14.0840    5.8260 C.ar   98  TRP98       0.0810
     69  CE3       24.6330   15.9790    5.2590 C.ar   98  TRP98       0.0012
     70  CZ2       27.1830   14.7190    5.3040 C.ar   98  TRP98       0.0191
     71  CZ3       25.7350   16.6130    4.7640 C.ar   98  TRP98       0.0001
     72  CH2       27.0080   15.9880    4.7810 C.ar   98  TRP98       0.0015
     73  N         21.4030   15.5110    3.5000 N.am   99  SER99      -0.1952
     74  CA        21.1440   16.7110    2.6970 C.3    99  SER99       0.1924
     75  C         20.8060   16.2310    1.3240 C.2    99  SER99       0.2314
     76  O         21.3570   15.2310    0.8610 O.2    99  SER99      -0.2863
     77  CB        22.3730   17.6280    2.5830 C.3    99  SER99       0.2116
     78  OG        22.0390   18.8800    2.0150 O.3    99  SER99      -0.2180
     79  N         31.3830   19.7050    5.4710 N.3   142  ILE142     -0.1245
     80  CA        29.9460   19.5250    5.3120 C.3   142  ILE142      0.1561
     81  C         29.4140   19.9140    3.9360 C.2   142  ILE142      0.2260
     82  O         28.6370   20.8830    3.7680 O.2   142  ILE142     -0.2867
     83  CB        29.1080   20.2120    6.4360 C.3   142  ILE142      0.0252
     84  CG1       29.6810   19.9030    7.8210 C.3   142  ILE142      0.0019
     85  CG2       27.7000   19.6330    6.4460 C.3   142  ILE142      0.0019
     86  CD1       29.1030   20.7440    8.9200 C.3   142  ILE142      0.0001
     87  N         26.9710   20.0540    1.1470 N.3   144  ARG144     -0.1245
     88  CA        25.5460   20.1620    1.4210 C.3   144  ARG144      0.1563
     89  C         24.8190   20.8500    0.2660 C.2   144  ARG144      0.2260
     90  O         25.4470   21.4910   -0.5730 O.2   144  ARG144     -0.2867
     91  CB        25.3450   20.8860    2.7380 C.3   144  ARG144      0.0307
     92  CG        25.9320   22.2940    2.7530 C.3   144  ARG144      0.0489
     93  CD        25.9740   22.8010    4.1790 C.3   144  ARG144      0.2205
     94  NE        26.5080   24.1710    4.3570 N.pl3 144  ARG144     -0.0865
     95  CZ        27.7820   24.4900    4.5910 C.cat 144  ARG144      0.5346
     96  NH1       28.7590   23.5850    4.5850 N.pl3 144  ARG144      0.1354
     97  NH2       28.0930   25.7690    4.8360 N.pl3 144  ARG144      0.1354
     98  N         18.0100   21.1270   -0.1490 N.3   147  GLU147     -0.1245
     99  CA        16.8280   20.7400    0.6530 C.3   147  GLU147      0.1567
    100  C         15.5230   21.1950   -0.0310 C.2   147  GLU147      0.2260
    101  O         14.4980   21.3960    0.6040 O.2   147  GLU147     -0.2867
    102  CB        16.8980   21.2070    2.1550 C.3   147  GLU147      0.0388
    103  CG        18.2620   21.2060    2.8420 C.3   147  GLU147      0.1160
    104  CD        18.9600   19.8790    2.8750 C.2   147  GLU147      0.3649
    105  OE1       18.4540   18.8560    2.2910 O.co2 147  GLU147     -0.2457
    106  OE2       20.0470   19.8300    3.5000 O.co2 147  GLU147     -0.2457
    107  N         29.4900   27.5890    7.7660 N.3   166  SER166     -0.1217
    108  CA        28.1390   28.1420    7.7890 C.3   166  SER166      0.1889
    109  C         28.0230   29.4570    8.5310 C.2   166  SER166      0.2288
    110  O         26.9210   30.0040    8.6270 O.2   166  SER166     -0.2866
    111  CB        27.1580   27.1440    8.4270 C.3   166  SER166      0.2089
    112  OG        27.4650   26.8480    9.7770 O.3   166  SER166     -0.2183
    113  N         23.2990   29.2790    1.1560 N.3   196  GLU196     -0.1231
    114  CA        22.8910   27.9980    1.7150 C.3   196  GLU196      0.1699
    115  C         21.4990   27.6350    1.2080 C.2   196  GLU196      0.2592
    116  O         20.6320   28.5290    1.0430 O.2   196  GLU196     -0.2718
    117  CB        22.7890   28.0330    3.2480 C.3   196  GLU196      0.0402
    118  CG        24.0470   28.4310    4.0250 C.3   196  GLU196      0.1161
    119  CD        25.0560   27.3030    4.2250 C.2   196  GLU196      0.3649
    120  OE1       24.9430   26.2740    3.5510 O.co2 196  GLU196     -0.2457
    121  OE2       25.9820   27.4500    5.0590 O.co2 196  GLU196     -0.2457
    122  N         21.2620   26.3400    1.0300 N.am  197  GLU197     -0.1979
    123  CA        19.8920   25.8230    0.8990 C.3   197  GLU197      0.1602
    124  C         19.0510   26.5640   -0.1430 C.2   197  GLU197      0.2287
    125  O         17.9970   27.1070    0.1490 O.2   197  GLU197     -0.2864
    126  CB        19.2350   25.8980    2.2510 C.3   197  GLU197      0.0415
    127  CG        19.8870   25.0150    3.2920 C.3   197  GLU197      0.1163
    128  CD        19.3040   25.1490    4.6880 C.2   197  GLU197      0.3649
    129  OE1       18.8090   26.2540    5.0430 O.co2 197  GLU197     -0.2457
    130  OE2       19.4140   24.1270    5.4900 O.co2 197  GLU197     -0.2457
    131  N         19.8570   31.2460    1.3370 N.3   212  ARG212     -0.1245
    132  CA        19.9760   31.6790    2.7180 C.3   212  ARG212      0.1563
    133  C         21.4060   32.0950    3.0210 C.2   212  ARG212      0.2260
    134  O         22.3500   31.3310    2.8250 O.2   212  ARG212     -0.2867
    135  CB        19.5650   30.5450    3.6300 C.3   212  ARG212      0.0307
    136  CG        19.9950   30.6090    5.1170 C.3   212  ARG212      0.0489
    137  CD        19.6870   29.2590    5.7580 C.3   212  ARG212      0.2205
    138  NE        20.1430   29.1810    7.1530 N.pl3 212  ARG212     -0.0865
    139  CZ        19.7860   28.2360    8.0350 C.cat 212  ARG212      0.5346
    140  NH1       18.9300   27.2700    7.6980 N.pl3 212  ARG212      0.1354
    141  NH2       20.2640   28.2730    9.2780 N.pl3 212  ARG212      0.1354
    142  N         23.6460   32.6050    5.8460 N.3   214  ASN214     -0.1240
    143  CA        23.6850   32.2030    7.2750 C.3   214  ASN214      0.1653
    144  C         24.8150   32.9310    8.0220 C.2   214  ASN214      0.2266
    145  O         24.9970   32.7150    9.2380 O.2   214  ASN214     -0.2867
    146  CB        23.9510   30.7190    7.4020 C.3   214  ASN214      0.1155
    147  CG        23.3740   30.1160    8.6970 C.2   214  ASN214      0.2627
    148  OD1       22.1970   30.3050    8.9660 O.2   214  ASN214     -0.2716
    149  ND2       24.2080   29.3880    9.4820 N.am  214  ASN214     -0.0877
    150  N         22.8720   33.5020   11.1260 N.3   263  ASN263     -0.1240
    151  CA        21.8100   32.4970   11.2330 C.3   263  ASN263      0.1653
    152  C         20.8150   32.7470   10.0930 C.2   263  ASN263      0.2266
    153  O         21.0240   33.6260    9.2320 O.2   263  ASN263     -0.2867
    154  CB        21.1610   32.4920   12.6450 C.3   263  ASN263      0.1155
    155  CG        20.6260   31.1200   13.0640 C.2   263  ASN263      0.2627
    156  OD1       20.2510   30.2910   12.2260 O.2   263  ASN263     -0.2716
    157  ND2       20.5430   30.8910   14.3890 N.am  263  ASN263     -0.0877
    158  N         11.0140   31.0980   14.2520 N.3   287  ARG287     -0.1245
    159  CA        10.3150   30.4030   13.1730 C.3   287  ARG287      0.1563
    160  C          8.8360   30.2860   13.5220 C.2   287  ARG287      0.2260
    161  O          8.3400   29.2000   13.7900 O.2   287  ARG287     -0.2867
    162  CB        11.0090   29.0840   12.8660 C.3   287  ARG287      0.0307
    163  CG        12.3550   29.2890   12.1750 C.3   287  ARG287      0.0489
    164  CD        13.2730   28.0960   12.3210 C.3   287  ARG287      0.2205
    165  NE        14.5200   28.3350   11.6700 N.pl3 287  ARG287     -0.0865
    166  CZ        15.4420   27.4160   11.3820 C.cat 287  ARG287      0.5346
    167  NH1       15.2830   26.1300   11.6890 N.pl3 287  ARG287      0.1354
    168  NH2       16.5080   27.7710   10.7210 N.pl3 287  ARG287      0.1354
    169  N         11.2390   25.7790    7.5610 N.3   321  TYR321     -0.1241
    170  CA        11.7380   25.9630    6.2270 C.3   321  TYR321      0.1605
    171  C         10.5880   26.2070    5.2450 C.2   321  TYR321      0.2264
    172  O          9.4330   25.8310    5.5040 O.2   321  TYR321     -0.2867
    173  CB        12.5400   24.7590    5.7770 C.3   321  TYR321      0.0534
    174  CG        13.9710   24.6730    6.3100 C.ar  321  TYR321     -0.0201
    175  CD1       14.4430   25.4940    7.3510 C.ar  321  TYR321     -0.0009
    176  CD2       14.8570   23.7950    5.7520 C.ar  321  TYR321     -0.0009
    177  CE1       15.7750   25.4490    7.7530 C.ar  321  TYR321      0.0417
    178  CE2       16.1850   23.7330    6.1710 C.ar  321  TYR321      0.0417
    179  CZ        16.6250   24.5460    7.1910 C.ar  321  TYR321      0.1957
    180  OH        17.9210   24.5350    7.5860 O.3   321  TYR321     -0.2866
    181  N         11.9860   19.9580   19.3870 N.3   349  ARG349     -0.1231
    182  CA        13.1970   20.7200   19.7470 C.3   349  ARG349      0.1679
    183  C         13.5890   21.6980   18.6050 C.2   349  ARG349      0.2434
    184  O         13.3550   21.3990   17.4370 O.2   349  ARG349     -0.2733
    185  CB        14.3740   19.7830   20.1060 C.3   349  ARG349      0.0321
    186  CG        14.2240   19.0040   21.4060 C.3   349  ARG349      0.0489
    187  CD        14.5100   19.9380   22.5950 C.3   349  ARG349      0.2205
    188  NE        14.1940   19.3040   23.8740 N.pl3 349  ARG349     -0.0865
    189  CZ        14.0370   19.9440   25.0360 C.cat 349  ARG349      0.5346
    190  NH1       14.1510   21.2870   25.1230 N.pl3 349  ARG349      0.1354
    191  NH2       13.7490   19.2240   26.1250 N.pl3 349  ARG349      0.1354
    192  N         14.1650   22.8540   18.9170 N.am  350  PRO350     -0.2729
    193  CA        14.5240   23.2820   20.2900 C.3   350  PRO350      0.1401
    194  C         13.4390   24.0510   21.0550 C.2   350  PRO350      0.2269
    195  O         13.6340   24.3300   22.2100 O.2   350  PRO350     -0.2865
    196  CB        15.7370   24.2210   20.0230 C.3   350  PRO350      0.0296
    197  CG        15.3670   24.8870   18.6990 C.3   350  PRO350      0.0237
    198  CD        14.6730   23.8160   17.8910 C.3   350  PRO350      0.0939
@<TRIPOS>BOND
     1    90    89    2
     2    98    99    1
     3   124   125    2
     4   124   123    1
     5   100   101    2
     6   100    99    1
     7    89    88    1
     8    99   102    1
     9    76    75    2
    10   123   122    1
    11   123   126    1
    12   122   115   am
    13   116   115    2
    14    87    88    1
    15   113   114    1
    16   115   114    1
    17    75    74    1
    18   131   132    1
    19    88    91    1
    20   114   117    1
    21    78    77    1
    22   102   103    1
    23   126   127    1
    24   105   104   ar
    25    77    74    1
    26    74    73    1
    27   132   133    1
    28   132   135    1
    29    91    92    1
    30    92    93    1
    31   134   133    2
    32   103   104    1
    33   104   106   ar
    34   117   118    1
    35   127   128    1
    36    15    14    2
    37    73    61   am
    38   120   119   ar
    39   135   136    1
    40    82    81    2
    41    81    80    1
    42   118   119    1
    43    93    94    1
    44   119   121   ar
    45    14    13    1
    46    94    95    2
    47    59    60    1
    48    96    95    1
    49    95    97    1
    50   128   129   ar
    51   128   130   ar
    52    71    72   ar
    53    71    69   ar
    54    72    70   ar
    55    61    60    1
    56    61    62    2
    57   136   137    1
    58   171   172    2
    59   171   170    1
    60    16    13    1
    61    16    17    1
    62    69    66   ar
    63    70    68   ar
    64    80    79    1
    65    80    83    1
    66    60    63    1
    67    13    12    1
    68    51    50    2
    69   176   178   ar
    70   176   174   ar
    71   137   138    1
    72   173   170    1
    73   173   174    1
    74    66    68   ar
    75    66    64   ar
    76    68    67   ar
    77   142   143    1
    78   178   179   ar
    79    50    49    1
    80   170   169    1
    81    17    18    1
    82   174   175   ar
    83     4     3    2
    84    64    63    1
    85    64    65   ar
    86    67    65   ar
    87    83    85    1
    88    83    84    1
    89    12     3   am
    90     3     2    1
    91   138   139    2
    92   179   180    1
    93   179   177   ar
    94   143   146    1
    95   143   144    1
    96   175   177   ar
    97   146   147    1
    98    18    19   ar
    99    18    20   ar
   100    49    52    1
   101    49    48    1
   102   140   139    1
   103   107   108    1
   104    52    53    1
   105   108   111    1
   106   108   109    1
   107    84    86    1
   108   144   145    2
   109   139   141    1
   110    43    42    1
   111    43    44    1
   112   111   112    1
   113   109   110    2
   114     2     1    1
   115     2     5    1
   116   147   148    2
   117   147   149   am
   118    58    56    1
   119    42    41    1
   120    55    56    2
   121    55    54    1
   122    56    57    1
   123    54    53    1
   124   153   152    2
   125    11     9    1
   126    44    45    2
   127     5     6    1
   128    41    38    1
   129    32    31    2
   130   152   151    1
   131    46    45    1
   132     9     8    2
   133     9    10    1
   134     8     7    1
   135    45    47    1
   136    38    39    1
   137    38    37    1
   138   168   166    1
   139     6     7    1
   140    31    37   am
   141    31    30    1
   142    39    40    2
   143   150   151    1
   144    33    34    1
   145    33    30    1
   146   151   154    1
   147    35    34   ar
   148   166   165    2
   149   166   167    1
   150    34    36   ar
   151   165   164    1
   152    30    29    1
   153   163   164    1
   154   163   162    1
   155   156   155    2
   156   154   155    1
   157   162   159    1
   158   155   157   am
   159   159   160    1
   160   159   158    1
   161   160   161    2
   162    24    23    2
   163    23    22    1
   164    22    21    1
   165    22    25    1
   166    28    26    1
   167   184   183    2
   168    26    25    1
   169   198   197    1
   170   198   192    1
   171    25    27    1
   172   183   192   am
   173   183   182    1
   174   197   196    1
   175   192   193    1
   176   181   182    1
   177   182   185    1
   178   196   193    1
   179   185   186    1
   180   193   194    1
   181   194   195    2
   182   186   187    1
   183   187   188    1
   184   188   189    2
   185   189   190    1
   186   189   191    1
