@<TRIPOS>MOLECULE
tmp/6g07C01.pdb
 229 220 0 0 0
SMALL
GASTEIGER

@<TRIPOS>ATOM
      1  N         -9.7970   12.0940   24.8930 N.3    22  CYS22      -0.1221
      2  CA        -9.6730   10.8470   25.6590 C.3    22  CYS22       0.1808
      3  C         -8.2320   10.3450   25.8210 C.2    22  CYS22       0.2601
      4  O         -8.0080    9.3070   26.4400 O.2    22  CYS22      -0.2717
      5  CB       -10.5580    9.7510   25.0600 C.3    22  CYS22       0.0970
      6  SG       -10.0720    9.2300   23.3910 S.3    22  CYS22      -0.0800
      7  N         -7.2770   11.0960   25.2690 N.am   23  GLN23      -0.1965
      8  CA        -5.8380   10.8330   25.3910 C.3    23  GLN23       0.1733
      9  C         -5.4010    9.6370   24.5390 C.2    23  GLN23       0.2616
     10  O         -4.9170    9.8230   23.4230 O.2    23  GLN23      -0.2715
     11  CB        -5.3950   10.7080   26.8640 C.3    23  GLN23       0.0408
     12  CG        -3.8740   10.6610   27.0820 C.3    23  GLN23       0.0908
     13  CD        -3.4760   10.7600   28.5470 C.2    23  GLN23       0.2608
     14  OE1       -4.3270   10.7980   29.4400 O.2    23  GLN23      -0.2717
     15  NE2       -2.1700   10.7960   28.8030 N.am   23  GLN23      -0.0878
     16  N         -5.5710    8.4220   25.0510 N.am   24  LEU24      -0.1977
     17  CA        -5.2390    7.2280   24.2780 C.3    24  LEU24       0.1596
     18  C         -6.4870    6.5680   23.7130 C.2    24  LEU24       0.2287
     19  O         -7.5580    6.6090   24.3260 O.2    24  LEU24      -0.2864
     20  CB        -4.4370    6.2190   25.1120 C.3    24  LEU24       0.0297
     21  CG        -3.0130    6.5940   25.5430 C.3    24  LEU24       0.0022
     22  CD1       -2.4210    5.4980   26.4150 C.3    24  LEU24       0.0001
     23  CD2       -2.1040    6.8650   24.3420 C.3    24  LEU24       0.0001
     24  N         -4.9450    0.6340   23.8740 N.3    29  LEU29      -0.1245
     25  CA        -4.7950    0.0910   25.2230 C.3    29  LEU29       0.1561
     26  C         -5.0900   -1.4050   25.2740 C.2    29  LEU29       0.2260
     27  O         -4.4030   -2.1550   25.9740 O.2    29  LEU29      -0.2867
     28  CB        -5.6890    0.8430   26.2170 C.3    29  LEU29       0.0270
     29  CG        -5.2470    2.2520   26.6240 C.3    29  LEU29       0.0019
     30  CD1       -6.3780    2.9880   27.3330 C.3    29  LEU29       0.0001
     31  CD2       -4.0060    2.2070   27.5070 C.3    29  LEU29       0.0001
     32  N          5.7540    9.4030   37.9700 N.3    57  CYS57      -0.1235
     33  CA         4.3070    9.3550   38.1400 C.3    57  CYS57       0.1677
     34  C          3.6590   10.7320   38.0610 C.2    57  CYS57       0.2270
     35  O          2.6150   10.8840   37.4280 O.2    57  CYS57      -0.2867
     36  CB         3.9300    8.6360   39.4340 C.3    57  CYS57       0.0956
     37  SG         4.3130    6.8770   39.3690 S.3    57  CYS57      -0.0801
     38  N          3.3810   11.6710   34.3600 N.3    60  HIS60      -0.1226
     39  CA         2.3190   10.9190   33.6850 C.3    60  HIS60       0.1752
     40  C          0.9270   11.3820   34.1020 C.2    60  HIS60       0.2595
     41  O          0.0360   11.5220   33.2600 O.2    60  HIS60      -0.2718
     42  CB         2.4770    9.4040   33.8880 C.3    60  HIS60       0.0759
     43  CG         3.8330    8.8840   33.5180 C.ar   60  HIS60       0.0818
     44  ND1        4.5060    9.2960   32.3870 N.ar   60  HIS60      -0.2268
     45  CD2        4.6360    7.9770   34.1230 C.ar   60  HIS60       0.1154
     46  CE1        5.6730    8.6810   32.3220 C.ar   60  HIS60       0.1986
     47  NE2        5.7760    7.8730   33.3620 N.ar   60  HIS60      -0.2212
     48  N          0.7510   11.6420   35.3980 N.am   61  LEU61      -0.1980
     49  CA        -0.5320   12.1170   35.9050 C.3    61  LEU61       0.1596
     50  C         -0.8470   13.5040   35.3610 C.2    61  LEU61       0.2287
     51  O         -1.9920   13.7950   35.0400 O.2    61  LEU61      -0.2864
     52  CB        -0.5620   12.1190   37.4360 C.3    61  LEU61       0.0297
     53  CG        -0.5710   10.7490   38.1220 C.3    61  LEU61       0.0022
     54  CD1       -0.6380   10.9130   39.6290 C.3    61  LEU61       0.0001
     55  CD2       -1.7200    9.8860   37.6160 C.3    61  LEU61       0.0001
     56  N          0.2240   14.7860   32.4720 N.3    63  GLU63      -0.1231
     57  CA        -0.1320   14.6100   31.0650 C.3    63  GLU63       0.1699
     58  C         -1.6200   14.2620   30.9570 C.2    63  GLU63       0.2592
     59  O         -2.3520   14.8770   30.1850 O.2    63  GLU63      -0.2718
     60  CB         0.7370   13.5310   30.4140 C.3    63  GLU63       0.0402
     61  CG         0.5640   13.4060   28.9050 C.3    63  GLU63       0.1161
     62  CD         1.4010   12.2790   28.3140 C.2    63  GLU63       0.3649
     63  OE1        2.6390   12.3220   28.4460 O.co2  63  GLU63      -0.2457
     64  OE2        0.8130   11.3530   27.7130 O.co2  63  GLU63      -0.2457
     65  N         -2.0630   13.3030   31.7650 N.am   64  ALA64      -0.1980
     66  CA        -3.4740   12.9200   31.8020 C.3    64  ALA64       0.1597
     67  C         -4.3760   14.0760   32.2330 C.2    64  ALA64       0.2287
     68  O         -5.4560   14.2700   31.6660 O.2    64  ALA64      -0.2864
     69  CB        -3.6710   11.7070   32.7000 C.3    64  ALA64       0.0319
     70  N         -7.9490   15.1670   39.1300 N.3    95  MET95      -0.1245
     71  CA        -7.3850   13.8760   39.5190 C.3    95  MET95       0.1570
     72  C         -8.4600   12.7940   39.6160 C.2    95  MET95       0.2261
     73  O         -8.2160   11.6290   39.2780 O.2    95  MET95      -0.2867
     74  CB        -6.6190   14.0010   40.8410 C.3    95  MET95       0.0387
     75  CG        -5.8310   12.7570   41.2210 C.3    95  MET95       0.0595
     76  SD        -4.5900   12.3270   39.9890 S.3    95  MET95      -0.1393
     77  CE        -4.3750   10.5880   40.3520 C.3    95  MET95       0.0692
     78  N         -9.1390   11.6130   36.1100 N.3    98  VAL98      -0.1231
     79  CA        -8.0190   10.7510   35.7040 C.3    98  VAL98       0.1692
     80  C         -8.1710    9.3470   36.3000 C.2    98  VAL98       0.2591
     81  O         -8.0450    8.3540   35.5840 O.2    98  VAL98      -0.2718
     82  CB        -6.6370   11.3610   36.0640 C.3    98  VAL98       0.0266
     83  CG1       -5.5130   10.3690   35.7800 C.3    98  VAL98       0.0020
     84  CG2       -6.4070   12.6640   35.2840 C.3    98  VAL98       0.0020
     85  N         -8.4620    9.2740   37.6020 N.am   99  LEU99      -0.1980
     86  CA        -8.6650    7.9880   38.2870 C.3    99  LEU99       0.1596
     87  C         -9.7250    7.1230   37.6050 C.2    99  LEU99       0.2287
     88  O         -9.5280    5.9190   37.4070 O.2    99  LEU99      -0.2864
     89  CB        -9.0280    8.2070   39.7630 C.3    99  LEU99       0.0297
     90  CG        -7.8900    8.5120   40.7400 C.3    99  LEU99       0.0022
     91  CD1       -8.4350    9.0890   42.0450 C.3    99  LEU99       0.0001
     92  CD2       -7.0400    7.2740   41.0180 C.3    99  LEU99       0.0001
     93  N        -10.8900    7.5800   34.3570 N.3   101  ARG101     -0.1231
     94  CA       -10.4190    7.2910   33.0010 C.3   101  ARG101      0.1694
     95  C         -9.4310    6.1290   32.9770 C.2   101  ARG101      0.2591
     96  O         -9.4290    5.3330   32.0390 O.2   101  ARG101     -0.2718
     97  CB        -9.7510    8.5190   32.3810 C.3   101  ARG101      0.0321
     98  CG       -10.7020    9.6000   31.9040 C.3   101  ARG101      0.0489
     99  CD        -9.9050   10.7690   31.3520 C.3   101  ARG101      0.2205
    100  NE       -10.7530   11.6870   30.5940 N.pl3 101  ARG101     -0.0865
    101  CZ       -10.3440   12.3970   29.5430 C.cat 101  ARG101      0.5346
    102  NH1       -9.0850   12.3180   29.1200 N.pl3 101  ARG101      0.1354
    103  NH2      -11.1990   13.1900   28.9110 N.pl3 101  ARG101      0.1354
    104  N         -8.6010    6.0340   34.0110 N.am  102  MET102     -0.1979
    105  CA        -7.5480    5.0220   34.0640 C.3   102  MET102      0.1605
    106  C         -8.0690    3.5810   34.0460 C.2   102  MET102      0.2287
    107  O         -7.3360    2.6700   33.6730 O.2   102  MET102     -0.2864
    108  CB        -6.6290    5.2500   35.2660 C.3   102  MET102      0.0413
    109  CG        -5.2770    4.5570   35.1510 C.3   102  MET102      0.0598
    110  SD        -4.2830    5.2010   33.7920 S.3   102  MET102     -0.1393
    111  CE        -3.7390    6.7670   34.4650 C.3   102  MET102      0.0692
    112  N         -9.8180    2.2760   31.9530 N.3   104  ARG104     -0.1231
    113  CA        -9.6390    1.8550   30.5550 C.3   104  ARG104      0.1694
    114  C         -8.3160    1.1250   30.3570 C.2   104  ARG104      0.2592
    115  O         -8.2110    0.2260   29.5170 O.2   104  ARG104     -0.2718
    116  CB        -9.6390    3.0660   29.6210 C.3   104  ARG104      0.0321
    117  CG       -10.9130    3.8750   29.6210 C.3   104  ARG104      0.0489
    118  CD       -10.6710    5.2340   28.9900 C.3   104  ARG104      0.2205
    119  NE       -10.7720    5.2180   27.5290 N.pl3 104  ARG104     -0.0865
    120  CZ        -9.7920    5.5240   26.6820 C.cat 104  ARG104      0.5346
    121  NH1       -8.5880    5.8730   27.1190 N.pl3 104  ARG104      0.1354
    122  NH2      -10.0220    5.4890   25.3790 N.pl3 104  ARG104      0.1354
    123  N         -7.3100    1.5380   31.1230 N.am  105  ALA105     -0.1966
    124  CA        -5.9610    0.9870   31.0250 C.3   105  ALA105      0.1728
    125  C         -5.7020   -0.0970   32.0690 C.2   105  ALA105      0.2616
    126  O         -4.5580   -0.4970   32.2790 O.2   105  ALA105     -0.2715
    127  CB        -4.9310    2.1030   31.1550 C.3   105  ALA105      0.0334
    128  N         -6.7670   -0.5560   32.7250 N.am  106  TYR106     -0.1974
    129  CA        -6.6660   -1.5910   33.7500 C.3   106  TYR106      0.1639
    130  C         -7.1900   -2.9170   33.2040 C.2   106  TYR106      0.2290
    131  O         -8.2890   -2.9760   32.6490 O.2   106  TYR106     -0.2864
    132  CB        -7.4310   -1.1840   35.0220 C.3   106  TYR106      0.0560
    133  CG        -7.4220   -2.2450   36.1070 C.ar  106  TYR106     -0.0198
    134  CD1       -6.3250   -2.3970   36.9560 C.ar  106  TYR106     -0.0009
    135  CD2       -8.5120   -3.0980   36.2790 C.ar  106  TYR106     -0.0009
    136  CE1       -6.3140   -3.3790   37.9520 C.ar  106  TYR106      0.0417
    137  CE2       -8.5120   -4.0780   37.2660 C.ar  106  TYR106      0.0417
    138  CZ        -7.4110   -4.2150   38.0960 C.ar  106  TYR106      0.1957
    139  OH        -7.4100   -5.1840   39.0750 O.3   106  TYR106     -0.2866
    140  N         -1.9930   -2.5280   35.1470 N.3   113  VAL113     -0.1231
    141  CA        -2.3270   -1.2350   34.5510 C.3   113  VAL113      0.1692
    142  C         -1.2550   -0.8470   33.5260 C.2   113  VAL113      0.2592
    143  O         -0.0780   -1.1720   33.7000 O.2   113  VAL113     -0.2718
    144  CB        -2.5210   -0.1330   35.6380 C.3   113  VAL113      0.0266
    145  CG1       -1.1870    0.2850   36.2630 C.3   113  VAL113      0.0020
    146  CG2       -3.2710    1.0730   35.0670 C.3   113  VAL113      0.0020
    147  N         -1.6750   -0.1720   32.4570 N.am  114  PHE114     -0.1962
    148  CA        -0.7580    0.3050   31.4210 C.3   114  PHE114      0.1771
    149  C          0.0530    1.4720   31.9690 C.2   114  PHE114      0.2620
    150  O         -0.5020    2.5170   32.3110 O.2   114  PHE114     -0.2715
    151  CB        -1.5300    0.7170   30.1620 C.3   114  PHE114      0.0574
    152  CG        -0.6520    1.0580   28.9820 C.ar  114  PHE114     -0.0200
    153  CD1        0.0420    0.0590   28.2970 C.ar  114  PHE114     -0.0042
    154  CD2       -0.5400    2.3710   28.5380 C.ar  114  PHE114     -0.0042
    155  CE1        0.8460    0.3700   27.1960 C.ar  114  PHE114     -0.0003
    156  CE2        0.2630    2.6910   27.4330 C.ar  114  PHE114     -0.0003
    157  CZ         0.9570    1.6870   26.7670 C.ar  114  PHE114     -0.0000
    158  N          1.3660    1.2700   32.0530 N.am  115  PHE115     -0.1960
    159  CA         2.2830    2.2310   32.6540 C.3   115  PHE115      0.1771
    160  C          3.6000    2.2070   31.8930 C.2   115  PHE115      0.2619
    161  O          4.2180    1.1520   31.7520 O.2   115  PHE115     -0.2715
    162  CB         2.5060    1.8870   34.1370 C.3   115  PHE115      0.0574
    163  CG         3.4760    2.7980   34.8500 C.ar  115  PHE115     -0.0200
    164  CD1        3.0550    4.0240   35.3600 C.ar  115  PHE115     -0.0042
    165  CD2        4.8070    2.4230   35.0320 C.ar  115  PHE115     -0.0042
    166  CE1        3.9430    4.8650   36.0260 C.ar  115  PHE115     -0.0003
    167  CE2        5.7020    3.2560   35.7050 C.ar  115  PHE115     -0.0003
    168  CZ         5.2700    4.4810   36.2020 C.ar  115  PHE115     -0.0000
    169  N          4.0150    3.3710   31.3940 N.am  116  GLU116     -0.1977
    170  CA         5.2850    3.5180   30.6750 C.3   116  GLU116      0.1602
    171  C          5.5020    2.4160   29.6320 C.2   116  GLU116      0.2287
    172  O          6.5690    1.8030   29.5670 O.2   116  GLU116     -0.2864
    173  CB         6.4670    3.6260   31.6560 C.3   116  GLU116      0.0415
    174  CG         6.3710    4.8610   32.5530 C.3   116  GLU116      0.1163
    175  CD         7.5940    5.1050   33.4290 C.2   116  GLU116      0.3649
    176  OE1        8.4090    4.1820   33.6400 O.co2 116  GLU116     -0.2457
    177  OE2        7.7280    6.2400   33.9310 O.co2 116  GLU116     -0.2457
    178  N          4.8980   -0.1960   41.8270 N.3   125  PHE125     -0.1241
    179  CA         4.8480    1.1530   42.3980 C.3   125  PHE125      0.1605
    180  C          5.3960    1.2540   43.8230 C.2   125  PHE125      0.2264
    181  O          5.2710    2.2990   44.4710 O.2   125  PHE125     -0.2867
    182  CB         3.4060    1.6830   42.3570 C.3   125  PHE125      0.0534
    183  CG         2.8690    1.8650   40.9650 C.ar  125  PHE125     -0.0203
    184  CD1        3.0810    3.0550   40.2770 C.ar  125  PHE125     -0.0042
    185  CD2        2.1540    0.8460   40.3400 C.ar  125  PHE125     -0.0042
    186  CE1        2.5910    3.2300   38.9900 C.ar  125  PHE125     -0.0003
    187  CE2        1.6580    1.0080   39.0530 C.ar  125  PHE125     -0.0003
    188  CZ         1.8780    2.2030   38.3740 C.ar  125  PHE125     -0.0000
    189  N          7.3380    4.2750   45.6480 N.3   128  LEU128     -0.1245
    190  CA         6.5980    5.4900   46.0320 C.3   128  LEU128      0.1561
    191  C          6.4370    5.6320   47.5460 C.2   128  LEU128      0.2260
    192  O          6.3270    6.7450   48.0660 O.2   128  LEU128     -0.2867
    193  CB         5.2190    5.5270   45.3650 C.3   128  LEU128      0.0270
    194  CG         5.1550    5.6580   43.8400 C.3   128  LEU128      0.0019
    195  CD1        3.7430    5.4080   43.3430 C.3   128  LEU128      0.0001
    196  CD2        5.6470    7.0270   43.3780 C.3   128  LEU128      0.0001
    197  N         -1.7350    2.8080   46.9520 N.3   134  ILE134     -0.1245
    198  CA        -1.6540    2.1470   45.6400 C.3   134  ILE134      0.1561
    199  C         -2.6090    0.9500   45.5780 C.2   134  ILE134      0.2260
    200  O         -3.3210    0.7610   44.5880 O.2   134  ILE134     -0.2867
    201  CB        -0.1940    1.7310   45.2700 C.3   134  ILE134      0.0252
    202  CG1        0.7620    2.9370   45.3250 C.3   134  ILE134      0.0019
    203  CG2       -0.1340    1.0470   43.8940 C.3   134  ILE134      0.0019
    204  CD1        0.3810    4.1150   44.4170 C.3   134  ILE134      0.0001
    205  N         -6.0980    2.2400   45.2540 N.3   137  ILE137     -0.1231
    206  CA        -6.3020    2.6790   43.8770 C.3   137  ILE137      0.1692
    207  C         -6.5550    1.4960   42.9300 C.2   137  ILE137      0.2592
    208  O         -7.4260    1.5670   42.0630 O.2   137  ILE137     -0.2718
    209  CB        -5.1240    3.5590   43.3850 C.3   137  ILE137      0.0266
    210  CG1       -5.1780    4.9380   44.0610 C.3   137  ILE137      0.0019
    211  CG2       -5.1600    3.7090   41.8740 C.3   137  ILE137      0.0020
    212  CD1       -3.9470    5.7970   43.8170 C.3   137  ILE137      0.0001
    213  N         -5.8080    0.4080   43.1110 N.am  138  PHE138     -0.1976
    214  CA        -6.0130   -0.8060   42.3150 C.3   138  PHE138      0.1639
    215  C         -7.3510   -1.4910   42.6290 C.2   138  PHE138      0.2290
    216  O         -8.0100   -1.9980   41.7190 O.2   138  PHE138     -0.2864
    217  CB        -4.8330   -1.7760   42.4730 C.3   138  PHE138      0.0560
    218  CG        -3.7350   -1.5720   41.4530 C.ar  138  PHE138     -0.0200
    219  CD1       -2.8960   -0.4610   41.5220 C.ar  138  PHE138     -0.0042
    220  CD2       -3.5390   -2.4990   40.4290 C.ar  138  PHE138     -0.0042
    221  CE1       -1.8820   -0.2690   40.5820 C.ar  138  PHE138     -0.0003
    222  CE2       -2.5260   -2.3230   39.4870 C.ar  138  PHE138     -0.0003
    223  CZ        -1.6970   -1.2030   39.5580 C.ar  138  PHE138     -0.0000
    224  N         -9.8660    0.6600   40.8630 N.3   141  SER141     -0.1217
    225  CA        -9.7920    0.3900   39.4280 C.3   141  SER141      0.1889
    226  C        -10.4770   -0.9270   39.0800 C.2   141  SER141      0.2288
    227  O        -11.1750   -1.0200   38.0700 O.2   141  SER141     -0.2866
    228  CB        -8.3390    0.3690   38.9440 C.3   141  SER141      0.2089
    229  OG        -7.7070    1.6170   39.1760 O.3   141  SER141     -0.2183
@<TRIPOS>BOND
     1     6     5    1
     2    10     9    2
     3    18    17    1
     4    18    19    2
     5    24    25    1
     6    17    16    1
     7    17    20    1
     8    23    21    1
     9     9    16   am
    10     9     8    1
    11     1     2    1
    12     5     2    1
    13    20    21    1
    14    25    26    1
    15    25    28    1
    16     7     8    1
    17     7     3   am
    18    26    27    2
    19   122   120    1
    20     8    11    1
    21    21    22    1
    22     2     3    1
    23     3     4    2
    24    28    29    1
    25    29    30    1
    26    29    31    1
    27   120   121    1
    28   120   119    2
    29   157   155   ar
    30   157   156   ar
    31    11    12    1
    32    12    13    1
    33   155   153   ar
    34   156   154   ar
    35   119   118    1
    36    64    62   ar
    37   153   152   ar
    38    62    63   ar
    39    62    61    1
    40   154   152   ar
    41    13    15   am
    42    13    14    2
    43    61    60    1
    44   103   101    1
    45   152   151    1
    46   118   117    1
    47   102   101    1
    48   115   114    2
    49   101   100    2
    50   172   171    2
    51   116   117    1
    52   116   113    1
    53   171   170    1
    54   151   148    1
    55    59    58    2
    56   114   113    1
    57   114   123   am
    58    60    57    1
    59   113   112    1
    60   100    99    1
    61   170   169    1
    62   170   173    1
    63    58    57    1
    64    58    65   am
    65   124   123    1
    66   124   127    1
    67   124   125    1
    68    57    56    1
    69    99    98    1
    70   169   160   am
    71   148   149    1
    72   148   147    1
    73   173   174    1
    74    68    67    2
    75   161   160    2
    76    65    66    1
    77    66    67    1
    78    66    69    1
    79   160   159    1
    80    98    97    1
    81   149   158   am
    82   149   150    2
    83    96    95    2
    84   158   159    1
    85   125   126    2
    86   125   128   am
    87    46    44   ar
    88    46    47   ar
    89    97    94    1
    90    44    43   ar
    91   147   142   am
    92   174   175    1
    93   131   130    2
    94   159   162    1
    95   128   129    1
    96    95    94    1
    97    95   104   am
    98    94    93    1
    99   130   129    1
   100    41    40    2
   101    47    45   ar
   102   175   176   ar
   103   175   177   ar
   104    43    42    1
   105    43    45   ar
   106   142   143    2
   107   142   141    1
   108   107   106    2
   109    39    42    1
   110    39    40    1
   111    39    38    1
   112   129   132    1
   113   110   111    1
   114   110   109    1
   115   104   105    1
   116   106   105    1
   117   105   108    1
   118    40    48   am
   119   162   163    1
   120   141   140    1
   121   141   144    1
   122   163   165   ar
   123   163   164   ar
   124   132   133    1
   125   165   167   ar
   126    51    50    2
   127   146   144    1
   128   109   108    1
   129    84    82    1
   130   164   166   ar
   131    50    49    1
   132    48    49    1
   133    81    80    2
   134   144   145    1
   135    79    82    1
   136    79    78    1
   137    79    80    1
   138   167   168   ar
   139    83    82    1
   140    49    52    1
   141   166   168   ar
   142   133   135   ar
   143   133   134   ar
   144   135   137   ar
   145    80    85   am
   146   134   136   ar
   147   137   138   ar
   148    88    87    2
   149    35    34    2
   150    52    53    1
   151    85    86    1
   152    87    86    1
   153    55    53    1
   154   136   138   ar
   155    32    33    1
   156    34    33    1
   157   227   226    2
   158   138   139    1
   159    53    54    1
   160    33    36    1
   161    86    89    1
   162   188   186   ar
   163   188   187   ar
   164   228   229    1
   165   228   225    1
   166   186   184   ar
   167   187   185   ar
   168   226   225    1
   169    70    71    1
   170    73    72    2
   171    37    36    1
   172   225   224    1
   173   222   223   ar
   174   222   220   ar
   175    71    72    1
   176    71    74    1
   177   223   221   ar
   178    89    90    1
   179    76    77    1
   180    76    75    1
   181   184   183   ar
   182   185   183   ar
   183   220   218   ar
   184   221   219   ar
   185    90    92    1
   186    90    91    1
   187    74    75    1
   188   183   182    1
   189   218   219   ar
   190   218   217    1
   191   216   215    2
   192   178   179    1
   193   211   209    1
   194   208   207    2
   195   214   217    1
   196   214   215    1
   197   214   213    1
   198   182   179    1
   199   179   180    1
   200   207   213   am
   201   207   206    1
   202   195   194    1
   203   196   194    1
   204   209   206    1
   205   209   210    1
   206   212   210    1
   207   180   181    2
   208   194   193    1
   209   206   205    1
   210   203   201    1
   211   204   202    1
   212   200   199    2
   213   201   202    1
   214   201   198    1
   215   193   190    1
   216   199   198    1
   217   198   197    1
   218   189   190    1
   219   190   191    1
   220   191   192    2
