@<TRIPOS>MOLECULE
tmp/6g09A00.pdb
 142 138 0 0 0
SMALL
GASTEIGER

@<TRIPOS>ATOM
      1  N        -17.0740   15.3410    6.6020 N.3    69  GLU69      -0.1245
      2  CA       -16.8010   13.8890    6.7220 C.3    69  GLU69       0.1567
      3  C        -15.9290   13.4780    5.5470 C.2    69  GLU69       0.2260
      4  O        -14.9170   12.7690    5.7210 O.2    69  GLU69      -0.2867
      5  CB       -18.0750   13.0470    6.7300 C.3    69  GLU69       0.0388
      6  CG       -18.8030   13.1200    8.0350 C.3    69  GLU69       0.1160
      7  CD       -20.0630   12.2760    8.0720 C.2    69  GLU69       0.3649
      8  OE1      -20.4940   11.7270    7.0270 O.co2  69  GLU69      -0.2457
      9  OE2      -20.6770   12.2090    9.1610 O.co2  69  GLU69      -0.2457
     10  N        -20.1260   21.3190    8.4890 N.3   113  TRP113     -0.1241
     11  CA       -20.2780   19.9590    7.9470 C.3   113  TRP113      0.1605
     12  C        -20.5710   19.9830    6.4460 C.2   113  TRP113      0.2264
     13  O        -20.3290   18.9880    5.7650 O.2   113  TRP113     -0.2867
     14  CB       -21.3540   19.1740    8.6900 C.3   113  TRP113      0.0550
     15  CG       -22.7830   19.4620    8.3940 C.ar  113  TRP113      0.0003
     16  CD1      -23.5840   20.3760    9.0180 C.ar  113  TRP113      0.0946
     17  CD2      -23.6050   18.8190    7.4110 C.ar  113  TRP113      0.0152
     18  NE1      -24.8350   20.3590    8.4610 N.ar  113  TRP113     -0.2442
     19  CE2      -24.8680   19.4410    7.4500 C.ar  113  TRP113      0.0810
     20  CE3      -23.3730   17.8420    6.4290 C.ar  113  TRP113      0.0012
     21  CZ2      -25.9220   19.0610    6.6120 C.ar  113  TRP113      0.0191
     22  CZ3      -24.4300   17.4280    5.6430 C.ar  113  TRP113      0.0001
     23  CH2      -25.6820   18.0590    5.7160 C.ar  113  TRP113      0.0015
     24  N        -24.0960   25.1490    6.5200 N.3   123  ASP123     -0.1239
     25  CA       -24.3460   25.0110    7.9740 C.3   123  ASP123      0.1674
     26  C        -22.9750   25.1290    8.6240 C.2   123  ASP123      0.2266
     27  O        -22.1130   24.3130    8.2820 O.2   123  ASP123     -0.2867
     28  CB       -25.0380   23.6850    8.2720 C.3   123  ASP123      0.1410
     29  CG       -25.4560   23.4240    9.7050 C.2   123  ASP123      0.3668
     30  OD1      -25.1230   24.2390   10.5560 O.co2 123  ASP123     -0.2456
     31  OD2      -26.1580   22.4140    9.9150 O.co2 123  ASP123     -0.2456
     32  N        -22.3900   24.4530   11.7420 N.3   125  MET125     -0.1231
     33  CA       -22.2790   23.4030   12.7590 C.3   125  MET125      0.1687
     34  C        -21.5610   22.1860   12.1730 C.2   125  MET125      0.2434
     35  O        -21.6250   21.9190   10.9570 O.2   125  MET125     -0.2733
     36  CB       -23.6420   22.9660   13.2630 C.3   125  MET125      0.0400
     37  CG       -24.4030   24.0490   14.0400 C.3   125  MET125      0.0596
     38  SD       -23.5890   24.3380   15.6650 S.3   125  MET125     -0.1393
     39  CE       -23.0870   26.0240   15.4270 C.3   125  MET125      0.0692
     40  N        -20.8740   21.3960   13.0160 N.am  126  PRO126     -0.2718
     41  CA       -20.1260   20.2560   12.5230 C.3   126  PRO126      0.1535
     42  C        -20.9120   18.9510   12.4830 C.2   126  PRO126      0.2598
     43  O        -22.0030   18.8560   13.0490 O.2   126  PRO126     -0.2715
     44  CB       -19.0220   20.0920   13.5520 C.3   126  PRO126      0.0310
     45  CG       -19.7070   20.5390   14.8540 C.3   126  PRO126      0.0237
     46  CD       -20.5590   21.7030   14.4220 C.3   126  PRO126      0.0939
     47  N        -20.3590   17.9910   11.7710 N.am  127  ALA127     -0.1978
     48  CA       -20.7180   16.5610   11.8710 C.3   127  ALA127      0.1597
     49  C        -19.5860   15.9070   12.6270 C.2   127  ALA127      0.2287
     50  O        -18.4960   15.7190   12.0680 O.2   127  ALA127     -0.2864
     51  CB       -20.9320   15.8910   10.5350 C.3   127  ALA127      0.0319
     52  N        -27.1790   30.6750    9.8890 N.3   177  ARG177     -0.1245
     53  CA       -28.5870   30.2370   10.0600 C.3   177  ARG177      0.1563
     54  C        -29.3140   31.1540   11.0820 C.2   177  ARG177      0.2260
     55  O        -30.4460   30.8290   11.3900 O.2   177  ARG177     -0.2867
     56  CB       -28.6050   28.7480   10.4650 C.3   177  ARG177      0.0307
     57  CG       -28.1830   27.7660    9.3750 C.3   177  ARG177      0.0489
     58  CD       -27.7480   26.3930    9.9110 C.3   177  ARG177      0.2205
     59  NE       -28.8490   25.7750   10.6530 N.pl3 177  ARG177     -0.0865
     60  CZ       -28.7230   24.8880   11.6410 C.cat 177  ARG177      0.5346
     61  NH1      -27.5340   24.4830   12.0780 N.pl3 177  ARG177      0.1354
     62  NH2      -29.8310   24.4230   12.1860 N.pl3 177  ARG177      0.1354
     63  N        -24.0750   13.6810   18.5320 N.3   195  PHE195     -0.1227
     64  CA       -24.5560   13.8620   17.1630 C.3   195  PHE195      0.1736
     65  C        -24.3250   15.3110   16.7120 C.2   195  PHE195      0.2596
     66  O        -23.9700   15.5500   15.5410 O.2   195  PHE195     -0.2718
     67  CB       -26.0350   13.4560   17.0640 C.3   195  PHE195      0.0547
     68  CG       -26.6440   13.8210   15.7390 C.ar  195  PHE195     -0.0202
     69  CD1      -26.2630   13.0960   14.6080 C.ar  195  PHE195     -0.0042
     70  CD2      -27.4370   14.9460   15.5790 C.ar  195  PHE195     -0.0042
     71  CE1      -26.7400   13.4420   13.3430 C.ar  195  PHE195     -0.0003
     72  CE2      -27.9520   15.2800   14.3220 C.ar  195  PHE195     -0.0003
     73  CZ       -27.5380   14.5560   13.2190 C.ar  195  PHE195     -0.0000
     74  N        -24.5900   16.2730   17.5870 N.am  196  THR196     -0.1953
     75  CA       -24.3870   17.6980   17.2790 C.3   196  THR196      0.1897
     76  C        -24.0370   18.4500   18.5450 C.2   196  THR196      0.2313
     77  O        -24.5360   18.0930   19.5990 O.2   196  THR196     -0.2863
     78  CB       -25.6580   18.3390   16.6800 C.3   196  THR196      0.1794
     79  OG1      -25.3700   19.6900   16.3090 O.3   196  THR196     -0.2208
     80  CG2      -26.8690   18.3230   17.5690 C.3   196  THR196      0.0378
     81  N        -25.0450   21.4970   18.7840 N.3   198  ASP198     -0.1239
     82  CA       -26.1650   22.4720   18.8640 C.3   198  ASP198      0.1674
     83  C        -26.9540   22.1350   20.1200 C.2   198  ASP198      0.2266
     84  O        -27.4340   21.0190   20.2540 O.2   198  ASP198     -0.2867
     85  CB       -27.0200   22.3900   17.5970 C.3   198  ASP198      0.1410
     86  CG       -28.2790   23.2410   17.5940 C.2   198  ASP198      0.3668
     87  OD1      -28.6110   23.8630   18.6200 O.co2 198  ASP198     -0.2456
     88  OD2      -29.0180   23.2030   16.5440 O.co2 198  ASP198     -0.2456
     89  N        -30.1940   19.9710   20.3180 N.3   201  ASN201     -0.1240
     90  CA       -30.2310   18.5150   20.1090 C.3   201  ASN201      0.1653
     91  C        -28.9300   17.8890   20.6170 C.2   201  ASN201      0.2266
     92  O        -28.5670   16.8190   20.1260 O.2   201  ASN201     -0.2867
     93  CB       -30.4460   18.1610   18.6330 C.3   201  ASN201      0.1155
     94  CG       -31.8460   18.5080   18.1660 C.2   201  ASN201      0.2627
     95  OD1      -32.8070   17.8490   18.5730 O.2   201  ASN201     -0.2716
     96  ND2      -31.9400   19.4530   17.2480 N.am  201  ASN201     -0.0877
     97  N        -20.6120    7.2070   14.8400 N.3   209  TYR209     -0.1241
     98  CA       -19.6000    8.2070   15.2270 C.3   209  TYR209      0.1605
     99  C        -18.6970    7.6560   16.3400 C.2   209  TYR209      0.2264
    100  O        -17.6780    8.2740   16.6710 O.2   209  TYR209     -0.2867
    101  CB       -20.2620    9.4940   15.7120 C.3   209  TYR209      0.0534
    102  CG       -21.0100   10.3070   14.6860 C.ar  209  TYR209     -0.0201
    103  CD1      -21.2550    9.8920   13.3930 C.ar  209  TYR209     -0.0009
    104  CD2      -21.5180   11.5400   15.0690 C.ar  209  TYR209     -0.0009
    105  CE1      -21.9390   10.7200   12.5070 C.ar  209  TYR209      0.0417
    106  CE2      -22.2620   12.3390   14.2030 C.ar  209  TYR209      0.0417
    107  CZ       -22.4550   11.9280   12.9050 C.ar  209  TYR209      0.1957
    108  OH       -23.1710   12.7080   12.0190 O.3   209  TYR209     -0.2866
    109  N        -29.1980    7.1780   14.5050 N.3   255  TYR255     -0.1241
    110  CA       -29.0100    8.0940   15.6440 C.3   255  TYR255      0.1605
    111  C        -29.4850    7.4320   16.9290 C.2   255  TYR255      0.2264
    112  O        -30.3460    6.5520   16.9160 O.2   255  TYR255     -0.2867
    113  CB       -29.7930    9.4030   15.5040 C.3   255  TYR255      0.0534
    114  CG       -29.5970   10.2120   14.2460 C.ar  255  TYR255     -0.0201
    115  CD1      -28.4910   10.0220   13.4190 C.ar  255  TYR255     -0.0009
    116  CD2      -30.4850   11.2310   13.8980 C.ar  255  TYR255     -0.0009
    117  CE1      -28.3320   10.7180   12.2260 C.ar  255  TYR255      0.0417
    118  CE2      -30.3340   11.9350   12.7100 C.ar  255  TYR255      0.0417
    119  CZ       -29.2810   11.6690   11.8810 C.ar  255  TYR255      0.1957
    120  OH       -29.1670   12.3780   10.6990 O.3   255  TYR255     -0.2866
    121  N        -36.8210   16.0530   12.8290 N.3   267  TRP267     -0.1241
    122  CA       -36.7540   16.3910   11.3850 C.3   267  TRP267      0.1605
    123  C        -36.4970   15.1290   10.5420 C.2   267  TRP267      0.2264
    124  O        -36.4610   15.2110    9.3050 O.2   267  TRP267     -0.2867
    125  CB       -35.6730   17.4370   11.1470 C.3   267  TRP267      0.0550
    126  CG       -34.3030   16.9080   11.3510 C.ar  267  TRP267      0.0003
    127  CD1      -33.4930   16.4050   10.3930 C.ar  267  TRP267      0.0946
    128  CD2      -33.5710   16.8360   12.5940 C.ar  267  TRP267      0.0152
    129  NE1      -32.3190   15.9770   10.9330 N.ar  267  TRP267     -0.2442
    130  CE2      -32.3420   16.2490   12.2730 C.ar  267  TRP267      0.0810
    131  CE3      -33.8520   17.2160   13.9060 C.ar  267  TRP267      0.0012
    132  CZ2      -31.4120   15.9340   13.2540 C.ar  267  TRP267      0.0191
    133  CZ3      -32.8690   16.9800   14.8620 C.ar  267  TRP267      0.0001
    134  CH2      -31.6800   16.3620   14.5140 C.ar  267  TRP267      0.0015
    135  N        -25.9730    6.1700    7.7970 N.3   277  ASP277     -0.1239
    136  CA       -24.9590    6.3380    8.8500 C.3   277  ASP277      0.1674
    137  C        -24.5580    4.9750    9.3710 C.2   277  ASP277      0.2266
    138  O        -23.3510    4.7230    9.5480 O.2   277  ASP277     -0.2867
    139  CB       -25.4840    7.1640   10.0300 C.3   277  ASP277      0.1410
    140  CG       -25.5610    8.6540    9.8300 C.2   277  ASP277      0.3668
    141  OD1      -26.0400    9.0760    8.7340 O.co2 277  ASP277     -0.2456
    142  OD2      -25.2600    9.4160   10.7470 O.co2 277  ASP277     -0.2456
@<TRIPOS>BOND
     1     3     4    2
     2     3     2    1
     3    22    23   ar
     4    22    20   ar
     5    23    21   ar
     6    13    12    2
     7    20    17   ar
     8    12    11    1
     9    24    25    1
    10     1     2    1
    11    21    19   ar
    12     2     5    1
    13     5     6    1
    14     8     7   ar
    15    17    19   ar
    16    17    15   ar
    17    19    18   ar
    18   135   136    1
    19    11    10    1
    20    11    14    1
    21    25    28    1
    22    25    26    1
    23     6     7    1
    24     7     9   ar
    25    28    29    1
    26    27    26    2
    27    15    14    1
    28    15    16   ar
    29    18    16   ar
    30   141   140   ar
    31   136   137    1
    32   136   139    1
    33   124   123    2
    34   137   138    2
    35    57    58    1
    36    57    56    1
    37    29    31   ar
    38    29    30   ar
    39   140   139    1
    40   140   142   ar
    41    52    53    1
    42    58    59    1
    43    53    56    1
    44    53    54    1
    45   127   129   ar
    46   127   126   ar
    47    51    48    1
    48   123   122    1
    49    59    60    2
    50   120   119    1
    51   129   130   ar
    52    35    34    2
    53    54    55    2
    54   125   126    1
    55   125   122    1
    56   126   128   ar
    57   122   121    1
    58    60    61    1
    59    60    62    1
    60    32    33    1
    61    47    48    1
    62    47    42   am
    63    48    49    1
    64   119   117   ar
    65   119   118   ar
    66   108   107    1
    67    50    49    2
    68    34    33    1
    69    34    40   am
    70   117   115   ar
    71   130   128   ar
    72   130   132   ar
    73    42    41    1
    74    42    43    2
    75   105   107   ar
    76   105   103   ar
    77    41    40    1
    78    41    44    1
    79   128   131   ar
    80   118   116   ar
    81    33    36    1
    82   107   106   ar
    83    40    46    1
    84    73    71   ar
    85    73    72   ar
    86   132   134   ar
    87    36    37    1
    88    71    69   ar
    89   103   102   ar
    90   115   114   ar
    91    44    45    1
    92   116   114   ar
    93   131   133   ar
    94    37    38    1
    95   106   104   ar
    96   114   113    1
    97    72    70   ar
    98    46    45    1
    99   109   110    1
   100   134   133   ar
   101    69    68   ar
   102   102   104   ar
   103   102   101    1
   104    97    98    1
   105    98   101    1
   106    98    99    1
   107    39    38    1
   108   113   110    1
   109    66    65    2
   110    70    68   ar
   111   110   111    1
   112    68    67    1
   113    79    78    1
   114    99   100    2
   115    88    86   ar
   116    78    75    1
   117    78    80    1
   118    65    64    1
   119    65    74   am
   120   112   111    2
   121    67    64    1
   122    64    63    1
   123    96    94   am
   124    75    74    1
   125    75    76    1
   126    86    85    1
   127    86    87   ar
   128    85    82    1
   129    94    95    2
   130    94    93    1
   131    76    77    2
   132    93    90    1
   133    81    82    1
   134    82    83    1
   135    90    89    1
   136    90    91    1
   137    83    84    2
   138    92    91    2
