@<TRIPOS>MOLECULE
tmp/6g0bA01.pdb
 125 121 0 0 0
SMALL
GASTEIGER

@<TRIPOS>ATOM
      1  N         12.2100   18.0530    2.4780 N.3    67  ARG67      -0.1245
      2  CA        11.9310   17.7830    3.8910 C.3    67  ARG67       0.1563
      3  C         13.2000   17.5490    4.6560 C.2    67  ARG67       0.2260
      4  O         14.1790   17.0030    4.1120 O.2    67  ARG67      -0.2867
      5  CB        10.9870   16.6140    4.0070 C.3    67  ARG67       0.0307
      6  CG         9.6300   16.9720    3.4030 C.3    67  ARG67       0.0489
      7  CD         8.5940   15.8900    3.5880 C.3    67  ARG67       0.2205
      8  NE         7.2570   16.3540    3.2230 N.pl3  67  ARG67      -0.0865
      9  CZ         6.1700   15.6030    3.3000 C.cat  67  ARG67       0.5346
     10  NH1        6.2750   14.3450    3.7510 N.pl3  67  ARG67       0.1354
     11  NH2        4.9780   16.1100    2.9740 N.pl3  67  ARG67       0.1354
     12  N         13.5610   15.3170    6.8720 N.3    69  GLU69      -0.1245
     13  CA        13.7110   13.8460    6.7590 C.3    69  GLU69       0.1567
     14  C         14.6400   13.4410    5.6070 C.2    69  GLU69       0.2260
     15  O         15.5960   12.6900    5.8120 O.2    69  GLU69      -0.2867
     16  CB        12.3420   13.2020    6.5490 C.3    69  GLU69       0.0388
     17  CG        12.3340   11.7380    6.1300 C.3    69  GLU69       0.1160
     18  CD        10.9900   11.3070    5.5530 C.2    69  GLU69       0.3649
     19  OE1       10.6890   11.6630    4.3840 O.co2  69  GLU69      -0.2457
     20  OE2       10.2380   10.6190    6.2820 O.co2  69  GLU69      -0.2457
     21  N         10.9610   21.7060    8.9260 N.3   113  TRP113     -0.1241
     22  CA        10.7610   20.3730    8.3550 C.3   113  TRP113      0.1605
     23  C         10.3570   20.3100    6.8830 C.2   113  TRP113      0.2264
     24  O         10.6290   19.2880    6.2360 O.2   113  TRP113     -0.2867
     25  CB         9.7500   19.5830    9.1730 C.3   113  TRP113      0.0550
     26  CG         8.2770   19.8290    8.8550 C.ar  113  TRP113      0.0003
     27  CD1        7.4360   20.7590    9.4340 C.ar  113  TRP113      0.0946
     28  CD2        7.4820   19.1160    7.9280 C.ar  113  TRP113      0.0152
     29  NE1        6.1900   20.6440    8.9190 N.ar  113  TRP113     -0.2442
     30  CE2        6.1850   19.6640    7.9750 C.ar  113  TRP113      0.0810
     31  CE3        7.7410   18.0790    7.0360 C.ar  113  TRP113      0.0012
     32  CZ2        5.1330   19.1820    7.1930 C.ar  113  TRP113      0.0191
     33  CZ3        6.7120   17.6060    6.2620 C.ar  113  TRP113      0.0001
     34  CH2        5.4230   18.1750    6.3170 C.ar  113  TRP113      0.0015
     35  N         10.6100   18.5460   12.3290 N.3   127  ALA127     -0.1245
     36  CA        10.1520   17.1630   12.4690 C.3   127  ALA127      0.1562
     37  C         11.3020   16.4220   13.1460 C.2   127  ALA127      0.2260
     38  O         12.3680   16.2330   12.5340 O.2   127  ALA127     -0.2867
     39  CB         9.8430   16.5400   11.1210 C.3   127  ALA127      0.0290
     40  N         12.4640   13.5280   13.8620 N.3   129  ASP129     -0.1239
     41  CA        13.2530   12.4640   13.2210 C.3   129  ASP129      0.1674
     42  C         14.3700   13.0000   12.3020 C.2   129  ASP129      0.2266
     43  O         15.4370   12.3730   12.1850 O.2   129  ASP129     -0.2867
     44  CB        12.3790   11.4160   12.5040 C.3   129  ASP129      0.1410
     45  CG        11.5540   11.9740   11.3690 C.2   129  ASP129      0.3668
     46  OD1       11.0940   13.1430   11.4180 O.co2 129  ASP129     -0.2456
     47  OD2       11.2870   11.1890   10.4230 O.co2 129  ASP129     -0.2456
     48  N          6.7350   13.9700   18.8790 N.3   195  PHE195     -0.1241
     49  CA         6.2440   14.1740   17.5050 C.3   195  PHE195      0.1605
     50  C          6.4670   15.6350   17.0490 C.2   195  PHE195      0.2264
     51  O          6.8340   15.8830   15.9200 O.2   195  PHE195     -0.2867
     52  CB         4.7670   13.7760   17.4080 C.3   195  PHE195      0.0534
     53  CG         4.1380   14.1750   16.1050 C.ar  195  PHE195     -0.0203
     54  CD1        4.3610   13.4120   14.9680 C.ar  195  PHE195     -0.0042
     55  CD2        3.4120   15.3480   15.9870 C.ar  195  PHE195     -0.0042
     56  CE1        3.8460   13.8150   13.7400 C.ar  195  PHE195     -0.0003
     57  CE2        2.8680   15.7370   14.7640 C.ar  195  PHE195     -0.0003
     58  CZ         3.0900   14.9680   13.6470 C.ar  195  PHE195     -0.0000
     59  N         10.0480    7.3350   15.0030 N.3   209  TYR209     -0.1241
     60  CA        11.0630    8.2860   15.4180 C.3   209  TYR209      0.1605
     61  C         11.9560    7.7170   16.5320 C.2   209  TYR209      0.2264
     62  O         12.9430    8.3220   16.8690 O.2   209  TYR209     -0.2867
     63  CB        10.4360    9.5570   15.9590 C.3   209  TYR209      0.0534
     64  CG         9.6600   10.4350   15.0120 C.ar  209  TYR209     -0.0201
     65  CD1        9.3010   10.0240   13.7170 C.ar  209  TYR209     -0.0009
     66  CD2        9.2560   11.6930   15.4400 C.ar  209  TYR209     -0.0009
     67  CE1        8.5870   10.8830   12.8790 C.ar  209  TYR209      0.0417
     68  CE2        8.5440   12.5520   14.6070 C.ar  209  TYR209      0.0417
     69  CZ         8.2000   12.1400   13.3410 C.ar  209  TYR209      0.1957
     70  OH         7.4670   12.9810   12.5620 O.3   209  TYR209     -0.2866
     71  N          1.4580    7.3960   14.6210 N.3   255  TYR255     -0.1241
     72  CA         1.6390    8.3210   15.7380 C.3   255  TYR255      0.1605
     73  C          1.2020    7.6380   17.0110 C.2   255  TYR255      0.2264
     74  O          0.3430    6.7500   16.9620 O.2   255  TYR255     -0.2867
     75  CB         0.8240    9.6250   15.6110 C.3   255  TYR255      0.0534
     76  CG         1.0520   10.4780   14.4000 C.ar  255  TYR255     -0.0201
     77  CD1        2.1570   10.3120   13.5770 C.ar  255  TYR255     -0.0009
     78  CD2        0.1620   11.4880   14.0980 C.ar  255  TYR255     -0.0009
     79  CE1        2.3310   11.1120   12.4530 C.ar  255  TYR255      0.0417
     80  CE2        0.3190   12.3020   12.9920 C.ar  255  TYR255      0.0417
     81  CZ         1.3930   12.1240   12.1740 C.ar  255  TYR255      0.1957
     82  OH         1.5340   12.9340   11.0580 O.3   255  TYR255     -0.2866
     83  N          2.6600    5.2350    6.2820 N.3   276  TYR276     -0.1227
     84  CA         3.9680    5.5540    5.6960 C.3   276  TYR276      0.1736
     85  C          5.0550    5.6860    6.7580 C.2   276  TYR276      0.2595
     86  O          6.1730    5.2130    6.5470 O.2   276  TYR276     -0.2718
     87  CB         3.8630    6.8620    4.8290 C.3   276  TYR276      0.0548
     88  CG         2.7940    6.7240    3.7680 C.ar  276  TYR276     -0.0200
     89  CD1        3.0180    5.9220    2.6890 C.ar  276  TYR276     -0.0009
     90  CD2        1.5460    7.3420    3.8760 C.ar  276  TYR276     -0.0009
     91  CE1        2.0470    5.7220    1.6960 C.ar  276  TYR276      0.0417
     92  CE2        0.5400    7.1530    2.8810 C.ar  276  TYR276      0.0417
     93  CZ         0.8120    6.3310    1.7900 C.ar  276  TYR276      0.1957
     94  OH        -0.1040    6.0650    0.7450 O.3   276  TYR276     -0.2866
     95  N          4.7440    6.2760    7.9140 N.am  277  ASP277     -0.1974
     96  CA         5.7510    6.4180    8.9730 C.3   277  ASP277      0.1709
     97  C          6.1240    5.0730    9.5800 C.2   277  ASP277      0.2293
     98  O          7.3060    4.7540    9.7540 O.2   277  ASP277     -0.2864
     99  CB         5.2640    7.2740   10.1190 C.3   277  ASP277      0.1436
    100  CG         5.3700    8.7590    9.8440 C.2   277  ASP277      0.3671
    101  OD1        5.2860    9.1800    8.6790 O.co2 277  ASP277     -0.2456
    102  OD2        5.5260    9.4960   10.8360 O.co2 277  ASP277     -0.2456
    103  N          8.7810    2.0730    8.9360 N.3   280  ARG280     -0.1245
    104  CA        10.1700    2.1940    9.3450 C.3   280  ARG280      0.1563
    105  C         10.4650    1.6150   10.7210 C.2   280  ARG280      0.2260
    106  O         11.6170    1.3830   11.0160 O.2   280  ARG280     -0.2867
    107  CB        10.6060    3.6590    9.3210 C.3   280  ARG280      0.0307
    108  CG        10.3420    4.3250    7.9860 C.3   280  ARG280      0.0489
    109  CD        10.7010    5.7840    8.0110 C.3   280  ARG280      0.2205
    110  NE         9.7920    6.4880    8.9180 N.pl3 280  ARG280     -0.0865
    111  CZ         9.5690    7.7940    8.9060 C.cat 280  ARG280      0.5346
    112  NH1       10.1950    8.5730    8.0290 N.pl3 280  ARG280      0.1354
    113  NH2        8.6870    8.3270    9.7730 N.pl3 280  ARG280      0.1354
    114  N         10.1820    8.7130   -1.4230 N.3   371  TYR371     -0.1241
    115  CA        10.0570    7.9900   -0.1900 C.3   371  TYR371      0.1605
    116  C         10.4610    6.5330   -0.4360 C.2   371  TYR371      0.2264
    117  O         11.2940    5.9610    0.2930 O.2   371  TYR371     -0.2867
    118  CB         8.6570    8.1130    0.4080 C.3   371  TYR371      0.0534
    119  CG         8.6030    7.6820    1.8600 C.ar  371  TYR371     -0.0201
    120  CD1        9.4490    8.2410    2.8140 C.ar  371  TYR371     -0.0009
    121  CD2        7.7150    6.6980    2.2780 C.ar  371  TYR371     -0.0009
    122  CE1        9.3800    7.8570    4.1290 C.ar  371  TYR371      0.0417
    123  CE2        7.6150    6.3190    3.5890 C.ar  371  TYR371      0.0417
    124  CZ         8.4550    6.8790    4.5200 C.ar  371  TYR371      0.1957
    125  OH         8.3650    6.4800    5.8070 O.3   371  TYR371     -0.2866
@<TRIPOS>BOND
     1   114   115    1
     2   116   115    1
     3   116   117    2
     4   115   118    1
     5   118   119    1
     6    94    93    1
     7    91    93   ar
     8    91    89   ar
     9    93    92   ar
    10   119   121   ar
    11   119   120   ar
    12   121   123   ar
    13     1     2    1
    14    89    88   ar
    15   120   122   ar
    16    92    90   ar
    17    11     9    1
    18     8     9    2
    19     8     7    1
    20     9    10    1
    21     6     7    1
    22     6     5    1
    23   123   124   ar
    24    88    90   ar
    25    88    87    1
    26     2     5    1
    27     2     3    1
    28     4     3    2
    29   122   124   ar
    30    19    18   ar
    31   124   125    1
    32    87    84    1
    33    18    17    1
    34    18    20   ar
    35    14    15    2
    36    14    13    1
    37    84    83    1
    38    84    85    1
    39    17    16    1
    40    24    23    2
    41    33    34   ar
    42    33    31   ar
    43    34    32   ar
    44    86    85    2
    45    16    13    1
    46    85    95   am
    47    13    12    1
    48    23    22    1
    49    31    28   ar
    50    32    30   ar
    51    95    96    1
    52    28    30   ar
    53    28    26   ar
    54    30    29   ar
    55   108   109    1
    56   108   107    1
    57   109   110    1
    58   112   111    1
    59    22    21    1
    60    22    25    1
    61   101   100   ar
    62    26    25    1
    63    26    27   ar
    64   111   110    2
    65   111   113    1
    66    29    27   ar
    67   103   104    1
    68    96    97    1
    69    96    99    1
    70   107   104    1
    71   104   105    1
    72    97    98    2
    73   100    99    1
    74   100   102   ar
    75    47    45   ar
    76   105   106    2
    77    82    81    1
    78    39    36    1
    79    45    46   ar
    80    45    44    1
    81    81    79   ar
    82    81    80   ar
    83    43    42    2
    84    42    41    1
    85    35    36    1
    86    79    77   ar
    87    36    37    1
    88    44    41    1
    89    38    37    2
    90    70    69    1
    91    67    69   ar
    92    67    65   ar
    93    80    78   ar
    94    41    40    1
    95    69    68   ar
    96    77    76   ar
    97    58    56   ar
    98    58    57   ar
    99    65    64   ar
   100    56    54   ar
   101    78    76   ar
   102    76    75    1
   103    68    66   ar
   104    71    72    1
   105    57    55   ar
   106    54    53   ar
   107    59    60    1
   108    64    66   ar
   109    64    63    1
   110    60    63    1
   111    60    61    1
   112    75    72    1
   113    72    73    1
   114    51    50    2
   115    55    53   ar
   116    53    52    1
   117    61    62    2
   118    74    73    2
   119    50    49    1
   120    52    49    1
   121    49    48    1
