@<TRIPOS>MOLECULE
tmp/6g0bA02.pdb
 104 101 0 0 0
SMALL
GASTEIGER

@<TRIPOS>ATOM
      1  N         10.9610   21.7060    8.9260 N.3   113  TRP113     -0.1241
      2  CA        10.7610   20.3730    8.3550 C.3   113  TRP113      0.1605
      3  C         10.3570   20.3100    6.8830 C.2   113  TRP113      0.2264
      4  O         10.6290   19.2880    6.2360 O.2   113  TRP113     -0.2867
      5  CB         9.7500   19.5830    9.1730 C.3   113  TRP113      0.0550
      6  CG         8.2770   19.8290    8.8550 C.ar  113  TRP113      0.0003
      7  CD1        7.4360   20.7590    9.4340 C.ar  113  TRP113      0.0946
      8  CD2        7.4820   19.1160    7.9280 C.ar  113  TRP113      0.0152
      9  NE1        6.1900   20.6440    8.9190 N.ar  113  TRP113     -0.2442
     10  CE2        6.1850   19.6640    7.9750 C.ar  113  TRP113      0.0810
     11  CE3        7.7410   18.0790    7.0360 C.ar  113  TRP113      0.0012
     12  CZ2        5.1330   19.1820    7.1930 C.ar  113  TRP113      0.0191
     13  CZ3        6.7120   17.6060    6.2620 C.ar  113  TRP113      0.0001
     14  CH2        5.4230   18.1750    6.3170 C.ar  113  TRP113      0.0015
     15  N          6.9120   25.4190    6.6980 N.3   123  ASP123     -0.1239
     16  CA         6.6260   25.3070    8.1220 C.3   123  ASP123      0.1674
     17  C          7.9460   25.4360    8.8470 C.2   123  ASP123      0.2266
     18  O          8.8520   24.6360    8.6080 O.2   123  ASP123     -0.2867
     19  CB         5.9430   23.9490    8.4130 C.3   123  ASP123      0.1410
     20  CG         5.4970   23.7990    9.8650 C.2   123  ASP123      0.3668
     21  OD1        5.8330   24.6750   10.7070 O.co2 123  ASP123     -0.2456
     22  OD2        4.8070   22.7900   10.1690 O.co2 123  ASP123     -0.2456
     23  N          8.5350   24.9580   12.0030 N.3   125  MET125     -0.1231
     24  CA         8.7130   23.9460   13.0470 C.3   125  MET125      0.1687
     25  C          9.4660   22.7320   12.5080 C.2   125  MET125      0.2434
     26  O          9.3680   22.4200   11.3230 O.2   125  MET125     -0.2733
     27  CB         7.3810   23.4040   13.5810 C.3   125  MET125      0.0400
     28  CG         6.5260   24.3540   14.4010 C.3   125  MET125      0.0596
     29  SD         7.2940   24.7280   16.0120 S.3   125  MET125     -0.1393
     30  CE         7.9920   26.3230   15.5230 C.3   125  MET125      0.0692
     31  N         10.1440   21.9950   13.4070 N.am  126  PRO126     -0.2729
     32  CA        10.8930   20.8220   13.0000 C.3   126  PRO126      0.1401
     33  C         10.1000   19.5510   13.0400 C.2   126  PRO126      0.2269
     34  O          9.0390   19.4890   13.6640 O.2   126  PRO126     -0.2865
     35  CB        11.9960   20.7660   14.0510 C.3   126  PRO126      0.0296
     36  CG        11.2700   21.2120   15.2880 C.3   126  PRO126      0.0237
     37  CD        10.4540   22.3680   14.8030 C.3   126  PRO126      0.0939
     38  N          4.0740   30.9550   10.3150 N.3   177  ARG177     -0.1245
     39  CA         2.6880   30.5740   10.5350 C.3   177  ARG177      0.1563
     40  C          1.9490   31.4640   11.5530 C.2   177  ARG177      0.2260
     41  O          0.8020   31.2220   11.8370 O.2   177  ARG177     -0.2867
     42  CB         2.6140   29.0880   10.9490 C.3   177  ARG177      0.0307
     43  CG         3.0070   28.1790    9.7960 C.3   177  ARG177      0.0489
     44  CD         3.3360   26.7500   10.2050 C.3   177  ARG177      0.2205
     45  NE         2.2340   26.1650   10.9460 N.pl3 177  ARG177     -0.0865
     46  CZ         2.3310   25.3050   11.9540 C.cat 177  ARG177      0.5346
     47  NH1        3.5140   24.8350   12.4210 N.pl3 177  ARG177      0.1354
     48  NH2        1.2130   24.9300   12.5280 N.pl3 177  ARG177      0.1354
     49  N          3.8620   31.2750   17.6380 N.3   180  MET180     -0.1245
     50  CA         3.8440   29.9100   18.1290 C.3   180  MET180      0.1570
     51  C          4.7210   29.7360   19.3680 C.2   180  MET180      0.2261
     52  O          5.5990   30.5340   19.6690 O.2   180  MET180     -0.2867
     53  CB         4.3190   28.9260   17.0400 C.3   180  MET180      0.0387
     54  CG         3.5310   29.0100   15.7570 C.3   180  MET180      0.0595
     55  SD         3.8310   27.6630   14.5950 S.3   180  MET180     -0.1393
     56  CE         3.2560   26.2960   15.6030 C.3   180  MET180      0.0692
     57  N          6.7350   13.9700   18.8790 N.3   195  PHE195     -0.1227
     58  CA         6.2440   14.1740   17.5050 C.3   195  PHE195      0.1736
     59  C          6.4670   15.6350   17.0490 C.2   195  PHE195      0.2596
     60  O          6.8340   15.8830   15.9200 O.2   195  PHE195     -0.2718
     61  CB         4.7670   13.7760   17.4080 C.3   195  PHE195      0.0547
     62  CG         4.1380   14.1750   16.1050 C.ar  195  PHE195     -0.0202
     63  CD1        4.3610   13.4120   14.9680 C.ar  195  PHE195     -0.0042
     64  CD2        3.4120   15.3480   15.9870 C.ar  195  PHE195     -0.0042
     65  CE1        3.8460   13.8150   13.7400 C.ar  195  PHE195     -0.0003
     66  CE2        2.8680   15.7370   14.7640 C.ar  195  PHE195     -0.0003
     67  CZ         3.0900   14.9680   13.6470 C.ar  195  PHE195     -0.0000
     68  N          6.2850   16.6100   17.9440 N.am  196  THR196     -0.1953
     69  CA         6.5000   18.0160   17.6230 C.3   196  THR196      0.1897
     70  C          6.8470   18.7500   18.8890 C.2   196  THR196      0.2313
     71  O          6.3740   18.3240   19.9620 O.2   196  THR196     -0.2863
     72  CB         5.2380   18.6790   16.9940 C.3   196  THR196      0.1794
     73  OG1        5.5160   20.0310   16.6940 O.3   196  THR196     -0.2208
     74  CG2        4.0280   18.6550   17.9130 C.3   196  THR196      0.0378
     75  N          5.9400   21.8120   19.1550 N.3   198  ASP198     -0.1239
     76  CA         4.8050   22.7180   19.2440 C.3   198  ASP198      0.1674
     77  C          3.9890   22.3330   20.4880 C.2   198  ASP198      0.2266
     78  O          3.5170   21.1880   20.6110 O.2   198  ASP198     -0.2867
     79  CB         3.9470   22.6430   17.9620 C.3   198  ASP198      0.1410
     80  CG         2.6720   23.4950   17.9990 C.2   198  ASP198      0.3668
     81  OD1        2.3370   24.1440   19.0300 O.co2 198  ASP198     -0.2456
     82  OD2        1.9580   23.4720   16.9430 O.co2 198  ASP198     -0.2456
     83  N          0.7280   20.2220   20.6080 N.3   201  ASN201     -0.1240
     84  CA         0.6870   18.7630   20.4220 C.3   201  ASN201      0.1653
     85  C          1.9640   18.0910   20.9100 C.2   201  ASN201      0.2266
     86  O          2.3310   17.0240   20.4070 O.2   201  ASN201     -0.2867
     87  CB         0.4670   18.4650   18.9390 C.3   201  ASN201      0.1155
     88  CG        -0.9240   18.8160   18.4640 C.2   201  ASN201      0.2627
     89  OD1       -1.8910   18.1890   18.8630 O.2   201  ASN201     -0.2716
     90  ND2       -1.0200   19.7700   17.5750 N.am  201  ASN201     -0.0877
     91  N         -6.0020   16.4160   12.9850 N.3   267  TRP267     -0.1241
     92  CA        -5.9470   16.7820   11.5790 C.3   267  TRP267      0.1605
     93  C         -5.6670   15.5470   10.7010 C.2   267  TRP267      0.2264
     94  O         -5.6440   15.6710    9.4820 O.2   267  TRP267     -0.2867
     95  CB        -4.8710   17.8310   11.3330 C.3   267  TRP267      0.0550
     96  CG        -3.4880   17.3190   11.5880 C.ar  267  TRP267      0.0003
     97  CD1       -2.6470   16.7490   10.6950 C.ar  267  TRP267      0.0946
     98  CD2       -2.8170   17.2980   12.8450 C.ar  267  TRP267      0.0152
     99  NE1       -1.5020   16.3680   11.3120 N.ar  267  TRP267     -0.2442
    100  CE2       -1.5780   16.7000   12.6380 C.ar  267  TRP267      0.0810
    101  CE3       -3.1550   17.7260   14.1300 C.ar  267  TRP267      0.0012
    102  CZ2       -0.6520   16.5280   13.6740 C.ar  267  TRP267      0.0191
    103  CZ3       -2.2520   17.5450   15.1480 C.ar  267  TRP267      0.0001
    104  CH2       -1.0280   16.9250   14.9170 C.ar  267  TRP267      0.0015
@<TRIPOS>BOND
     1     4     3    2
     2    13    14   ar
     3    13    11   ar
     4    14    12   ar
     5    15    16    1
     6     3     2    1
     7    11     8   ar
     8    12    10   ar
     9     8    10   ar
    10     8     6   ar
    11    10     9   ar
    12    16    19    1
    13    16    17    1
    14     2     1    1
    15     2     5    1
    16    19    20    1
    17    18    17    2
    18     6     5    1
    19     6     7   ar
    20     9     7   ar
    21    94    93    2
    22    43    44    1
    23    43    42    1
    24    20    22   ar
    25    20    21   ar
    26    44    45    1
    27    38    39    1
    28    39    42    1
    29    39    40    1
    30    97    99   ar
    31    97    96   ar
    32    93    92    1
    33    45    46    2
    34    99   100   ar
    35    26    25    2
    36    95    92    1
    37    95    96    1
    38    40    41    2
    39    92    91    1
    40    96    98   ar
    41    46    47    1
    42    46    48    1
    43    23    24    1
    44    25    24    1
    45    25    31   am
    46   100    98   ar
    47   100   102   ar
    48    98   101   ar
    49    32    33    1
    50    32    31    1
    51    32    35    1
    52    33    34    2
    53    24    27    1
    54    31    37    1
    55    27    28    1
    56    67    65   ar
    57    67    66   ar
    58   102   104   ar
    59    65    63   ar
    60    35    36    1
    61   101   103   ar
    62    28    29    1
    63    55    56    1
    64    55    54    1
    65    66    64   ar
    66    37    36    1
    67   104   103   ar
    68    63    62   ar
    69    30    29    1
    70    54    53    1
    71    60    59    2
    72    64    62   ar
    73    62    61    1
    74    73    72    1
    75    82    80   ar
    76    72    69    1
    77    72    74    1
    78    53    50    1
    79    59    58    1
    80    59    68   am
    81    61    58    1
    82    58    57    1
    83    90    88   am
    84    69    68    1
    85    69    70    1
    86    49    50    1
    87    79    80    1
    88    79    76    1
    89    80    81   ar
    90    50    51    1
    91    88    89    2
    92    88    87    1
    93    70    71    2
    94    87    84    1
    95    75    76    1
    96    76    77    1
    97    51    52    2
    98    86    85    2
    99    84    83    1
   100    84    85    1
   101    77    78    2
