@<TRIPOS>MOLECULE
tmp/6g0bA00.pdb
 120 119 0 0 0
SMALL
GASTEIGER

@<TRIPOS>ATOM
      1  N         12.2100   18.0530    2.4780 N.3    67  ARG67      -0.1245
      2  CA        11.9310   17.7830    3.8910 C.3    67  ARG67       0.1563
      3  C         13.2000   17.5490    4.6560 C.2    67  ARG67       0.2260
      4  O         14.1790   17.0030    4.1120 O.2    67  ARG67      -0.2867
      5  CB        10.9870   16.6140    4.0070 C.3    67  ARG67       0.0307
      6  CG         9.6300   16.9720    3.4030 C.3    67  ARG67       0.0489
      7  CD         8.5940   15.8900    3.5880 C.3    67  ARG67       0.2205
      8  NE         7.2570   16.3540    3.2230 N.pl3  67  ARG67      -0.0865
      9  CZ         6.1700   15.6030    3.3000 C.cat  67  ARG67       0.5346
     10  NH1        6.2750   14.3450    3.7510 N.pl3  67  ARG67       0.1354
     11  NH2        4.9780   16.1100    2.9740 N.pl3  67  ARG67       0.1354
     12  N         10.9610   21.7060    8.9260 N.3   113  TRP113     -0.1241
     13  CA        10.7610   20.3730    8.3550 C.3   113  TRP113      0.1605
     14  C         10.3570   20.3100    6.8830 C.2   113  TRP113      0.2264
     15  O         10.6290   19.2880    6.2360 O.2   113  TRP113     -0.2867
     16  CB         9.7500   19.5830    9.1730 C.3   113  TRP113      0.0550
     17  CG         8.2770   19.8290    8.8550 C.ar  113  TRP113      0.0003
     18  CD1        7.4360   20.7590    9.4340 C.ar  113  TRP113      0.0946
     19  CD2        7.4820   19.1160    7.9280 C.ar  113  TRP113      0.0152
     20  NE1        6.1900   20.6440    8.9190 N.ar  113  TRP113     -0.2442
     21  CE2        6.1850   19.6640    7.9750 C.ar  113  TRP113      0.0810
     22  CE3        7.7410   18.0790    7.0360 C.ar  113  TRP113      0.0012
     23  CZ2        5.1330   19.1820    7.1930 C.ar  113  TRP113      0.0191
     24  CZ3        6.7120   17.6060    6.2620 C.ar  113  TRP113      0.0001
     25  CH2        5.4230   18.1750    6.3170 C.ar  113  TRP113      0.0015
     26  N          6.9120   25.4190    6.6980 N.3   123  ASP123     -0.1239
     27  CA         6.6260   25.3070    8.1220 C.3   123  ASP123      0.1674
     28  C          7.9460   25.4360    8.8470 C.2   123  ASP123      0.2266
     29  O          8.8520   24.6360    8.6080 O.2   123  ASP123     -0.2867
     30  CB         5.9430   23.9490    8.4130 C.3   123  ASP123      0.1410
     31  CG         5.4970   23.7990    9.8650 C.2   123  ASP123      0.3668
     32  OD1        5.8330   24.6750   10.7070 O.co2 123  ASP123     -0.2456
     33  OD2        4.8070   22.7900   10.1690 O.co2 123  ASP123     -0.2456
     34  N          8.5350   24.9580   12.0030 N.3   125  MET125     -0.1231
     35  CA         8.7130   23.9460   13.0470 C.3   125  MET125      0.1687
     36  C          9.4660   22.7320   12.5080 C.2   125  MET125      0.2434
     37  O          9.3680   22.4200   11.3230 O.2   125  MET125     -0.2733
     38  CB         7.3810   23.4040   13.5810 C.3   125  MET125      0.0400
     39  CG         6.5260   24.3540   14.4010 C.3   125  MET125      0.0596
     40  SD         7.2940   24.7280   16.0120 S.3   125  MET125     -0.1393
     41  CE         7.9920   26.3230   15.5230 C.3   125  MET125      0.0692
     42  N         10.1440   21.9950   13.4070 N.am  126  PRO126     -0.2718
     43  CA        10.8930   20.8220   13.0000 C.3   126  PRO126      0.1535
     44  C         10.1000   19.5510   13.0400 C.2   126  PRO126      0.2598
     45  O          9.0390   19.4890   13.6640 O.2   126  PRO126     -0.2715
     46  CB        11.9960   20.7660   14.0510 C.3   126  PRO126      0.0310
     47  CG        11.2700   21.2120   15.2880 C.3   126  PRO126      0.0237
     48  CD        10.4540   22.3680   14.8030 C.3   126  PRO126      0.0939
     49  N         10.6100   18.5460   12.3290 N.am  127  ALA127     -0.1978
     50  CA        10.1520   17.1630   12.4690 C.3   127  ALA127      0.1597
     51  C         11.3020   16.4220   13.1460 C.2   127  ALA127      0.2287
     52  O         12.3680   16.2330   12.5340 O.2   127  ALA127     -0.2864
     53  CB         9.8430   16.5400   11.1210 C.3   127  ALA127      0.0319
     54  N          4.0740   30.9550   10.3150 N.3   177  ARG177     -0.1245
     55  CA         2.6880   30.5740   10.5350 C.3   177  ARG177      0.1563
     56  C          1.9490   31.4640   11.5530 C.2   177  ARG177      0.2260
     57  O          0.8020   31.2220   11.8370 O.2   177  ARG177     -0.2867
     58  CB         2.6140   29.0880   10.9490 C.3   177  ARG177      0.0307
     59  CG         3.0070   28.1790    9.7960 C.3   177  ARG177      0.0489
     60  CD         3.3360   26.7500   10.2050 C.3   177  ARG177      0.2205
     61  NE         2.2340   26.1650   10.9460 N.pl3 177  ARG177     -0.0865
     62  CZ         2.3310   25.3050   11.9540 C.cat 177  ARG177      0.5346
     63  NH1        3.5140   24.8350   12.4210 N.pl3 177  ARG177      0.1354
     64  NH2        1.2130   24.9300   12.5280 N.pl3 177  ARG177      0.1354
     65  N          6.7350   13.9700   18.8790 N.3   195  PHE195     -0.1227
     66  CA         6.2440   14.1740   17.5050 C.3   195  PHE195      0.1736
     67  C          6.4670   15.6350   17.0490 C.2   195  PHE195      0.2596
     68  O          6.8340   15.8830   15.9200 O.2   195  PHE195     -0.2718
     69  CB         4.7670   13.7760   17.4080 C.3   195  PHE195      0.0547
     70  CG         4.1380   14.1750   16.1050 C.ar  195  PHE195     -0.0202
     71  CD1        4.3610   13.4120   14.9680 C.ar  195  PHE195     -0.0042
     72  CD2        3.4120   15.3480   15.9870 C.ar  195  PHE195     -0.0042
     73  CE1        3.8460   13.8150   13.7400 C.ar  195  PHE195     -0.0003
     74  CE2        2.8680   15.7370   14.7640 C.ar  195  PHE195     -0.0003
     75  CZ         3.0900   14.9680   13.6470 C.ar  195  PHE195     -0.0000
     76  N          6.2850   16.6100   17.9440 N.am  196  THR196     -0.1953
     77  CA         6.5000   18.0160   17.6230 C.3   196  THR196      0.1897
     78  C          6.8470   18.7500   18.8890 C.2   196  THR196      0.2313
     79  O          6.3740   18.3240   19.9620 O.2   196  THR196     -0.2863
     80  CB         5.2380   18.6790   16.9940 C.3   196  THR196      0.1794
     81  OG1        5.5160   20.0310   16.6940 O.3   196  THR196     -0.2208
     82  CG2        4.0280   18.6550   17.9130 C.3   196  THR196      0.0378
     83  N         10.0480    7.3350   15.0030 N.3   209  TYR209     -0.1241
     84  CA        11.0630    8.2860   15.4180 C.3   209  TYR209      0.1605
     85  C         11.9560    7.7170   16.5320 C.2   209  TYR209      0.2264
     86  O         12.9430    8.3220   16.8690 O.2   209  TYR209     -0.2867
     87  CB        10.4360    9.5570   15.9590 C.3   209  TYR209      0.0534
     88  CG         9.6600   10.4350   15.0120 C.ar  209  TYR209     -0.0201
     89  CD1        9.3010   10.0240   13.7170 C.ar  209  TYR209     -0.0009
     90  CD2        9.2560   11.6930   15.4400 C.ar  209  TYR209     -0.0009
     91  CE1        8.5870   10.8830   12.8790 C.ar  209  TYR209      0.0417
     92  CE2        8.5440   12.5520   14.6070 C.ar  209  TYR209      0.0417
     93  CZ         8.2000   12.1400   13.3410 C.ar  209  TYR209      0.1957
     94  OH         7.4670   12.9810   12.5620 O.3   209  TYR209     -0.2866
     95  N          1.4580    7.3960   14.6210 N.3   255  TYR255     -0.1241
     96  CA         1.6390    8.3210   15.7380 C.3   255  TYR255      0.1605
     97  C          1.2020    7.6380   17.0110 C.2   255  TYR255      0.2264
     98  O          0.3430    6.7500   16.9620 O.2   255  TYR255     -0.2867
     99  CB         0.8240    9.6250   15.6110 C.3   255  TYR255      0.0534
    100  CG         1.0520   10.4780   14.4000 C.ar  255  TYR255     -0.0201
    101  CD1        2.1570   10.3120   13.5770 C.ar  255  TYR255     -0.0009
    102  CD2        0.1620   11.4880   14.0980 C.ar  255  TYR255     -0.0009
    103  CE1        2.3310   11.1120   12.4530 C.ar  255  TYR255      0.0417
    104  CE2        0.3190   12.3020   12.9920 C.ar  255  TYR255      0.0417
    105  CZ         1.3930   12.1240   12.1740 C.ar  255  TYR255      0.1957
    106  OH         1.5340   12.9340   11.0580 O.3   255  TYR255     -0.2866
    107  N         -6.0020   16.4160   12.9850 N.3   267  TRP267     -0.1241
    108  CA        -5.9470   16.7820   11.5790 C.3   267  TRP267      0.1605
    109  C         -5.6670   15.5470   10.7010 C.2   267  TRP267      0.2264
    110  O         -5.6440   15.6710    9.4820 O.2   267  TRP267     -0.2867
    111  CB        -4.8710   17.8310   11.3330 C.3   267  TRP267      0.0550
    112  CG        -3.4880   17.3190   11.5880 C.ar  267  TRP267      0.0003
    113  CD1       -2.6470   16.7490   10.6950 C.ar  267  TRP267      0.0946
    114  CD2       -2.8170   17.2980   12.8450 C.ar  267  TRP267      0.0152
    115  NE1       -1.5020   16.3680   11.3120 N.ar  267  TRP267     -0.2442
    116  CE2       -1.5780   16.7000   12.6380 C.ar  267  TRP267      0.0810
    117  CE3       -3.1550   17.7260   14.1300 C.ar  267  TRP267      0.0012
    118  CZ2       -0.6520   16.5280   13.6740 C.ar  267  TRP267      0.0191
    119  CZ3       -2.2520   17.5450   15.1480 C.ar  267  TRP267      0.0001
    120  CH2       -1.0280   16.9250   14.9170 C.ar  267  TRP267      0.0015
@<TRIPOS>BOND
     1     1     2    1
     2    11     9    1
     3     8     9    2
     4     8     7    1
     5     9    10    1
     6     6     7    1
     7     6     5    1
     8     2     5    1
     9     2     3    1
    10     4     3    2
    11    15    14    2
    12    24    25   ar
    13    24    22   ar
    14    25    23   ar
    15    26    27    1
    16    14    13    1
    17    22    19   ar
    18    23    21   ar
    19    19    21   ar
    20    19    17   ar
    21    21    20   ar
    22    27    30    1
    23    27    28    1
    24    13    12    1
    25    13    16    1
    26    30    31    1
    27    29    28    2
    28    17    16    1
    29    17    18   ar
    30    20    18   ar
    31   110   109    2
    32    59    60    1
    33    59    58    1
    34    31    33   ar
    35    31    32   ar
    36    60    61    1
    37    54    55    1
    38    55    58    1
    39    55    56    1
    40   113   115   ar
    41   113   112   ar
    42   109   108    1
    43    61    62    2
    44   106   105    1
    45    53    50    1
    46   115   116   ar
    47    37    36    2
    48   111   108    1
    49   111   112    1
    50    56    57    2
    51   108   107    1
    52   112   114   ar
    53    62    63    1
    54    62    64    1
    55    34    35    1
    56   105   103   ar
    57   105   104   ar
    58    49    50    1
    59    49    44   am
    60   103   101   ar
    61    50    51    1
    62    36    35    1
    63    36    42   am
    64    52    51    2
    65    94    93    1
    66   116   114   ar
    67   116   118   ar
    68   114   117   ar
    69    91    93   ar
    70    91    89   ar
    71   104   102   ar
    72    43    44    1
    73    43    42    1
    74    43    46    1
    75    44    45    2
    76    35    38    1
    77    93    92   ar
    78    42    48    1
    79   101   100   ar
    80    38    39    1
    81    75    73   ar
    82    75    74   ar
    83   118   120   ar
    84    89    88   ar
    85    73    71   ar
    86    46    47    1
    87   102   100   ar
    88   117   119   ar
    89   100    99    1
    90    39    40    1
    91    92    90   ar
    92    95    96    1
    93    74    72   ar
    94    48    47    1
    95   120   119   ar
    96    71    70   ar
    97    83    84    1
    98    88    90   ar
    99    88    87    1
   100    84    87    1
   101    84    85    1
   102    41    40    1
   103    99    96    1
   104    96    97    1
   105    68    67    2
   106    72    70   ar
   107    70    69    1
   108    85    86    2
   109    81    80    1
   110    98    97    2
   111    80    77    1
   112    80    82    1
   113    67    66    1
   114    67    76   am
   115    69    66    1
   116    66    65    1
   117    77    76    1
   118    77    78    1
   119    78    79    2
