@<TRIPOS>MOLECULE
tmp/6g0lK00.pdb
 193 184 0 0 0
SMALL
GASTEIGER

@<TRIPOS>ATOM
      1  N        258.9850  214.5390  168.3490 N.3   192  GLY192     -0.1210
      2  CA       260.1830  214.5220  169.1630 C.3   192  GLY192      0.1956
      3  C        260.9770  213.2580  168.9150 C.2   192  GLY192      0.2612
      4  O        260.6310  212.4320  168.0690 O.2   192  GLY192     -0.2717
      5  N        262.0590  213.1200  169.6730 N.am  193  GLU193     -0.1965
      6  CA       262.9320  211.9630  169.5630 C.3   193  GLU193      0.1733
      7  C        262.4840  210.8590  170.5150 C.2   193  GLU193      0.2616
      8  O        261.7550  211.0920  171.4830 O.2   193  GLU193     -0.2715
      9  CB       264.3850  212.3480  169.8550 C.3   193  GLU193      0.0429
     10  CG       264.6520  212.7790  171.2920 C.3   193  GLU193      0.1163
     11  CD       264.1990  214.1990  171.5760 C.2   193  GLU193      0.3649
     12  OE1      263.8550  214.9210  170.6160 O.co2 193  GLU193     -0.2457
     13  OE2      264.1860  214.5930  172.7610 O.co2 193  GLU193     -0.2457
     14  N        262.9310  209.6410  170.2230 N.am  194  LEU194     -0.1963
     15  CA       262.5990  208.4650  171.0110 C.3   194  LEU194      0.1728
     16  C        263.8600  207.8990  171.6510 C.2   194  LEU194      0.2616
     17  O        264.9810  208.1560  171.2020 O.2   194  LEU194     -0.2715
     18  CB       261.9180  207.3870  170.1530 C.3   194  LEU194      0.0311
     19  CG       260.4260  207.5300  169.8280 C.3   194  LEU194      0.0022
     20  CD1      260.1470  208.7290  168.9340 C.3   194  LEU194      0.0001
     21  CD2      259.9000  206.2540  169.1850 C.3   194  LEU194      0.0001
     22  N        263.6630  207.1210  172.7140 N.am  195  ARG195     -0.1977
     23  CA       264.7770  206.5010  173.4210 C.3   195  ARG195      0.1597
     24  C        265.1660  205.1810  172.7640 C.2   195  ARG195      0.2287
     25  O        265.2660  205.0980  171.5370 O.2   195  ARG195     -0.2864
     26  CB       264.4280  206.2810  174.8970 C.3   195  ARG195      0.0334
     27  CG       264.7470  207.4620  175.8040 C.3   195  ARG195      0.0492
     28  CD       263.8190  208.6410  175.5600 C.3   195  ARG195      0.2205
     29  NE       262.4380  208.3330  175.9210 N.pl3 195  ARG195     -0.0865
     30  CZ       261.4360  209.2050  175.8500 C.cat 195  ARG195      0.5346
     31  NH1      261.6600  210.4430  175.4310 N.pl3 195  ARG195      0.1354
     32  NH2      260.2100  208.8380  176.1980 N.pl3 195  ARG195      0.1354
     33  N        261.5370  202.2260  173.1960 N.3   198  GLN198     -0.1245
     34  CA       260.4730  202.4750  172.2290 C.3   198  GLN198      0.1566
     35  C        260.7800  201.7940  170.9010 C.2   198  GLN198      0.2260
     36  O        259.9500  201.0520  170.3630 O.2   198  GLN198     -0.2867
     37  CB       260.2740  203.9780  172.0290 C.3   198  GLN198      0.0367
     38  CG       259.6170  204.6960  173.1970 C.3   198  GLN198      0.0905
     39  CD       260.6000  205.0780  174.2860 C.2   198  GLN198      0.2608
     40  OE1      261.7150  204.5590  174.3460 O.2   198  GLN198     -0.2717
     41  NE2      260.1910  205.9970  175.1530 N.am  198  GLN198     -0.0878
     42  N        252.4550  201.9420  182.5160 N.3   221  MET221     -0.1230
     43  CA       251.6740  203.1070  182.1230 C.3   221  MET221      0.1702
     44  C        252.5370  204.3630  182.1350 C.2   221  MET221      0.2592
     45  O        252.9090  204.8630  183.2020 O.2   221  MET221     -0.2718
     46  CB       250.4680  203.2850  183.0470 C.3   221  MET221      0.0401
     47  CG       249.5530  202.0830  183.2420 C.3   221  MET221      0.0596
     48  SD       248.4330  201.9860  181.8340 S.3   221  MET221     -0.1393
     49  CE       247.1780  203.2280  182.1960 C.3   221  MET221      0.0692
     50  N        252.8440  204.8750  180.9480 N.am  222  GLY222     -0.1957
     51  CA       253.6490  206.0740  180.7930 C.3   222  GLY222      0.1869
     52  C        254.8280  205.9320  179.8550 C.2   222  GLY222      0.2309
     53  O        255.4430  206.9490  179.5030 O.2   222  GLY222     -0.2863
     54  N        255.0830  205.6090  176.7830 N.3   224  GLY224     -0.1210
     55  CA       254.7950  205.9350  175.4000 C.3   224  GLY224      0.1956
     56  C        254.1190  204.8290  174.6220 C.2   224  GLY224      0.2612
     57  O        254.4860  204.5730  173.4680 O.2   224  GLY224     -0.2717
     58  N        253.1290  204.1610  175.2220 N.am  225  LYS225     -0.1965
     59  CA       252.4450  203.0750  174.5280 C.3   225  LYS225      0.1728
     60  C        251.6050  203.5890  173.3660 C.2   225  LYS225      0.2617
     61  O        251.3650  202.8510  172.4040 O.2   225  LYS225     -0.2715
     62  CB       251.5730  202.2920  175.5090 C.3   225  LYS225      0.0311
     63  CG       252.3410  201.6770  176.6670 C.3   225  LYS225      0.0038
     64  CD       251.4490  200.7800  177.5090 C.3   225  LYS225      0.0206
     65  CE       250.2430  201.5380  178.0380 C.3   225  LYS225      0.1093
     66  NZ       250.6410  202.7110  178.8630 N.3   225  LYS225     -0.1314
     67  N        251.1490  204.8420  173.4330 N.am  226  THR226     -0.1937
     68  CA       250.3810  205.4110  172.3320 C.3   226  THR226      0.2028
     69  C        251.2840  205.8090  171.1710 C.2   226  THR226      0.2642
     70  O        250.9350  205.5890  170.0050 O.2   226  THR226     -0.2714
     71  CB       249.5770  206.6190  172.8200 C.3   226  THR226      0.1808
     72  OG1      248.6720  206.2070  173.8530 O.3   226  THR226     -0.2208
     73  CG2      248.7840  207.2340  171.6760 C.3   226  THR226      0.0379
     74  N        252.4490  206.3870  171.4700 N.am  227  VAL227     -0.1977
     75  CA       253.3660  206.8030  170.4120 C.3   227  VAL227      0.1596
     76  C        253.9260  205.5930  169.6750 C.2   227  VAL227      0.2287
     77  O        254.1330  205.6430  168.4570 O.2   227  VAL227     -0.2864
     78  CB       254.4880  207.6800  170.9980 C.3   227  VAL227      0.0276
     79  CG1      255.3850  208.2110  169.8900 C.3   227  VAL227      0.0022
     80  CG2      253.8960  208.8230  171.8070 C.3   227  VAL227      0.0022
     81  N        239.6000  209.6370  175.6800 N.3   254  THR254     -0.1218
     82  CA       240.9590  209.7070  175.1610 C.3   254  THR254      0.1862
     83  C        241.0180  210.0140  173.6700 C.2   254  THR254      0.2287
     84  O        242.1180  210.1880  173.1360 O.2   254  THR254     -0.2866
     85  CB       241.6940  208.3920  175.4340 C.3   254  THR254      0.1770
     86  OG1      240.8020  207.2910  175.2220 O.3   254  THR254     -0.2211
     87  CG2      242.2040  208.3580  176.8610 C.3   254  THR254      0.0375
     88  N        244.3280  211.2890  171.5540 N.3   258  TRP258     -0.1241
     89  CA       244.9170  210.5310  170.4580 C.3   258  TRP258      0.1605
     90  C        244.8630  211.2880  169.1390 C.2   258  TRP258      0.2264
     91  O        245.6870  211.0250  168.2550 O.2   258  TRP258     -0.2867
     92  CB       244.2150  209.1800  170.3150 C.3   258  TRP258      0.0550
     93  CG       244.6110  208.1770  171.3600 C.ar  258  TRP258      0.0003
     94  CD1      244.4300  208.2830  172.7080 C.ar  258  TRP258      0.0946
     95  CD2      245.2450  206.9130  171.1370 C.ar  258  TRP258      0.0152
     96  NE1      244.9200  207.1640  173.3400 N.ar  258  TRP258     -0.2442
     97  CE2      245.4240  206.3070  172.3970 C.ar  258  TRP258      0.0810
     98  CE3      245.6820  206.2330  169.9950 C.ar  258  TRP258      0.0012
     99  CZ2      246.0190  205.0560  172.5480 C.ar  258  TRP258      0.0191
    100  CZ3      246.2730  204.9920  170.1470 C.ar  258  TRP258      0.0001
    101  CH2      246.4360  204.4160  171.4140 C.ar  258  TRP258      0.0015
    102  N        247.8180  213.9920  169.6230 N.3   261  THR261     -0.1218
    103  CA       249.0900  213.2820  169.5310 C.3   261  THR261      0.1862
    104  C        249.2980  212.7090  168.1350 C.2   261  THR261      0.2287
    105  O        250.4170  212.7300  167.6070 O.2   261  THR261     -0.2866
    106  CB       249.1460  212.1700  170.5810 C.3   261  THR261      0.1770
    107  OG1      248.9760  212.7350  171.8880 O.3   261  THR261     -0.2211
    108  CG2      250.4790  211.4400  170.5220 C.3   261  THR261      0.0375
    109  N        252.4830  213.9300  165.9350 N.3   265  TRP265     -0.1241
    110  CA       253.5570  213.0070  165.5850 C.3   265  TRP265      0.1605
    111  C        253.5010  212.5360  164.1390 C.2   265  TRP265      0.2264
    112  O        254.5530  212.2910  163.5410 O.2   265  TRP265     -0.2867
    113  CB       253.5320  211.7870  166.5130 C.3   265  TRP265      0.0550
    114  CG       254.0030  212.0910  167.9010 C.ar  265  TRP265      0.0003
    115  CD1      253.2670  212.6190  168.9180 C.ar  265  TRP265      0.0946
    116  CD2      255.3210  211.8850  168.4240 C.ar  265  TRP265      0.0152
    117  NE1      254.0430  212.7540  170.0440 N.ar  265  TRP265     -0.2442
    118  CE2      255.3080  212.3100  169.7660 C.ar  265  TRP265      0.0810
    119  CE3      256.5120  211.3810  167.8880 C.ar  265  TRP265      0.0012
    120  CZ2      256.4370  212.2490  170.5810 C.ar  265  TRP265      0.0191
    121  CZ3      257.6310  211.3200  168.6980 C.ar  265  TRP265      0.0001
    122  CH2      257.5850  211.7520  170.0300 C.ar  265  TRP265      0.0015
    123  N        243.3100  200.5490  173.4620 N.3   326  ASP326     -0.1225
    124  CA       243.9270  201.0440  174.6830 C.3   326  ASP326      0.1805
    125  C        243.0340  200.7190  175.8710 C.2   326  ASP326      0.2597
    126  O        241.8070  200.8510  175.7910 O.2   326  ASP326     -0.2718
    127  CB       244.1710  202.5530  174.6010 C.3   326  ASP326      0.1424
    128  CG       244.8660  203.1000  175.8330 C.2   326  ASP326      0.3668
    129  OD1      246.0270  202.7140  176.0820 O.co2 326  ASP326     -0.2456
    130  OD2      244.2510  203.9170  176.5500 O.co2 326  ASP326     -0.2456
    131  N        243.6550  200.2930  176.9720 N.am  327  GLU327     -0.1979
    132  CA       242.9450  199.8520  178.1730 C.3   327  GLU327      0.1602
    133  C        241.9750  198.7160  177.8400 C.2   327  GLU327      0.2287
    134  O        240.7560  198.8400  177.9660 O.2   327  GLU327     -0.2864
    135  CB       242.2200  201.0220  178.8480 C.3   327  GLU327      0.0415
    136  CG       243.0990  202.2350  179.1030 C.3   327  GLU327      0.1163
    137  CD       244.2700  201.9300  180.0150 C.2   327  GLU327      0.3649
    138  OE1      244.1070  201.1110  180.9440 O.co2 327  GLU327     -0.2457
    139  OE2      245.3560  202.5050  179.7960 O.co2 327  GLU327     -0.2457
    140  N        243.7940  209.4010  179.5960 N.3   563  ILE563     -0.1231
    141  CA       244.5350  210.6630  179.6360 C.3   563  ILE563      0.1692
    142  C        245.4830  210.6580  180.8320 C.2   563  ILE563      0.2592
    143  O        245.7350  209.6080  181.4340 O.2   563  ILE563     -0.2718
    144  CB       243.5830  211.8760  179.6620 C.3   563  ILE563      0.0266
    145  CG1      242.8010  211.9780  178.3500 C.3   563  ILE563      0.0019
    146  CG2      244.3640  213.1750  179.8440 C.3   563  ILE563      0.0020
    147  CD1      241.6660  212.9710  178.3880 C.3   563  ILE563      0.0001
    148  N        246.0310  211.8210  181.1790 N.am  564  ASN564     -0.1974
    149  CA       246.9880  211.9050  182.2750 C.3   564  ASN564      0.1688
    150  C        247.0500  213.3380  182.7850 C.2   564  ASN564      0.2292
    151  O        246.6250  214.2790  182.1100 O.2   564  ASN564     -0.2864
    152  CB       248.3790  211.4240  181.8440 C.3   564  ASN564      0.1181
    153  CG       248.9960  212.2980  180.7660 C.2   564  ASN564      0.2629
    154  OD1      248.7880  213.5100  180.7340 O.2   564  ASN564     -0.2716
    155  ND2      249.7610  211.6800  179.8720 N.am  564  ASN564     -0.0877
    156  N        249.9210  215.9380  184.2980 N.3   566  MET566     -0.1245
    157  CA       251.3580  216.1460  184.4390 C.3   566  MET566      0.1570
    158  C        251.7120  216.9940  185.6530 C.2   566  MET566      0.2261
    159  O        252.7300  216.7410  186.3050 O.2   566  MET566     -0.2867
    160  CB       251.9240  216.8010  183.1770 C.3   566  MET566      0.0387
    161  CG       251.7770  215.9610  181.9220 C.3   566  MET566      0.0595
    162  SD       252.5680  214.3460  182.0690 S.3   566  MET566     -0.1393
    163  CE       252.1760  213.6270  180.4760 C.3   566  MET566      0.0692
    164  N        247.3680  208.0950  186.5520 N.3   589  ARG589     -0.1245
    165  CA       246.8840  209.2750  185.8500 C.3   589  ARG589      0.1563
    166  C        247.5630  210.5500  186.3290 C.2   589  ARG589      0.2260
    167  O        247.5030  211.5690  185.6320 O.2   589  ARG589     -0.2867
    168  CB       245.3660  209.3950  186.0050 C.3   589  ARG589      0.0307
    169  CG       244.6070  208.1650  185.5320 C.3   589  ARG589      0.0489
    170  CD       244.9930  207.7900  184.1050 C.3   589  ARG589      0.2205
    171  NE       244.3610  206.5470  183.6730 N.pl3 589  ARG589     -0.0865
    172  CZ       244.5790  205.9620  182.5000 C.cat 589  ARG589      0.5346
    173  NH1      245.4180  206.5060  181.6280 N.pl3 589  ARG589      0.1354
    174  NH2      243.9580  204.8300  182.1950 N.pl3 589  ARG589      0.1354
    175  N        253.3250  210.1060  186.7510 N.3   592  ARG592     -0.1231
    176  CA       253.7530  209.8080  185.3920 C.3   592  ARG592      0.1694
    177  C        255.2240  210.1860  185.2580 C.2   592  ARG592      0.2591
    178  O        255.9350  210.3650  186.2510 O.2   592  ARG592     -0.2718
    179  CB       252.8580  210.5320  184.3760 C.3   592  ARG592      0.0321
    180  CG       251.5110  209.8620  184.1480 C.3   592  ARG592      0.0489
    181  CD       251.6780  208.5410  183.4140 C.3   592  ARG592      0.2205
    182  NE       252.1340  208.7360  182.0410 N.pl3 592  ARG592     -0.0865
    183  CZ       251.3300  208.7400  180.9810 C.cat 592  ARG592      0.5346
    184  NH1      251.8330  208.9270  179.7680 N.pl3 592  ARG592      0.1354
    185  NH2      250.0270  208.5530  181.1320 N.pl3 592  ARG592      0.1354
    186  N        255.6830  210.3060  184.0130 N.am  593  ILE593     -0.1980
    187  CA       257.0840  210.6220  183.7560 C.3   593  ILE593      0.1595
    188  C        257.3230  212.1250  183.8460 C.2   593  ILE593      0.2287
    189  O        258.3510  212.5730  184.3690 O.2   593  ILE593     -0.2864
    190  CB       257.5090  210.0530  182.3870 C.3   593  ILE593      0.0276
    191  CG1      257.8170  208.5540  182.4860 C.3   593  ILE593      0.0022
    192  CG2      258.7090  210.8070  181.8260 C.3   593  ILE593      0.0022
    193  CD1      256.5940  207.6560  182.5210 C.3   593  ILE593      0.0001
@<TRIPOS>BOND
     1   112   111    2
     2   111   110    1
     3   110   109    1
     4   110   113    1
     5   113   114    1
     6   105   104    2
     7   119   116   ar
     8   119   121   ar
     9   114   116   ar
    10   114   115   ar
    11     4     3    2
    12   104   103    1
    13    91    90    2
    14     1     2    1
    15   116   118   ar
    16    77    76    2
    17   121   122   ar
    18     3     2    1
    19     3     5   am
    20   115   117   ar
    21    20    19    1
    22    90    89    1
    23    21    19    1
    24   103   102    1
    25   103   106    1
    26     6     5    1
    27     6     9    1
    28     6     7    1
    29    76    75    1
    30   118   117   ar
    31   118   120   ar
    32    19    18    1
    33     9    10    1
    34    79    78    1
    35    98   100   ar
    36    98    95   ar
    37    70    69    2
    38   122   120   ar
    39   100   101   ar
    40    18    15    1
    41    14     7   am
    42    14    15    1
    43    92    89    1
    44    92    93    1
    45    36    35    2
    46    75    78    1
    47    75    74    1
    48    89    88    1
    49     7     8    2
    50   108   106    1
    51   106   107    1
    52    12    11   ar
    53    35    34    1
    54    78    80    1
    55    15    16    1
    56    95    93   ar
    57    95    97   ar
    58    69    74   am
    59    69    68    1
    60    17    16    2
    61    10    11    1
    62    93    94   ar
    63   101    99   ar
    64    25    24    2
    65    11    13   ar
    66    16    22   am
    67    73    71    1
    68    37    34    1
    69    37    38    1
    70    34    33    1
    71    68    71    1
    72    68    67    1
    73    97    99   ar
    74    97    96   ar
    75    61    60    2
    76    94    96   ar
    77    22    23    1
    78    24    23    1
    79    71    72    1
    80    84    83    2
    81    38    39    1
    82    60    67   am
    83    60    59    1
    84    23    26    1
    85   123   124    1
    86    57    56    2
    87    83    82    1
    88    39    40    2
    89    39    41   am
    90    59    58    1
    91    59    62    1
    92   127   124    1
    93   127   128    1
    94    56    58   am
    95    56    55    1
    96   124   125    1
    97    26    27    1
    98    82    85    1
    99    82    81    1
   100    86    85    1
   101    55    54    1
   102    31    30    1
   103    85    87    1
   104    62    63    1
   105    28    27    1
   106    28    29    1
   107   126   125    2
   108   128   129   ar
   109   128   130   ar
   110    30    29    2
   111    30    32    1
   112   125   131   am
   113    63    64    1
   114   131   132    1
   115    64    65    1
   116   133   134    2
   117   133   132    1
   118    65    66    1
   119   132   135    1
   120   145   147    1
   121   145   144    1
   122   135   136    1
   123   136   137    1
   124    53    52    2
   125   140   141    1
   126   141   144    1
   127   141   142    1
   128   144   146    1
   129   184   183    1
   130   139   137   ar
   131    52    51    1
   132   155   153   am
   133   137   138   ar
   134   163   162    1
   135   154   153    2
   136   153   152    1
   137    51    50    1
   138   142   148   am
   139   142   143    2
   140    50    44   am
   141   183   185    1
   142   183   182    2
   143   148   149    1
   144   173   172    1
   145   192   190    1
   146    48    49    1
   147    48    47    1
   148   152   149    1
   149   161   162    1
   150   161   160    1
   151   182   181    1
   152   151   150    2
   153    43    44    1
   154    43    42    1
   155    43    46    1
   156    44    45    2
   157   174   172    1
   158   149   150    1
   159   190   191    1
   160   190   187    1
   161   191   193    1
   162   172   171    2
   163    46    47    1
   164   160   157    1
   165   181   180    1
   166   171   170    1
   167   187   188    1
   168   187   186    1
   169   188   189    2
   170   186   177   am
   171   170   169    1
   172   180   179    1
   173   156   157    1
   174   179   176    1
   175   157   158    1
   176   177   176    1
   177   177   178    2
   178   176   175    1
   179   169   168    1
   180   167   166    2
   181   158   159    2
   182   165   168    1
   183   165   166    1
   184   165   164    1
