@<TRIPOS>MOLECULE
tmp/6g0lL00.pdb
 132 125 0 0 0
SMALL
GASTEIGER

@<TRIPOS>ATOM
      1  N        102.3530  166.2750  204.1510 N.3   193  GLU193     -0.1182
      2  CA       102.6660  165.0600  204.7780 C.3   193  GLU193      0.1915
      3  C        103.8720  164.4170  204.0660 C.2   193  GLU193      0.2634
      4  O        103.9450  164.3510  202.8490 O.2   193  GLU193     -0.2714
      5  CB       101.3930  164.1970  204.7550 C.2   193  GLU193      0.0085
      6  CG       100.9310  163.7500  203.3620 C.2   193  GLU193      0.0835
      7  CD        99.5540  163.0800  203.2700 C.2   193  GLU193      0.3877
      8  OE1       99.2080  162.2660  204.1570 O.co2 193  GLU193     -0.2406
      9  OE2       98.8310  163.3730  202.3060 O.co2 193  GLU193     -0.2406
     10  N        104.7710  163.8370  204.8630 N.am  194  LEU194     -0.1963
     11  CA       105.8410  162.8880  204.3810 C.3   194  LEU194      0.1728
     12  C        105.2200  161.4790  204.3060 C.2   194  LEU194      0.2616
     13  O        104.0380  161.3750  204.3130 O.2   194  LEU194     -0.2715
     14  CB       106.9000  162.7910  205.4710 C.3   194  LEU194      0.0311
     15  CG       107.9030  163.9220  205.6480 C.3   194  LEU194      0.0022
     16  CD1      109.0140  163.4600  206.6210 C.3   194  LEU194      0.0001
     17  CD2      108.4880  164.3470  204.3340 C.3   194  LEU194      0.0001
     18  N        106.0680  160.4410  204.2260 N.am  195  ARG195     -0.1977
     19  CA       105.5940  159.0320  204.0830 C.3   195  ARG195      0.1597
     20  C        105.9790  158.1320  205.2680 C.2   195  ARG195      0.2287
     21  O        106.0850  158.6520  206.3980 O.2   195  ARG195     -0.2864
     22  CB       106.2920  158.4960  202.8280 C.3   195  ARG195      0.0334
     23  CG       105.7860  159.1020  201.5270 C.3   195  ARG195      0.0492
     24  CD       106.0280  158.1960  200.3360 C.3   195  ARG195      0.2205
     25  NE       105.6170  158.8080  199.0810 N.pl3 195  ARG195     -0.0865
     26  CZ       104.3810  158.7730  198.5940 C.cat 195  ARG195      0.5346
     27  NH1      103.5060  157.9070  199.0740 N.pl3 195  ARG195      0.1354
     28  NH2      104.0270  159.6020  197.6290 N.pl3 195  ARG195      0.1354
     29  N        110.2920  158.4900  206.2550 N.3   198  GLN198     -0.1245
     30  CA       110.8510  159.8570  206.4380 C.3   198  GLN198      0.1566
     31  C        110.5960  160.3190  207.8780 C.2   198  GLN198      0.2260
     32  O        111.2340  161.3020  208.3050 O.2   198  GLN198     -0.2867
     33  CB       110.2270  160.8270  205.4340 C.3   198  GLN198      0.0367
     34  CG       110.5930  160.5230  203.9870 C.3   198  GLN198      0.0905
     35  CD       112.0810  160.5860  203.7490 C.2   198  GLN198      0.2608
     36  OE1      112.7770  161.4550  204.2700 O.2   198  GLN198     -0.2717
     37  NE2      112.5830  159.6570  202.9510 N.am  198  GLN198     -0.0878
     38  N        118.7320  160.6720  197.1480 N.3   222  GLY222     -0.1225
     39  CA       117.4830  161.4990  197.1010 C.3   222  GLY222      0.1811
     40  C        116.2170  160.9460  197.7790 C.2   222  GLY222      0.2280
     41  O        115.0900  161.3260  197.3590 O.2   222  GLY222     -0.2866
     42  N        114.3570  161.7990  200.2580 N.3   224  GLY224     -0.1210
     43  CA       113.9620  162.8740  201.1410 C.3   224  GLY224      0.1956
     44  C        114.9300  162.9700  202.2990 C.2   224  GLY224      0.2612
     45  O        114.5780  162.8530  203.4990 O.2   224  GLY224     -0.2717
     46  N        116.1980  163.0310  201.9250 N.am  225  LYS225     -0.1965
     47  CA       117.1880  163.1120  202.9090 C.3   225  LYS225      0.1728
     48  C        117.1320  164.5080  203.5500 C.2   225  LYS225      0.2617
     49  O        117.3950  164.6130  204.7680 O.2   225  LYS225     -0.2715
     50  CB       118.5330  162.8020  202.2620 C.3   225  LYS225      0.0311
     51  CG       118.7940  161.3310  201.9780 C.3   225  LYS225      0.0038
     52  CD       120.2680  160.9770  202.0100 C.3   225  LYS225      0.0206
     53  CE       121.0320  161.1720  200.7130 C.3   225  LYS225      0.1093
     54  NZ       122.2950  160.3900  200.7420 N.3   225  LYS225     -0.1314
     55  N        116.8580  165.5490  202.7340 N.am  226  THR226     -0.1937
     56  CA       116.9150  166.9650  203.2030 C.3   226  THR226      0.2028
     57  C        115.7500  167.2210  204.1460 C.2   226  THR226      0.2642
     58  O        115.8900  167.9190  205.1610 O.2   226  THR226     -0.2714
     59  CB       116.8660  168.0010  202.0730 C.3   226  THR226      0.1808
     60  OG1      118.0930  167.9360  201.3870 O.3   226  THR226     -0.2208
     61  CG2      116.6580  169.4130  202.5140 C.3   226  THR226      0.0379
     62  N        114.5970  166.6690  203.7990 N.am  227  VAL227     -0.1977
     63  CA       113.4520  166.8170  204.6680 C.3   227  VAL227      0.1596
     64  C        113.7020  166.1530  206.0370 C.2   227  VAL227      0.2287
     65  O        113.2450  166.6480  207.0350 O.2   227  VAL227     -0.2864
     66  CB       112.1920  166.2710  203.9940 C.3   227  VAL227      0.0276
     67  CG1      111.5880  167.2900  203.0280 C.3   227  VAL227      0.0022
     68  CG2      112.4540  164.9470  203.3130 C.3   227  VAL227      0.0022
     69  N        123.9720  173.3730  196.1030 N.3   254  THR254     -0.1218
     70  CA       122.6550  172.8000  196.6830 C.3   254  THR254      0.1862
     71  C        121.9080  173.6280  197.7710 C.2   254  THR254      0.2287
     72  O        120.9830  173.0950  198.2840 O.2   254  THR254     -0.2866
     73  CB       122.8840  171.4000  197.2830 C.3   254  THR254      0.1770
     74  OG1      123.7740  170.6840  196.4520 O.3   254  THR254     -0.2211
     75  CG2      121.6630  170.5100  197.4000 C.3   254  THR254      0.0375
     76  N        108.7780  174.0120  204.8950 N.3   265  TRP265     -0.1241
     77  CA       108.5340  172.8600  205.7100 C.3   265  TRP265      0.1605
     78  C        108.4840  173.2490  207.1860 C.2   265  TRP265      0.2264
     79  O        108.2360  172.4290  208.0360 O.2   265  TRP265     -0.2867
     80  CB       109.6540  171.8600  205.4180 C.3   265  TRP265      0.0550
     81  CG       109.3130  171.0030  204.2410 C.ar  265  TRP265      0.0003
     82  CD1      109.9330  170.9730  203.0210 C.ar  265  TRP265      0.0946
     83  CD2      108.2930  169.9820  204.2070 C.ar  265  TRP265      0.0152
     84  NE1      109.3100  170.0420  202.2290 N.ar  265  TRP265     -0.2442
     85  CE2      108.2980  169.4180  202.9180 C.ar  265  TRP265      0.0810
     86  CE3      107.3530  169.4840  205.1190 C.ar  265  TRP265      0.0012
     87  CZ2      107.4460  168.3630  202.5440 C.ar  265  TRP265      0.0191
     88  CZ3      106.4380  168.5320  204.6990 C.ar  265  TRP265      0.0001
     89  CH2      106.5320  167.9090  203.4660 C.ar  265  TRP265      0.0015
     90  N        121.8080  169.3050  192.8590 N.3   583  ILE583     -0.1231
     91  CA       120.6610  169.6010  192.0070 C.3   583  ILE583      0.1692
     92  C        119.9300  168.2820  191.8140 C.2   583  ILE583      0.2592
     93  O        120.3290  167.2750  192.3680 O.2   583  ILE583     -0.2718
     94  CB       121.0140  170.3170  190.6620 C.3   583  ILE583      0.0266
     95  CG1      119.8260  170.9670  189.9420 C.3   583  ILE583      0.0019
     96  CG2      121.7030  169.4070  189.6530 C.3   583  ILE583      0.0020
     97  CD1      118.8230  171.7730  190.7790 C.3   583  ILE583      0.0001
     98  N        118.7950  168.4060  191.1180 N.am  584  ASN584     -0.1974
     99  CA       118.0120  167.3330  190.5720 C.3   584  ASN584      0.1688
    100  C        117.3430  167.7470  189.2300 C.2   584  ASN584      0.2292
    101  O        116.9340  168.8680  189.0130 O.2   584  ASN584     -0.2864
    102  CB       117.0480  166.8320  191.6590 C.3   584  ASN584      0.1181
    103  CG       116.2290  167.9380  192.2930 C.2   584  ASN584      0.2629
    104  OD1      115.7160  168.8120  191.5880 O.2   584  ASN584     -0.2716
    105  ND2      116.1160  167.9080  193.6140 N.am  584  ASN584     -0.0877
    106  N        114.0530  166.4160  187.0890 N.3   586  MET586     -0.1245
    107  CA       112.8240  165.5760  187.2690 C.3   586  MET586      0.1570
    108  C        112.0850  165.3550  185.9700 C.2   586  MET586      0.2261
    109  O        111.2440  164.4940  185.9160 O.2   586  MET586     -0.2867
    110  CB       111.7940  166.2100  188.2060 C.3   586  MET586      0.0387
    111  CG       112.2600  166.3050  189.6460 C.3   586  MET586      0.0595
    112  SD       111.0580  167.1410  190.7310 S.3   586  MET586     -0.1393
    113  CE       111.9060  167.1470  192.3110 C.3   586  MET586      0.0692
    114  N        115.4160  160.3730  189.6920 N.3   612  ARG612     -0.1231
    115  CA       114.8950  160.7170  191.0390 C.3   612  ARG612      0.1694
    116  C        113.4090  160.3100  191.2350 C.2   612  ARG612      0.2591
    117  O        112.6960  159.8790  190.3170 O.2   612  ARG612     -0.2718
    118  CB       115.1010  162.2310  191.2070 C.3   612  ARG612      0.0321
    119  CG       115.0270  162.8220  192.6040 C.3   612  ARG612      0.0489
    120  CD       115.7220  161.8860  193.5930 C.3   612  ARG612      0.2205
    121  NE       117.1780  161.8700  193.4780 N.pl3 612  ARG612     -0.0865
    122  CZ       117.9300  162.8730  193.8670 C.cat 612  ARG612      0.5346
    123  NH1      119.2160  162.9070  193.5880 N.pl3 612  ARG612      0.1354
    124  NH2      117.3640  163.8640  194.5170 N.pl3 612  ARG612      0.1354
    125  N        112.8890  160.5430  192.4480 N.am  613  ILE613     -0.1980
    126  CA       111.5500  160.0720  192.9040 C.3   613  ILE613      0.1595
    127  C        110.4500  160.5550  191.9500 C.2   613  ILE613      0.2287
    128  O        109.5830  159.7770  191.5630 O.2   613  ILE613     -0.2864
    129  CB       111.3380  160.4910  194.3740 C.3   613  ILE613      0.0276
    130  CG1      112.3930  159.8250  195.2730 C.3   613  ILE613      0.0022
    131  CG2      109.9180  160.2260  194.8260 C.3   613  ILE613      0.0022
    132  CD1      112.6180  158.3280  194.9880 C.3   613  ILE613      0.0001
@<TRIPOS>BOND
     1   109   108    2
     2   108   107    1
     3   106   107    1
     4   107   110    1
     5   110   111    1
     6   101   100    2
     7   100    99    1
     8   111   112    1
     9    96    94    1
    10   114   115    1
    11    95    94    1
    12    95    97    1
    13   117   116    2
    14    99    98    1
    15    99   102    1
    16    94    91    1
    17   112   113    1
    18   115   118    1
    19   115   116    1
    20    98    92   am
    21   118   119    1
    22   116   125   am
    23   128   127    2
    24   104   103    2
    25   102   103    1
    26    92    91    1
    27    92    93    2
    28   127   126    1
    29    91    90    1
    30   103   105   am
    31   125   126    1
    32   119   120    1
    33   126   129    1
    34   121   120    1
    35   121   122    2
    36   123   122    1
    37   122   124    1
    38   129   131    1
    39   129   130    1
    40   132   130    1
    41    69    70    1
    42    74    73    1
    43    70    73    1
    44    70    71    1
    45    39    38    1
    46    39    40    1
    47    73    75    1
    48    41    40    2
    49    28    26    1
    50    71    72    2
    51    26    27    1
    52    26    25    2
    53    25    24    1
    54    42    43    1
    55    24    23    1
    56    53    54    1
    57    53    52    1
    58    43    44    1
    59    60    59    1
    60    23    22    1
    61    46    44   am
    62    46    47    1
    63    51    52    1
    64    51    50    1
    65    59    61    1
    66    59    56    1
    67    84    85   ar
    68    84    82   ar
    69    50    47    1
    70    44    45    2
    71     9     7   ar
    72    87    85   ar
    73    87    89   ar
    74    55    56    1
    75    55    48   am
    76    22    19    1
    77     4     3    2
    78    47    48    1
    79    85    83   ar
    80    37    35   am
    81    82    81   ar
    82    67    66    1
    83    56    57    1
    84     7     6    1
    85     7     8   ar
    86    68    66    1
    87     6     5    2
    88    89    88   ar
    89    48    49    2
    90    35    34    1
    91    35    36    2
    92    62    57   am
    93    62    63    1
    94    34    33    1
    95    66    63    1
    96     3     2    1
    97     3    10   am
    98    19    18    1
    99    19    20    1
   100    57    58    2
   101     1     2    1
   102    83    81   ar
   103    83    86   ar
   104    18    12   am
   105    81    80    1
   106    12    13    2
   107    12    11    1
   108    17    15    1
   109    11    10    1
   110    11    14    1
   111    63    64    1
   112    88    86   ar
   113     5     2    1
   114    76    77    1
   115    20    21    2
   116    80    77    1
   117    33    30    1
   118    14    15    1
   119    15    16    1
   120    77    78    1
   121    64    65    2
   122    29    30    1
   123    30    31    1
   124    78    79    2
   125    31    32    2
