@<TRIPOS>MOLECULE
tmp/6g0nA04.pdb
 103 102 0 0 0
SMALL
GASTEIGER

@<TRIPOS>ATOM
      1  N         11.5260   15.8070   -2.2600 N.3    60  ASP60      -0.1239
      2  CA        10.3180   15.1380   -2.6940 C.3    60  ASP60       0.1674
      3  C          9.9210   15.6730   -4.0490 C.2    60  ASP60       0.2266
      4  O          9.3570   16.7890   -4.1760 O.2    60  ASP60      -0.2867
      5  CB         9.1450   15.3340   -1.7560 C.3    60  ASP60       0.1410
      6  CG         7.8730   14.7040   -2.3200 C.2    60  ASP60       0.3668
      7  OD1        7.9730   13.6870   -3.0590 O.co2  60  ASP60      -0.2456
      8  OD2        6.7710   15.2210   -2.0690 O.co2  60  ASP60      -0.2456
      9  N          7.5830   14.6980   -5.8790 N.3    62  ASN62      -0.1240
     10  CA         6.1130   14.7930   -6.0140 C.3    62  ASN62       0.1653
     11  C          5.6500   16.2340   -5.7080 C.2    62  ASN62       0.2266
     12  O          5.2910   16.9830   -6.6290 O.2    62  ASN62      -0.2867
     13  CB         5.4090   13.7660   -5.1290 C.3    62  ASN62       0.1155
     14  CG         3.9360   13.5190   -5.5300 C.2    62  ASN62       0.2627
     15  OD1        3.5530   13.5850   -6.7140 O.2    62  ASN62      -0.2716
     16  ND2        3.1240   13.1770   -4.5390 N.am   62  ASN62      -0.0877
     17  N          2.6690    5.0850    6.2830 N.3   276  TYR276     -0.1241
     18  CA         3.9690    5.4040    5.6860 C.3   276  TYR276      0.1605
     19  C          5.0660    5.6120    6.7410 C.2   276  TYR276      0.2264
     20  O          6.2150    5.2560    6.5130 O.2   276  TYR276     -0.2867
     21  CB         3.8750    6.6800    4.8160 C.3   276  TYR276      0.0534
     22  CG         2.6320    6.7000    3.9540 C.ar  276  TYR276     -0.0201
     23  CD1        2.4790    5.8340    2.8730 C.ar  276  TYR276     -0.0009
     24  CD2        1.5720    7.5340    4.2880 C.ar  276  TYR276     -0.0009
     25  CE1        1.2880    5.8370    2.1240 C.ar  276  TYR276      0.0417
     26  CE2        0.3880    7.5270    3.5610 C.ar  276  TYR276      0.0417
     27  CZ         0.2520    6.6980    2.4900 C.ar  276  TYR276      0.1957
     28  OH        -0.9550    6.7770    1.8210 O.3   276  TYR276     -0.2866
     29  N          6.0710    1.9190    8.5180 N.3   279  TRP279     -0.1241
     30  CA         6.9110    1.0230    7.7020 C.3   279  TRP279      0.1605
     31  C          8.3120    0.8860    8.2710 C.2   279  TRP279      0.2264
     32  O          8.8870   -0.1990    8.2170 O.2   279  TRP279     -0.2867
     33  CB         7.0720    1.5140    6.2660 C.3   279  TRP279      0.0550
     34  CG         5.8400    1.6120    5.3750 C.ar  279  TRP279      0.0003
     35  CD1        4.5910    1.1840    5.6330 C.ar  279  TRP279      0.0946
     36  CD2        5.8000    2.2080    4.0620 C.ar  279  TRP279      0.0152
     37  NE1        3.7570    1.4810    4.5740 N.ar  279  TRP279     -0.2442
     38  CE2        4.4730    2.1020    3.5920 C.ar  279  TRP279      0.0810
     39  CE3        6.7690    2.7740    3.2260 C.ar  279  TRP279      0.0012
     40  CZ2        4.0790    2.5740    2.3220 C.ar  279  TRP279      0.0191
     41  CZ3        6.3680    3.2520    1.9650 C.ar  279  TRP279      0.0001
     42  CH2        5.0550    3.1570    1.5390 C.ar  279  TRP279      0.0015
     43  N         -0.3140   -1.5490    1.4650 N.3   318  HIS318     -0.1241
     44  CA         0.7300   -0.7930    2.2030 C.3   318  HIS318      0.1621
     45  C          0.1950    0.0650    3.3780 C.2   318  HIS318      0.2264
     46  O          0.9390    0.8570    4.0110 O.2   318  HIS318     -0.2867
     47  CB         1.5880    0.0140    1.2210 C.3   318  HIS318      0.0745
     48  CG         0.8900    1.1590    0.5490 C.ar  318  HIS318      0.0817
     49  ND1        0.4710    1.1030   -0.7590 N.ar  318  HIS318     -0.2268
     50  CD2        0.6270    2.4250    0.9720 C.ar  318  HIS318      0.1154
     51  CE1       -0.0740    2.2650   -1.0950 C.ar  318  HIS318      0.1986
     52  NE2       -0.0010    3.0790   -0.0570 N.ar  318  HIS318     -0.2212
     53  N          4.6830   -1.5010   -2.2500 N.3   332  THR332     -0.1218
     54  CA         5.5690   -0.3740   -2.5310 C.3   332  THR332      0.1862
     55  C          6.9760   -0.8030   -2.3300 C.2   332  THR332      0.2287
     56  O          7.2750   -1.6670   -1.4820 O.2   332  THR332     -0.2866
     57  CB         5.3140    0.8590   -1.6230 C.3   332  THR332      0.1770
     58  OG1        5.7560    0.5720   -0.2830 O.3   332  THR332     -0.2211
     59  CG2        3.8460    1.2270   -1.6330 C.3   332  THR332      0.0375
     60  N          6.5500    9.1650   -7.2280 N.3   368  TYR368     -0.1241
     61  CA         6.6660    8.7420   -5.8190 C.3   368  TYR368      0.1605
     62  C          8.0660    8.2350   -5.4210 C.2   368  TYR368      0.2264
     63  O          8.2400    7.6410   -4.3580 O.2   368  TYR368     -0.2867
     64  CB         5.5840    7.7020   -5.4940 C.3   368  TYR368      0.0534
     65  CG         4.1700    8.2130   -5.6970 C.ar  368  TYR368     -0.0201
     66  CD1        3.6730    9.2530   -4.9200 C.ar  368  TYR368     -0.0009
     67  CD2        3.3310    7.6640   -6.6680 C.ar  368  TYR368     -0.0009
     68  CE1        2.3870    9.7420   -5.1270 C.ar  368  TYR368      0.0417
     69  CE2        2.0400    8.1330   -6.8590 C.ar  368  TYR368      0.0417
     70  CZ         1.5660    9.1650   -6.0840 C.ar  368  TYR368      0.1957
     71  OH         0.2830    9.6430   -6.3090 O.3   368  TYR368     -0.2866
     72  N         10.8570    9.5190   -4.3680 N.3   370  TYR370     -0.1227
     73  CA        11.6470   10.0430   -3.2390 C.3   370  TYR370      0.1736
     74  C         11.5750    9.1310   -2.0170 C.2   370  TYR370      0.2595
     75  O         12.5990    8.6970   -1.5170 O.2   370  TYR370     -0.2718
     76  CB        11.2280   11.4680   -2.8730 C.3   370  TYR370      0.0548
     77  CG        11.5090   11.8430   -1.4490 C.ar  370  TYR370     -0.0200
     78  CD1       12.7980   12.0990   -1.0110 C.ar  370  TYR370     -0.0009
     79  CD2       10.4720   11.8740   -0.5030 C.ar  370  TYR370     -0.0009
     80  CE1       13.0610   12.3940    0.3360 C.ar  370  TYR370      0.0417
     81  CE2       10.7220   12.1660    0.8300 C.ar  370  TYR370      0.0417
     82  CZ        12.0110   12.4280    1.2570 C.ar  370  TYR370      0.1957
     83  OH        12.2360   12.7260    2.5970 O.3   370  TYR370     -0.2866
     84  N         10.3690    8.8860   -1.5010 N.am  371  TYR371     -0.1962
     85  CA        10.2660    8.1370   -0.2570 C.3   371  TYR371      0.1771
     86  C         10.6150    6.6590   -0.4830 C.2   371  TYR371      0.2619
     87  O         11.3470    6.0700    0.3160 O.2   371  TYR371     -0.2715
     88  CB         8.8770    8.2970    0.3530 C.3   371  TYR371      0.0574
     89  CG         8.7630    7.8990    1.8130 C.ar  371  TYR371     -0.0198
     90  CD1        9.4570    8.5840    2.8030 C.ar  371  TYR371     -0.0009
     91  CD2        7.9320    6.8630    2.2030 C.ar  371  TYR371     -0.0009
     92  CE1        9.3180    8.2290    4.1460 C.ar  371  TYR371      0.0417
     93  CE2        7.7950    6.4890    3.5250 C.ar  371  TYR371      0.0417
     94  CZ         8.4700    7.1800    4.4990 C.ar  371  TYR371      0.1957
     95  OH         8.3110    6.7850    5.8290 O.3   371  TYR371     -0.2866
     96  N         10.0630    6.0660   -1.5420 N.am  372  ASP372     -0.1971
     97  CA        10.5120    4.7510   -2.0090 C.3   372  ASP372      0.1709
     98  C         12.0390    4.6760   -2.1660 C.2   372  ASP372      0.2293
     99  O         12.6590    3.7180   -1.7040 O.2   372  ASP372     -0.2864
    100  CB         9.8330    4.3680   -3.3440 C.3   372  ASP372      0.1436
    101  CG         8.3960    3.8600   -3.1800 C.2   372  ASP372      0.3671
    102  OD1        8.0030    3.2890   -2.1270 O.co2 372  ASP372     -0.2456
    103  OD2        7.6370    4.0030   -4.1550 O.co2 372  ASP372     -0.2456
@<TRIPOS>BOND
     1    60    61    1
     2    69    67   ar
     3    69    70   ar
     4    15    14    2
     5    67    65   ar
     6    12    11    2
     7    71    70    1
     8    70    68   ar
     9    10     9    1
    10    10    11    1
    11    10    13    1
    12    61    64    1
    13    61    62    1
    14    65    64    1
    15    65    66   ar
    16    14    13    1
    17    14    16   am
    18    62    63    2
    19    68    66   ar
    20    72    73    1
    21     4     3    2
    22   103   101   ar
    23     3     2    1
    24   100   101    1
    25   100    97    1
    26    73    76    1
    27    73    74    1
    28   101   102   ar
    29     7     6   ar
    30    76    77    1
    31     2     1    1
    32     2     5    1
    33    54    55    1
    34    54    53    1
    35    54    57    1
    36    55    56    2
    37     6     8   ar
    38     6     5    1
    39    98    97    1
    40    98    99    2
    41    74    75    2
    42    74    84   am
    43    97    96    1
    44    59    57    1
    45    57    58    1
    46    96    86   am
    47    84    85    1
    48    77    78   ar
    49    77    79   ar
    50    51    49   ar
    51    51    52   ar
    52    78    80   ar
    53    49    48   ar
    54    79    81   ar
    55    86    85    1
    56    86    87    2
    57    85    88    1
    58    52    50   ar
    59    80    82   ar
    60    88    89    1
    61    48    50   ar
    62    48    47    1
    63    81    82   ar
    64    47    44    1
    65    82    83    1
    66    43    44    1
    67    42    41   ar
    68    42    40   ar
    69    89    91   ar
    70    89    90   ar
    71    28    27    1
    72    41    39   ar
    73    25    27   ar
    74    25    23   ar
    75    91    93   ar
    76    44    45    1
    77    40    38   ar
    78    27    26   ar
    79    90    92   ar
    80    23    22   ar
    81    39    36   ar
    82    45    46    2
    83    93    94   ar
    84    26    24   ar
    85    38    36   ar
    86    38    37   ar
    87    22    24   ar
    88    22    21    1
    89    36    34   ar
    90    92    94   ar
    91    94    95    1
    92    37    35   ar
    93    21    18    1
    94    34    35   ar
    95    34    33    1
    96    18    17    1
    97    18    19    1
    98    33    30    1
    99    20    19    2
   100    30    31    1
   101    30    29    1
   102    32    31    2
