@<TRIPOS>MOLECULE
tmp/6g0vA00.pdb
 98 91 0 0 0
SMALL
GASTEIGER

@<TRIPOS>ATOM
      1  N        -11.9140   12.3370    7.3560 N.3    32  ARG32      -0.1245
      2  CA       -12.3340   11.0120    6.9240 C.3    32  ARG32       0.1563
      3  C        -11.2220    9.9930    7.1090 C.2    32  ARG32       0.2260
      4  O        -10.0330   10.3250    7.1390 O.2    32  ARG32      -0.2867
      5  CB       -12.7330   11.0370    5.4450 C.3    32  ARG32       0.0307
      6  CG       -11.5430   11.2420    4.5020 C.3    32  ARG32       0.0489
      7  CD       -11.9450   11.3740    3.0320 C.3    32  ARG32       0.2205
      8  NE       -12.6480   10.2050    2.4810 N.pl3  32  ARG32      -0.0865
      9  CZ       -12.0580    9.1560    1.9040 C.cat  32  ARG32       0.5346
     10  NH1      -10.7360    9.0790    1.8110 N.pl3  32  ARG32       0.1354
     11  NH2      -12.7940    8.1640    1.4210 N.pl3  32  ARG32       0.1354
     12  N        -16.2550   -1.1430    1.6670 N.3    46  HIS46      -0.1241
     13  CA       -15.7990    0.2210    1.9360 C.3    46  HIS46       0.1621
     14  C        -16.2570    0.5650    3.3460 C.2    46  HIS46       0.2264
     15  O        -17.4500    0.4580    3.6420 O.2    46  HIS46      -0.2867
     16  CB       -16.4760    1.1400    0.9190 C.3    46  HIS46       0.0745
     17  CG       -16.2240    2.6130    1.0750 C.ar   46  HIS46       0.0817
     18  ND1      -15.0300    3.2320    0.7700 N.ar   46  HIS46      -0.2268
     19  CD2      -17.0870    3.6060    1.3850 C.ar   46  HIS46       0.1154
     20  CE1      -15.1650    4.5420    0.9250 C.ar   46  HIS46       0.1986
     21  NE2      -16.4040    4.7950    1.2950 N.ar   46  HIS46      -0.2212
     22  N        -15.9340    3.6590    5.9880 N.3    48  ASN48      -0.1240
     23  CA       -15.6270    5.0830    5.8150 C.3    48  ASN48       0.1653
     24  C        -16.1370    5.9290    6.9820 C.2    48  ASN48       0.2266
     25  O        -17.2280    6.5200    6.9110 O.2    48  ASN48      -0.2867
     26  CB       -16.2110    5.5300    4.4710 C.3    48  ASN48       0.1155
     27  CG       -16.1280    7.0130    4.1950 C.2    48  ASN48       0.2627
     28  OD1      -16.9930    7.5240    3.4970 O.2    48  ASN48      -0.2716
     29  ND2      -15.0830    7.6840    4.6410 N.am   48  ASN48      -0.0877
     30  N        -16.6380    9.1950    8.7750 N.3    50  ARG50      -0.1245
     31  CA       -16.7570   10.5960    8.3860 C.3    50  ARG50       0.1563
     32  C        -16.8950   11.4280    9.6520 C.2    50  ARG50       0.2260
     33  O        -17.8250   11.2130   10.4310 O.2    50  ARG50      -0.2867
     34  CB       -17.9800   10.7880    7.4930 C.3    50  ARG50       0.0307
     35  CG       -17.9050    9.9960    6.2130 C.3    50  ARG50       0.0489
     36  CD       -19.1210   10.2080    5.3310 C.3    50  ARG50       0.2205
     37  NE       -19.0120    9.3710    4.1380 N.pl3  50  ARG50      -0.0865
     38  CZ       -19.8560    9.3910    3.1190 C.cat  50  ARG50       0.5346
     39  NH1      -20.8980   10.2120    3.1050 N.pl3  50  ARG50       0.1354
     40  NH2      -19.6440    8.5720    2.0990 N.pl3  50  ARG50       0.1354
     41  N        -20.0230   15.1530    8.7240 N.3    53  GLU53      -0.1245
     42  CA       -21.0660   15.1120    7.7100 C.3    53  GLU53       0.1567
     43  C        -22.2300   15.8680    8.3240 C.2    53  GLU53       0.2260
     44  O        -22.9530   15.3420    9.1780 O.2    53  GLU53      -0.2867
     45  CB       -21.4500   13.6810    7.3530 C.3    53  GLU53       0.0388
     46  CG       -22.3410   13.6080    6.1410 C.3    53  GLU53       0.1160
     47  CD       -22.8880   12.2220    5.9180 C.2    53  GLU53       0.3649
     48  OE1      -23.6420   11.7430    6.7920 O.co2  53  GLU53      -0.2457
     49  OE2      -22.5540   11.5920    4.8840 O.co2  53  GLU53      -0.2457
     50  N        -19.8560    5.1920    7.3110 N.3    60  VAL60      -0.1245
     51  CA       -20.5710    4.7400    6.1270 C.3    60  VAL60       0.1561
     52  C        -19.8890    3.4950    5.5970 C.2    60  VAL60       0.2260
     53  O        -18.6760    3.5000    5.3870 O.2    60  VAL60      -0.2867
     54  CB       -20.5620    5.8380    5.0570 C.3    60  VAL60       0.0252
     55  CG1      -21.2800    5.3640    3.7980 C.3    60  VAL60       0.0019
     56  CG2      -21.1960    7.1150    5.6170 C.3    60  VAL60       0.0019
     57  N        -20.2400    0.5120    2.3850 N.3    62  ASN62      -0.1240
     58  CA       -20.8890    0.2750    1.1000 C.3    62  ASN62       0.1653
     59  C        -20.0220   -0.6460    0.2450 C.2    62  ASN62       0.2266
     60  O        -18.9230   -1.0530    0.6290 O.2    62  ASN62      -0.2867
     61  CB       -21.1690    1.6060    0.3940 C.3    62  ASN62       0.1155
     62  CG       -22.3610    1.5540   -0.5520 C.2    62  ASN62       0.2627
     63  OD1      -22.8840    0.4840   -0.8850 O.2    62  ASN62      -0.2716
     64  ND2      -22.7880    2.7330   -1.0100 N.am   62  ASN62      -0.0877
     65  N        -21.7780    2.9050   -6.6510 N.3    69  TRP69      -0.1241
     66  CA       -21.9930    2.6450   -5.2330 C.3    69  TRP69       0.1605
     67  C        -23.3950    2.0860   -5.0060 C.2    69  TRP69       0.2264
     68  O        -24.3700    2.5100   -5.6410 O.2    69  TRP69      -0.2867
     69  CB       -21.7930    3.9260   -4.4130 C.3    69  TRP69       0.0550
     70  CG       -20.3740    4.3070   -4.2940 C.ar   69  TRP69       0.0003
     71  CD1      -19.7510    5.3770   -4.8900 C.ar   69  TRP69       0.0946
     72  CD2      -19.3640    3.6280   -3.5270 C.ar   69  TRP69       0.0152
     73  NE1      -18.4210    5.3930   -4.5460 N.ar   69  TRP69      -0.2442
     74  CE2      -18.1590    4.3350   -3.7130 C.ar   69  TRP69       0.0810
     75  CE3      -19.3590    2.4840   -2.7070 C.ar   69  TRP69       0.0012
     76  CZ2      -16.9710    3.9440   -3.1150 C.ar   69  TRP69       0.0191
     77  CZ3      -18.1810    2.1040   -2.1190 C.ar   69  TRP69       0.0001
     78  CH2      -17.0030    2.8320   -2.3210 C.ar   69  TRP69       0.0015
     79  N        -25.9420    2.3740    1.0710 N.3    72  GLU72      -0.1245
     80  CA       -25.0850    2.5330    2.2310 C.3    72  GLU72       0.1567
     81  C        -25.6930    1.8560    3.4490 C.2    72  GLU72       0.2260
     82  O        -26.9160    1.7940    3.6190 O.2    72  GLU72      -0.2867
     83  CB       -24.8880    4.0200    2.5500 C.3    72  GLU72       0.0388
     84  CG       -24.1150    4.7600    1.4890 C.3    72  GLU72       0.1160
     85  CD       -23.9080    6.2320    1.7880 C.2    72  GLU72       0.3649
     86  OE1      -24.6490    6.8050    2.6160 O.co2  72  GLU72      -0.2457
     87  OE2      -22.9710    6.7920    1.1750 O.co2  72  GLU72      -0.2457
     88  N        -25.2420    2.4880    7.5450 N.3    74  ARG74      -0.1245
     89  CA       -24.7060    3.5270    8.4200 C.3    74  ARG74       0.1563
     90  C        -24.7690    3.1350    9.8890 C.2    74  ARG74       0.2260
     91  O        -25.7380    2.5240   10.3430 O.2    74  ARG74      -0.2867
     92  CB       -25.4200    4.8500    8.2000 C.3    74  ARG74       0.0307
     93  CG       -25.0170    5.4620    6.9000 C.3    74  ARG74       0.0489
     94  CD       -25.8310    6.6810    6.5640 C.3    74  ARG74       0.2205
     95  NE       -25.2520    7.3850    5.4230 N.pl3  74  ARG74      -0.0865
     96  CZ       -24.7120    8.6000    5.4720 C.cat  74  ARG74       0.5346
     97  NH1      -24.6580    9.2910    6.6110 N.pl3  74  ARG74       0.1354
     98  NH2      -24.2180    9.1260    4.3650 N.pl3  74  ARG74       0.1354
@<TRIPOS>BOND
     1    65    66    1
     2    68    67    2
     3    66    67    1
     4    66    69    1
     5    71    73   ar
     6    71    70   ar
     7    73    74   ar
     8    69    70    1
     9    70    72   ar
    10    74    72   ar
    11    74    76   ar
    12    72    75   ar
    13    76    78   ar
    14    75    77   ar
    15    78    77   ar
    16    64    62   am
    17    63    62    2
    18    62    61    1
    19    59    60    2
    20    59    58    1
    21    61    58    1
    22    18    20   ar
    23    18    17   ar
    24    16    17    1
    25    16    13    1
    26    20    21   ar
    27    79    80    1
    28    17    19   ar
    29    58    57    1
    30    87    85   ar
    31    21    19   ar
    32    11     9    1
    33    84    85    1
    34    84    83    1
    35    12    13    1
    36    85    86   ar
    37    10     9    1
    38     9     8    2
    39    13    14    1
    40    40    38    1
    41    80    83    1
    42    80    81    1
    43     8     7    1
    44     7     6    1
    45    39    38    1
    46    38    37    2
    47    14    15    2
    48    81    82    2
    49    28    27    2
    50    55    54    1
    51    37    36    1
    52    27    26    1
    53    27    29   am
    54    98    96    1
    55    26    23    1
    56     6     5    1
    57    49    47   ar
    58    54    56    1
    59    54    51    1
    60    36    35    1
    61    53    52    2
    62    95    96    2
    63    95    94    1
    64     5     2    1
    65    96    97    1
    66    52    51    1
    67    23    22    1
    68    23    24    1
    69    47    46    1
    70    47    48   ar
    71    51    50    1
    72    46    45    1
    73    35    34    1
    74    94    93    1
    75    93    92    1
    76    25    24    2
    77     2     3    1
    78     2     1    1
    79     3     4    2
    80    45    42    1
    81    34    31    1
    82    88    89    1
    83    42    43    1
    84    42    41    1
    85    92    89    1
    86    43    44    2
    87    31    30    1
    88    31    32    1
    89    89    90    1
    90    32    33    2
    91    90    91    2
