@<TRIPOS>MOLECULE
tmp/6g0wA00.pdb
 169 166 0 0 0
SMALL
GASTEIGER

@<TRIPOS>ATOM
      1  N          5.2270  -16.5420  -17.3140 N.3    70  HIS70      -0.1226
      2  CA         5.2350  -15.5630  -18.3820 C.3    70  HIS70       0.1752
      3  C          4.3110  -14.4090  -18.0100 C.2    70  HIS70       0.2596
      4  O          3.1060  -14.5910  -17.8200 O.2    70  HIS70      -0.2718
      5  CB         4.8510  -16.2000  -19.7100 C.3    70  HIS70       0.0759
      6  CG         4.7630  -15.2200  -20.8270 C.ar   70  HIS70       0.0818
      7  ND1        5.8340  -14.9150  -21.6340 N.ar   70  HIS70      -0.2268
      8  CD2        3.7420  -14.4320  -21.2380 C.ar   70  HIS70       0.1154
      9  CE1        5.4710  -14.0050  -22.5210 C.ar   70  HIS70       0.1986
     10  NE2        4.2060  -13.6940  -22.2980 N.ar   70  HIS70      -0.2212
     11  N          4.8970  -13.2330  -17.8390 N.am   71  GLY71      -0.1957
     12  CA         4.1360  -12.0430  -17.6050 C.3    71  GLY71       0.1869
     13  C          3.7400  -11.4460  -18.9440 C.2    71  GLY71       0.2309
     14  O          4.5090  -11.4620  -19.9080 O.2    71  GLY71      -0.2863
     15  N          8.2550   -9.5990  -27.6510 N.3    91  ASN91      -0.1225
     16  CA         8.6530  -10.2440  -26.4080 C.3    91  ASN91       0.1785
     17  C          9.8910   -9.5360  -25.8530 C.2    91  ASN91       0.2597
     18  O         10.3070   -8.4820  -26.3460 O.2    91  ASN91      -0.2718
     19  CB         8.8880  -11.7500  -26.6310 C.3    91  ASN91       0.1169
     20  CG         7.7470  -12.6230  -26.0760 C.2    91  ASN91       0.2627
     21  OD1        7.7620  -13.0120  -24.9030 O.2    91  ASN91      -0.2716
     22  ND2        6.7640  -12.9390  -26.9270 N.am   91  ASN91      -0.0877
     23  N         10.4950  -10.1140  -24.8200 N.am   92  ALA92      -0.1966
     24  CA        11.6880   -9.5080  -24.2460 C.3    92  ALA92       0.1728
     25  C         12.8780   -9.6010  -25.1980 C.2    92  ALA92       0.2616
     26  O         13.9520  -10.0660  -24.8090 O.2    92  ALA92      -0.2715
     27  CB        12.0200  -10.1660  -22.9090 C.3    92  ALA92       0.0334
     28  N         12.7060   -9.1600  -26.4410 N.am   93  VAL93      -0.1977
     29  CA        13.7730   -9.1970  -27.4360 C.3    93  VAL93       0.1596
     30  C         14.6690   -7.9760  -27.3350 C.2    93  VAL93       0.2287
     31  O         14.4740   -6.9950  -28.0500 O.2    93  VAL93      -0.2864
     32  CB        13.2020   -9.2950  -28.8400 C.3    93  VAL93       0.0276
     33  CG1       14.2880   -9.7080  -29.8220 C.3    93  VAL93       0.0022
     34  CG2       12.0110  -10.2360  -28.8410 C.3    93  VAL93       0.0022
     35  N          9.4240  -15.6870  -24.1620 N.3    98  TYR98      -0.1227
     36  CA        10.3060  -15.7720  -23.0080 C.3    98  TYR98       0.1736
     37  C          9.5540  -16.3570  -21.8280 C.2    98  TYR98       0.2595
     38  O          8.4540  -15.8960  -21.5020 O.2    98  TYR98      -0.2718
     39  CB        10.8330  -14.3870  -22.6370 C.3    98  TYR98       0.0548
     40  CG        12.0210  -13.9890  -23.4380 C.ar   98  TYR98      -0.0200
     41  CD1       11.9220  -13.8080  -24.8130 C.ar   98  TYR98      -0.0009
     42  CD2       13.2640  -13.8210  -22.8280 C.ar   98  TYR98      -0.0009
     43  CE1       13.0250  -13.4530  -25.5610 C.ar   98  TYR98       0.0417
     44  CE2       14.3750  -13.4790  -23.5650 C.ar   98  TYR98       0.0417
     45  CZ        14.2560  -13.2960  -24.9300 C.ar   98  TYR98       0.1957
     46  OH        15.3760  -12.9410  -25.6570 O.3    98  TYR98      -0.2866
     47  N         10.1570  -17.3360  -21.1660 N.am   99  PHE99      -0.1962
     48  CA         9.5790  -17.8930  -19.9520 C.3    99  PHE99       0.1771
     49  C         10.6190  -17.8510  -18.8540 C.2    99  PHE99       0.2619
     50  O         11.8070  -18.0570  -19.1050 O.2    99  PHE99      -0.2715
     51  CB         9.0810  -19.3180  -20.1590 C.3    99  PHE99       0.0574
     52  CG         8.0760  -19.4290  -21.2410 C.ar   99  PHE99      -0.0200
     53  CD1        6.7380  -19.1830  -20.9830 C.ar   99  PHE99      -0.0042
     54  CD2        8.4760  -19.6990  -22.5340 C.ar   99  PHE99      -0.0042
     55  CE1        5.8120  -19.2370  -21.9890 C.ar   99  PHE99      -0.0003
     56  CE2        7.5630  -19.7510  -23.5500 C.ar   99  PHE99      -0.0003
     57  CZ         6.2350  -19.5270  -23.2800 C.ar   99  PHE99      -0.0000
     58  N         10.1720  -17.5650  -17.6420 N.am  100  ALA100     -0.1977
     59  CA        11.0680  -17.4290  -16.5090 C.3   100  ALA100      0.1597
     60  C         10.9410  -18.6480  -15.6140 C.2   100  ALA100      0.2287
     61  O          9.8340  -19.1560  -15.3860 O.2   100  ALA100     -0.2864
     62  CB        10.7620  -16.1490  -15.7160 C.3   100  ALA100      0.0319
     63  N         11.0610  -12.6090  -12.2670 N.3   105  TYR105     -0.1227
     64  CA        11.4260  -12.0120  -13.5500 C.3   105  TYR105      0.1736
     65  C         10.1740  -11.6050  -14.3210 C.2   105  TYR105      0.2596
     66  O         10.1430  -10.5340  -14.9380 O.2   105  TYR105     -0.2718
     67  CB        12.2960  -12.9610  -14.3890 C.3   105  TYR105      0.0548
     68  CG        13.3920  -13.6720  -13.6080 C.ar  105  TYR105     -0.0200
     69  CD1       14.3250  -12.9580  -12.8560 C.ar  105  TYR105     -0.0009
     70  CD2       13.4780  -15.0720  -13.6030 C.ar  105  TYR105     -0.0009
     71  CE1       15.3220  -13.6180  -12.1260 C.ar  105  TYR105      0.0417
     72  CE2       14.4690  -15.7410  -12.8780 C.ar  105  TYR105      0.0417
     73  CZ        15.3860  -15.0050  -12.1420 C.ar  105  TYR105      0.1957
     74  OH        16.3600  -15.6560  -11.4250 O.3   105  TYR105     -0.2866
     75  N          9.1200  -12.4360  -14.2730 N.am  106  SER106     -0.1952
     76  CA         7.8730  -12.1400  -14.9840 C.3   106  SER106      0.1924
     77  C          7.0250  -11.0860  -14.2750 C.2   106  SER106      0.2314
     78  O          6.2130  -10.4110  -14.9310 O.2   106  SER106     -0.2863
     79  CB         7.0150  -13.4080  -15.1500 C.3   106  SER106      0.2116
     80  OG         7.6990  -14.5020  -15.7540 O.3   106  SER106     -0.2180
     81  N          6.9910   -6.6020  -18.0630 N.3   111  TYR111     -0.1241
     82  CA         6.3060   -7.7270  -18.7040 C.3   111  TYR111      0.1605
     83  C          4.8610   -7.8600  -18.2300 C.2   111  TYR111      0.2264
     84  O          3.9240   -7.7530  -19.0380 O.2   111  TYR111     -0.2867
     85  CB         7.0900   -9.0360  -18.4730 C.3   111  TYR111      0.0534
     86  CG         8.5740   -8.8550  -18.6800 C.ar  111  TYR111     -0.0201
     87  CD1        9.0750   -8.4840  -19.9210 C.ar  111  TYR111     -0.0009
     88  CD2        9.4680   -9.0290  -17.6410 C.ar  111  TYR111     -0.0009
     89  CE1       10.4440   -8.2650  -20.1280 C.ar  111  TYR111      0.0417
     90  CE2       10.8370   -8.8260  -17.8320 C.ar  111  TYR111      0.0417
     91  CZ        11.3180   -8.4360  -19.0820 C.ar  111  TYR111      0.1957
     92  OH        12.6710   -8.2450  -19.2930 O.3   111  TYR111     -0.2866
     93  N         22.6480  -22.6510  -25.1360 N.3   134  HIS134     -0.1226
     94  CA        22.7780  -21.2350  -24.8040 C.3   134  HIS134      0.1752
     95  C         22.3260  -20.3660  -25.9770 C.2   134  HIS134      0.2597
     96  O         22.5900  -20.6930  -27.1380 O.2   134  HIS134     -0.2718
     97  CB        24.2340  -20.9370  -24.4330 C.3   134  HIS134      0.0759
     98  CG        24.5290  -19.4870  -24.1970 C.ar  134  HIS134      0.0818
     99  ND1       24.3420  -18.8780  -22.9730 N.ar  134  HIS134     -0.2268
    100  CD2       25.0180  -18.5310  -25.0230 C.ar  134  HIS134      0.1154
    101  CE1       24.6930  -17.6100  -23.0570 C.ar  134  HIS134      0.1986
    102  NE2       25.1100  -17.3740  -24.2890 N.ar  134  HIS134     -0.2212
    103  N         21.6400  -19.2530  -25.6710 N.am  135  GLY135     -0.1942
    104  CA        21.1220  -18.3500  -26.6810 C.3   135  GLY135      0.2014
    105  C         21.7910  -16.9830  -26.6130 C.2   135  GLY135      0.2639
    106  O         22.5610  -16.6970  -25.6850 O.2   135  GLY135     -0.2714
    107  N         21.4970  -16.1360  -27.6110 N.am  136  ASN136     -0.1958
    108  CA        22.1050  -14.7960  -27.7130 C.3   136  ASN136      0.1819
    109  C         21.1280  -13.7170  -28.2080 C.2   136  ASN136      0.2621
    110  O         21.4430  -12.9330  -29.1050 O.2   136  ASN136     -0.2715
    111  CB        23.3510  -14.8410  -28.6100 C.3   136  ASN136      0.1195
    112  CG        23.0290  -15.1590  -30.0710 C.2   136  ASN136      0.2630
    113  OD1       22.9000  -14.2590  -30.9050 O.2   136  ASN136     -0.2716
    114  ND2       22.9140  -16.4420  -30.3840 N.am  136  ASN136     -0.0877
    115  N         19.9460  -13.6270  -27.5860 N.am  137  HIS137     -0.1973
    116  CA        18.8680  -12.6710  -27.8990 C.3   137  HIS137      0.1656
    117  C         18.7330  -12.1740  -29.3430 C.2   137  HIS137      0.2291
    118  O         18.1060  -11.1350  -29.5800 O.2   137  HIS137     -0.2864
    119  CB        18.9830  -11.4400  -26.9810 C.3   137  HIS137      0.0771
    120  CG        20.1780  -10.5740  -27.2510 C.ar  137  HIS137      0.0820
    121  ND1       21.4710  -10.9930  -27.0210 N.ar  137  HIS137     -0.2267
    122  CD2       20.2720   -9.3040  -27.7130 C.ar  137  HIS137      0.1154
    123  CE1       22.3110  -10.0250  -27.3420 C.ar  137  HIS137      0.1986
    124  NE2       21.6080   -8.9880  -27.7620 N.ar  137  HIS137     -0.2212
    125  N         18.0930  -14.5980  -32.0510 N.3   139  LEU139     -0.1245
    126  CA        17.7420  -15.8110  -32.7670 C.3   139  LEU139      0.1561
    127  C         16.3260  -15.7370  -33.3070 C.2   139  LEU139      0.2260
    128  O         15.3870  -15.3780  -32.5890 O.2   139  LEU139     -0.2867
    129  CB        17.8820  -17.0420  -31.8660 C.3   139  LEU139      0.0270
    130  CG        19.2080  -17.3170  -31.1490 C.3   139  LEU139      0.0019
    131  CD1       19.3200  -16.4840  -29.8870 C.3   139  LEU139      0.0001
    132  CD2       19.3330  -18.7890  -30.7990 C.3   139  LEU139      0.0001
    133  N         16.2100  -22.2550  -26.2420 N.3   157  VAL157     -0.1231
    134  CA        17.4970  -21.6850  -25.8510 C.3   157  VAL157      0.1692
    135  C         17.3560  -21.1320  -24.4390 C.2   157  VAL157      0.2593
    136  O         16.2510  -20.8540  -23.9560 O.2   157  VAL157     -0.2718
    137  CB        18.0080  -20.5970  -26.8150 C.3   157  VAL157      0.0266
    138  CG1       18.0270  -21.1100  -28.2400 C.3   157  VAL157      0.0020
    139  CG2       17.1670  -19.3300  -26.6950 C.3   157  VAL157      0.0020
    140  N         18.4970  -20.9710  -23.7700 N.am  158  THR158     -0.1939
    141  CA        18.4940  -20.6000  -22.3640 C.3   158  THR158      0.2028
    142  C         19.6480  -19.6460  -22.1110 C.2   158  THR158      0.2642
    143  O         20.5520  -19.4990  -22.9380 O.2   158  THR158     -0.2714
    144  CB        18.5930  -21.8550  -21.4650 C.3   158  THR158      0.1808
    145  OG1       18.5350  -21.4890  -20.0790 O.3   158  THR158     -0.2208
    146  CG2       19.9100  -22.6010  -21.7080 C.3   158  THR158      0.0379
    147  N         19.6100  -18.9830  -20.9570 N.am  159  ASP159     -0.1971
    148  CA        20.7220  -18.1030  -20.5930 C.3   159  ASP159      0.1709
    149  C         21.9190  -18.8920  -20.0710 C.2   159  ASP159      0.2293
    150  O         23.0710  -18.4570  -20.2140 O.2   159  ASP159     -0.2864
    151  CB        20.2640  -17.1000  -19.5400 C.3   159  ASP159      0.1436
    152  CG        19.7360  -17.7820  -18.3060 C.2   159  ASP159      0.3671
    153  OD1       19.0560  -18.8180  -18.4700 O.co2 159  ASP159     -0.2456
    154  OD2       20.0190  -17.3120  -17.1820 O.co2 159  ASP159     -0.2456
    155  N         15.8870  -18.5480  -17.4720 N.3   166  LEU166     -0.1245
    156  CA        14.9340  -18.1550  -18.5070 C.3   166  LEU166      0.1561
    157  C         15.0570  -19.1130  -19.6960 C.2   166  LEU166      0.2260
    158  O         16.1280  -19.6640  -19.9550 O.2   166  LEU166     -0.2867
    159  CB        15.1370  -16.7070  -18.9550 C.3   166  LEU166      0.0270
    160  CG        16.5450  -16.2250  -19.2950 C.3   166  LEU166      0.0019
    161  CD1       16.8840  -16.5070  -20.7600 C.3   166  LEU166      0.0001
    162  CD2       16.6720  -14.7380  -18.9850 C.3   166  LEU166      0.0001
    163  N         13.6620  -19.5410  -23.9920 N.3   168  VAL168     -0.1245
    164  CA        13.0020  -18.9720  -25.1710 C.3   168  VAL168      0.1561
    165  C         12.4850  -20.1140  -26.0510 C.2   168  VAL168      0.2260
    166  O         13.2690  -20.9630  -26.4930 O.2   168  VAL168     -0.2867
    167  CB        13.9310  -18.0490  -25.9820 C.3   168  VAL168      0.0252
    168  CG1       13.1260  -17.2830  -27.0080 C.3   168  VAL168      0.0019
    169  CG2       14.6890  -17.0880  -25.0850 C.3   168  VAL168      0.0019
@<TRIPOS>BOND
     1   127   126    1
     2   127   128    2
     3   126   125    1
     4   126   129    1
     5   129   130    1
     6   130   132    1
     7   130   131    1
     8   113   112    2
     9   114   112   am
    10   112   111    1
    11    33    32    1
    12   118   117    2
    13   117   116    1
    14   110   109    2
    15    34    32    1
    16    32    29    1
    17   111   108    1
    18   138   137    1
    19   109   108    1
    20   109   115   am
    21    31    30    2
    22   116   115    1
    23   116   119    1
    24   124   122   ar
    25   124   123   ar
    26   122   120   ar
    27   108   107    1
    28    15    16    1
    29   107   105   am
    30    29    30    1
    31    29    28    1
    32   123   121   ar
    33   120   121   ar
    34   120   119    1
    35    96    95    2
    36   168   167    1
    37    22    20   am
    38   137   139    1
    39   137   134    1
    40   104   105    1
    41   104   103    1
    42    19    16    1
    43    19    20    1
    44   105   106    2
    45   166   165    2
    46    28    25   am
    47    16    17    1
    48    18    17    2
    49   133   134    1
    50    20    21    2
    51   165   164    1
    52   167   164    1
    53   167   169    1
    54    95   103   am
    55    95    94    1
    56    17    23   am
    57   134   135    1
    58    46    45    1
    59    43    45   ar
    60    43    41   ar
    61    25    26    2
    62    25    24    1
    63   164   163    1
    64    93    94    1
    65   100   102   ar
    66   100    98   ar
    67    45    44   ar
    68    23    24    1
    69    41    40   ar
    70    94    97    1
    71   135   136    2
    72   135   140   am
    73    97    98    1
    74   102   101   ar
    75    24    27    1
    76    98    99   ar
    77    35    36    1
    78   140   141    1
    79    44    42   ar
    80    56    57   ar
    81    56    54   ar
    82    40    42   ar
    83    40    39    1
    84    57    55   ar
    85   101    99   ar
    86    36    39    1
    87    36    37    1
    88   143   142    2
    89    54    52   ar
    90     9    10   ar
    91     9     7   ar
    92   141   142    1
    93   141   144    1
    94    10     8   ar
    95   142   147   am
    96    55    53   ar
    97    37    38    2
    98    37    47   am
    99   146   144    1
   100     7     6   ar
   101   144   145    1
   102    52    53   ar
   103    52    51    1
   104     8     6   ar
   105    47    48    1
   106   147   148    1
   107     6     5    1
   108   161   160    1
   109   148   149    1
   110   148   151    1
   111   150   149    2
   112    51    48    1
   113    89    87   ar
   114    89    91   ar
   115   158   157    2
   116    48    49    1
   117    87    86   ar
   118    14    13    2
   119     5     2    1
   120   157   156    1
   121   151   152    1
   122   160   162    1
   123   160   159    1
   124    92    91    1
   125    50    49    2
   126    91    90   ar
   127    84    83    2
   128   159   156    1
   129    13    12    1
   130    49    58   am
   131    82    85    1
   132    82    83    1
   133    82    81    1
   134    86    85    1
   135    86    88   ar
   136   156   155    1
   137   153   152   ar
   138     2     3    1
   139     2     1    1
   140   152   154   ar
   141     3    11   am
   142     3     4    2
   143    11    12    1
   144    90    88   ar
   145    58    59    1
   146    59    62    1
   147    59    60    1
   148    80    79    1
   149    60    61    2
   150    79    76    1
   151    76    77    1
   152    76    75    1
   153    66    65    2
   154    78    77    2
   155    67    68    1
   156    67    64    1
   157    65    75   am
   158    65    64    1
   159    68    70   ar
   160    68    69   ar
   161    70    72   ar
   162    64    63    1
   163    72    73   ar
   164    69    71   ar
   165    73    71   ar
   166    73    74    1
