@<TRIPOS>MOLECULE
tmp/6g0zB00.pdb
 120 118 0 0 0
SMALL
GASTEIGER

@<TRIPOS>ATOM
      1  N        -51.0260   75.2380  141.6480 N.3    57  ASN57      -0.1225
      2  CA       -51.1100   76.5540  142.2620 C.3    57  ASN57       0.1785
      3  C        -49.9160   77.4350  141.8470 C.2    57  ASN57       0.2597
      4  O        -48.9370   76.9390  141.3080 O.2    57  ASN57      -0.2718
      5  CB       -51.1930   76.4110  143.7910 C.3    57  ASN57       0.1169
      6  CG       -51.5270   77.7000  144.4630 C.2    57  ASN57       0.2627
      7  OD1      -52.3810   78.4520  143.9850 O.2    57  ASN57      -0.2716
      8  ND2      -50.8270   77.9990  145.5610 N.am   57  ASN57      -0.0877
      9  N        -50.0310   78.7380  142.0810 N.am   58  LYS58      -0.1980
     10  CA       -49.0240   79.7280  141.6700 C.3    58  LYS58       0.1596
     11  C        -48.8690   79.7570  140.1600 C.2    58  LYS58       0.2287
     12  O        -47.7630   79.9370  139.6480 O.2    58  LYS58      -0.2864
     13  CB       -47.6570   79.4610  142.3390 C.3    58  LYS58       0.0298
     14  CG       -47.7730   79.2290  143.8500 C.3    58  LYS58       0.0038
     15  CD       -46.3950   79.0800  144.4910 C.3    58  LYS58       0.0206
     16  CE       -46.5060   79.0390  146.0020 C.3    58  LYS58       0.1093
     17  NZ       -45.2210   78.5860  146.5970 N.3    58  LYS58      -0.1314
     18  N        -49.6390   82.0640  138.2740 N.3    60  ASP60      -0.1225
     19  CA       -49.1360   83.4060  137.9640 C.3    60  ASP60       0.1805
     20  C        -47.6060   83.4450  137.8830 C.2    60  ASP60       0.2597
     21  O        -47.0520   84.3600  137.2950 O.2    60  ASP60      -0.2718
     22  CB       -49.6270   84.4320  139.0040 C.3    60  ASP60       0.1424
     23  CG       -49.2910   84.0230  140.4560 C.2    60  ASP60       0.3668
     24  OD1      -49.6090   82.8800  140.8570 O.co2  60  ASP60      -0.2456
     25  OD2      -48.7110   84.8500  141.2020 O.co2  60  ASP60      -0.2456
     26  N        -46.9220   82.4740  138.4840 N.am   61  MET61      -0.1979
     27  CA       -45.4520   82.4880  138.4670 C.3    61  MET61       0.1605
     28  C        -44.8530   81.4720  137.4950 C.2    61  MET61       0.2287
     29  O        -43.6320   81.2690  137.4800 O.2    61  MET61      -0.2864
     30  CB       -44.8940   82.2050  139.8610 C.3    61  MET61       0.0413
     31  CG       -45.2620   83.2240  140.9240 C.3    61  MET61       0.0598
     32  SD       -44.7240   82.6090  142.5370 S.3    61  MET61      -0.1393
     33  CE       -43.0600   83.2870  142.5710 C.3    61  MET61       0.0692
     34  N        -54.3740   80.6810  140.9230 N.3    85  ASP85      -0.1225
     35  CA       -53.5840   81.6120  141.7290 C.3    85  ASP85       0.1805
     36  C        -54.2960   81.7960  143.0760 C.2    85  ASP85       0.2598
     37  O        -55.2440   82.5880  143.2020 O.2    85  ASP85      -0.2718
     38  CB       -53.4050   82.9500  140.9980 C.3    85  ASP85       0.1424
     39  CG       -52.5860   83.9730  141.7940 C.2    85  ASP85       0.3668
     40  OD1      -52.3390   83.7840  143.0100 O.co2  85  ASP85      -0.2456
     41  OD2      -52.1670   84.9760  141.1740 O.co2  85  ASP85      -0.2456
     42  N        -53.8680   81.0320  144.0730 N.am   86  ALA86      -0.1966
     43  CA       -54.5510   81.0510  145.3610 C.3    86  ALA86       0.1728
     44  C        -54.3710   82.4010  146.0490 C.2    86  ALA86       0.2616
     45  O        -55.2570   82.8680  146.7590 O.2    86  ALA86      -0.2715
     46  CB       -54.0450   79.9270  146.2510 C.3    86  ALA86       0.0334
     47  N        -53.2340   83.0440  145.8050 N.am   87  LYS87      -0.1963
     48  CA       -52.9060   84.2790  146.5040 C.3    87  LYS87       0.1728
     49  C        -53.7440   85.4470  145.9860 C.2    87  LYS87       0.2616
     50  O        -54.3390   86.1890  146.7680 O.2    87  LYS87      -0.2715
     51  CB       -51.4110   84.5980  146.3700 C.3    87  LYS87       0.0311
     52  CG       -51.0050   85.8920  147.0800 C.3    87  LYS87       0.0038
     53  CD       -49.5060   86.1890  146.9150 C.3    87  LYS87       0.0206
     54  CE       -49.0680   87.3600  147.7980 C.3    87  LYS87       0.1093
     55  NZ       -47.5880   87.4240  148.0130 N.3    87  LYS87      -0.1314
     56  N        -53.8040   85.6030  144.6700 N.am   88  HIS88      -0.1973
     57  CA       -54.4990   86.7460  144.0930 C.3    88  HIS88       0.1656
     58  C        -55.9030   86.3960  143.6500 C.2    88  HIS88       0.2291
     59  O        -56.5950   87.2120  143.0400 O.2    88  HIS88      -0.2864
     60  CB       -53.6890   87.3280  142.9440 C.3    88  HIS88       0.0771
     61  CG       -52.2570   87.5740  143.3020 C.ar   88  HIS88       0.0820
     62  ND1      -51.2290   86.8030  142.8260 N.ar   88  HIS88      -0.2267
     63  CD2      -51.6970   88.5080  144.1120 C.ar   88  HIS88       0.1154
     64  CE1      -50.0790   87.2510  143.3160 C.ar   88  HIS88       0.1986
     65  NE2      -50.3400   88.2820  144.0940 N.ar   88  HIS88      -0.2212
     66  N        -44.8820   71.0490  151.9450 N.3   128  PRO128     -0.2102
     67  CA       -44.9020   72.4070  152.5040 C.3   128  PRO128      0.1504
     68  C        -44.6820   73.5010  151.4580 C.2   128  PRO128      0.2576
     69  O        -43.9930   73.2770  150.4650 O.2   128  PRO128     -0.2718
     70  CB       -43.7500   72.3820  153.5330 C.3   128  PRO128      0.0282
     71  CG       -43.6670   70.9450  153.9540 C.3   128  PRO128      0.0208
     72  CD       -43.9570   70.1660  152.6910 C.3   128  PRO128      0.0893
     73  N        -45.3310   74.6430  151.6790 N.am  129  ASN129     -0.1961
     74  CA       -45.1630   75.8700  150.8960 C.3   129  ASN129      0.1819
     75  C        -45.7420   75.8990  149.4780 C.2   129  ASN129      0.2621
     76  O        -45.4270   76.8150  148.7230 O.2   129  ASN129     -0.2715
     77  CB       -43.6780   76.2320  150.8060 C.3   129  ASN129      0.1195
     78  CG       -43.0450   76.4020  152.1710 C.2   129  ASN129      0.2630
     79  OD1      -41.9770   75.8440  152.4440 O.2   129  ASN129     -0.2716
     80  ND2      -43.7170   77.1520  153.0520 N.am  129  ASN129     -0.0877
     81  N        -46.5760   74.9270  149.1050 N.am  130  VAL130     -0.1963
     82  CA       -47.2060   74.9610  147.7860 C.3   130  VAL130      0.1727
     83  C        -48.4510   75.8580  147.7420 C.2   130  VAL130      0.2617
     84  O        -48.9880   76.1260  146.6610 O.2   130  VAL130     -0.2715
     85  CB       -47.6120   73.5560  147.2850 C.3   130  VAL130      0.0290
     86  CG1      -46.3860   72.7520  146.8680 C.3   130  VAL130      0.0023
     87  CG2      -48.5110   72.8250  148.3380 C.3   130  VAL130      0.0023
     88  N        -48.9040   76.2970  148.9120 N.am  131  GLY131     -0.1940
     89  CA       -50.0060   77.2400  149.0200 C.3   131  GLY131      0.2014
     90  C        -51.2840   76.6840  149.6340 C.2   131  GLY131      0.2639
     91  O        -52.3760   77.1990  149.3790 O.2   131  GLY131     -0.2714
     92  N        -51.1560   75.6530  150.4640 N.am  132  LYS132     -0.1963
     93  CA       -52.3250   74.9660  151.0330 C.3   132  LYS132      0.1728
     94  C        -53.1640   75.8630  151.9550 C.2   132  LYS132      0.2617
     95  O        -54.3920   75.9060  151.8440 O.2   132  LYS132     -0.2715
     96  CB       -51.8760   73.7060  151.7880 C.3   132  LYS132      0.0311
     97  CG       -51.2290   72.6600  150.8640 C.3   132  LYS132      0.0038
     98  CD       -50.8730   71.3570  151.5770 C.3   132  LYS132      0.0206
     99  CE       -49.8660   71.5590  152.7270 C.3   132  LYS132      0.1093
    100  NZ       -48.5750   72.1820  152.2940 N.3   132  LYS132     -0.1314
    101  N        -52.5090   76.5610  152.8800 N.am  133  SER133     -0.1936
    102  CA       -53.2490   77.3690  153.8390 C.3   133  SER133      0.2055
    103  C        -53.7800   78.6380  153.1670 C.2   133  SER133      0.2643
    104  O        -54.8720   79.1080  153.4970 O.2   133  SER133     -0.2714
    105  CB       -52.3850   77.7030  155.0570 C.3   133  SER133      0.2130
    106  OG       -51.3420   78.5860  154.7080 O.3   133  SER133     -0.2179
    107  N        -53.0210   79.1710  152.2090 N.am  134  THR134     -0.1950
    108  CA       -53.5190   80.2370  151.3300 C.3   134  THR134      0.1897
    109  C        -54.8030   79.8510  150.5810 C.2   134  THR134      0.2313
    110  O        -55.7860   80.5990  150.5770 O.2   134  THR134     -0.2863
    111  CB       -52.4630   80.6430  150.3000 C.3   134  THR134      0.1794
    112  OG1      -51.2870   81.0900  150.9860 O.3   134  THR134     -0.2208
    113  CG2      -52.9860   81.7740  149.4310 C.3   134  THR134      0.0378
    114  N        -55.0260   71.0350  156.1110 N.3   169  PRO169     -0.2116
    115  CA       -54.4290   70.2980  154.9860 C.3   169  PRO169      0.1372
    116  C        -53.6840   69.0850  155.5060 C.2   169  PRO169      0.2244
    117  O        -53.3310   69.0830  156.6800 O.2   169  PRO169     -0.2868
    118  CB       -53.4560   71.3100  154.3760 C.3   169  PRO169      0.0268
    119  CG       -52.9790   72.0900  155.5860 C.3   169  PRO169      0.0207
    120  CD       -54.1790   72.1650  156.5430 C.3   169  PRO169      0.0892
@<TRIPOS>BOND
     1    21    20    2
     2    29    28    2
     3    28    27    1
     4    20    19    1
     5    20    26   am
     6    19    18    1
     7    19    22    1
     8    27    26    1
     9    27    30    1
    10    22    23    1
    11    12    11    2
    12    30    31    1
    13    11    10    1
    14    23    24   ar
    15    23    25   ar
    16    34    35    1
    17    31    32    1
    18    38    35    1
    19    38    39    1
    20    41    39   ar
    21     4     3    2
    22     1     2    1
    23    10     9    1
    24    10    13    1
    25    35    36    1
    26    39    40   ar
    27     3     9   am
    28     3     2    1
    29     2     5    1
    30    13    14    1
    31    32    33    1
    32    62    61   ar
    33    62    64   ar
    34    60    61    1
    35    60    57    1
    36    59    58    2
    37    36    37    2
    38    36    42   am
    39    61    63   ar
    40    64    65   ar
    41    58    57    1
    42     5     6    1
    43    14    15    1
    44     7     6    2
    45    42    43    1
    46    57    56    1
    47    65    63   ar
    48     6     8   am
    49    15    16    1
    50    56    49   am
    51    43    44    1
    52    43    46    1
    53    47    44   am
    54    47    48    1
    55    49    48    1
    56    49    50    2
    57    16    17    1
    58    44    45    2
    59    51    48    1
    60    51    52    1
    61    84    83    2
    62    86    85    1
    63    53    52    1
    64    53    54    1
    65    85    82    1
    66    85    87    1
    67    83    82    1
    68    83    88   am
    69    82    81    1
    70    54    55    1
    71    76    75    2
    72    88    89    1
    73    89    90    1
    74    81    75   am
    75    91    90    2
    76   113   111    1
    77    75    74    1
    78    90    92   am
    79   111   112    1
    80   111   108    1
    81    92    93    1
    82    69    68    2
    83   110   109    2
    84   109   108    1
    85    77    74    1
    86    77    78    1
    87    97    98    1
    88    97    96    1
    89    74    73    1
    90    93    96    1
    91    93    94    1
    92   108   107    1
    93    68    73   am
    94    68    67    1
    95    98    99    1
    96    95    94    2
    97    66    67    1
    98    66    72    1
    99    94   101   am
   100    78    79    2
   101    78    80   am
   102   107   103   am
   103   100    99    1
   104    67    70    1
   105    72    71    1
   106   101   102    1
   107   103   104    2
   108   103   102    1
   109    70    71    1
   110   102   105    1
   111   118   115    1
   112   118   119    1
   113   106   105    1
   114   115   116    1
   115   115   114    1
   116   116   117    2
   117   119   120    1
   118   114   120    1
