@<TRIPOS>MOLECULE
tmp/6g12B00.pdb
 136 132 0 0 0
SMALL
GASTEIGER

@<TRIPOS>ATOM
      1  N        139.1790  160.1620 -220.2150 N.3     2  ILE2       -0.1245
      2  CA       138.8560  161.4850 -220.7360 C.3     2  ILE2        0.1561
      3  C        140.0640  162.4000 -220.7570 C.2     2  ILE2        0.2260
      4  O        140.8140  162.4950 -219.7910 O.2     2  ILE2       -0.2867
      5  CB       137.7580  162.1940 -219.9330 C.3     2  ILE2        0.0252
      6  CG1      136.3850  161.6450 -220.3000 C.3     2  ILE2        0.0019
      7  CG2      137.7550  163.6770 -220.2530 C.3     2  ILE2        0.0019
      8  CD1      135.2650  162.5160 -219.8100 C.3     2  ILE2        0.0001
      9  N        128.8440  157.9880 -203.3390 N.3    57  ASN57      -0.1225
     10  CA       128.7930  156.6740 -203.9440 C.3    57  ASN57       0.1785
     11  C        130.0100  155.8110 -203.5450 C.2    57  ASN57       0.2597
     12  O        130.9720  156.3070 -202.9820 O.2    57  ASN57      -0.2718
     13  CB       128.7110  156.8020 -205.4620 C.3    57  ASN57       0.1169
     14  CG       128.3660  155.5110 -206.1100 C.2    57  ASN57       0.2627
     15  OD1      127.5790  154.7350 -205.5690 O.2    57  ASN57      -0.2716
     16  ND2      128.9560  155.2460 -207.2710 N.am   57  ASN57      -0.0877
     17  N        129.9350  154.5230 -203.8460 N.am   58  LYS58      -0.1980
     18  CA       130.9340  153.5390 -203.4160 C.3    58  LYS58       0.1596
     19  C        131.0670  153.4850 -201.8970 C.2    58  LYS58       0.2287
     20  O        132.1590  153.3300 -201.3600 O.2    58  LYS58      -0.2864
     21  CB       132.2870  153.8270 -204.0610 C.3    58  LYS58       0.0298
     22  CG       132.2030  153.9620 -205.5710 C.3    58  LYS58       0.0038
     23  CD       133.5840  154.2210 -206.1880 C.3    58  LYS58       0.0206
     24  CE       133.5300  154.1850 -207.6930 C.3    58  LYS58       0.1093
     25  NZ       134.8520  154.5130 -208.3050 N.3    58  LYS58      -0.1314
     26  N        130.3200  151.1230 -200.0850 N.3    60  ASP60      -0.1225
     27  CA       130.8200  149.7900 -199.7730 C.3    60  ASP60       0.1805
     28  C        132.3430  149.7660 -199.6730 C.2    60  ASP60       0.2597
     29  O        132.9080  148.8630 -199.0630 O.2    60  ASP60      -0.2718
     30  CB       130.3180  148.7620 -200.8060 C.3    60  ASP60       0.1424
     31  CG       130.7110  149.1100 -202.2300 C.2    60  ASP60       0.3668
     32  OD1      130.4290  150.2450 -202.6490 O.co2  60  ASP60      -0.2456
     33  OD2      131.2690  148.2440 -202.9500 O.co2  60  ASP60      -0.2456
     34  N        133.0000  150.7480 -200.2440 N.am   61  MET61      -0.1979
     35  CA       134.4430  150.8310 -200.2340 C.3    61  MET61       0.1605
     36  C        135.0880  151.8400 -199.2800 C.2    61  MET61       0.2287
     37  O        136.2620  152.0350 -199.3220 O.2    61  MET61      -0.2864
     38  CB       134.9310  151.1250 -201.6370 C.3    61  MET61       0.0413
     39  CG       134.6460  150.0890 -202.6730 C.3    61  MET61       0.0598
     40  SD       135.2380  150.5670 -204.2660 S.3    61  MET61      -0.1393
     41  CE       136.9150  150.0490 -204.1370 C.3    61  MET61       0.0692
     42  N        125.6160  152.5120 -202.6330 N.3    85  ASP85      -0.1225
     43  CA       126.4570  151.5910 -203.4040 C.3    85  ASP85       0.1805
     44  C        125.7540  151.3170 -204.7310 C.2    85  ASP85       0.2598
     45  O        124.8640  150.4670 -204.8170 O.2    85  ASP85      -0.2718
     46  CB       126.7090  150.2890 -202.6290 C.3    85  ASP85       0.1424
     47  CG       127.4220  149.2110 -203.4620 C.2    85  ASP85       0.3668
     48  OD1      127.5690  149.3460 -204.7020 O.co2  85  ASP85      -0.2456
     49  OD2      127.8220  148.1940 -202.8580 O.co2  85  ASP85      -0.2456
     50  N        126.1670  152.0540 -205.7550 N.am   86  ALA86      -0.1966
     51  CA       125.5150  152.0300 -207.0530 C.3    86  ALA86       0.1728
     52  C        125.7120  150.7000 -207.7670 C.2    86  ALA86       0.2616
     53  O        124.8910  150.2920 -208.6020 O.2    86  ALA86      -0.2715
     54  CB       126.0380  153.1730 -207.9230 C.3    86  ALA86       0.0334
     55  N        126.8150  150.0310 -207.4590 N.am   87  LYS87      -0.1963
     56  CA       127.1640  148.8230 -208.1790 C.3    87  LYS87       0.1728
     57  C        126.2980  147.6670 -207.7010 C.2    87  LYS87       0.2616
     58  O        125.7920  146.8990 -208.5030 O.2    87  LYS87      -0.2715
     59  CB       128.6590  148.5020 -208.0190 C.3    87  LYS87       0.0311
     60  CG       129.0760  147.1850 -208.6510 C.3    87  LYS87       0.0038
     61  CD       130.5900  146.9640 -208.5820 C.3    87  LYS87       0.0206
     62  CE       131.0050  145.7680 -209.4440 C.3    87  LYS87       0.1093
     63  NZ       132.4040  145.8250 -209.9640 N.3    87  LYS87      -0.1314
     64  N        126.1710  147.5340 -206.3880 N.am   88  HIS88      -0.1973
     65  CA       125.4430  146.4280 -205.7930 C.3    88  HIS88       0.1656
     66  C        124.0410  146.8430 -205.3750 C.2    88  HIS88       0.2291
     67  O        123.3430  146.0860 -204.7100 O.2    88  HIS88      -0.2864
     68  CB       126.2260  145.8720 -204.6000 C.3    88  HIS88       0.0771
     69  CG       127.6620  145.5940 -204.9160 C.ar   88  HIS88       0.0820
     70  ND1      128.6900  146.3900 -204.4720 N.ar   88  HIS88      -0.2267
     71  CD2      128.2340  144.6320 -205.6810 C.ar   88  HIS88       0.1154
     72  CE1      129.8400  145.9190 -204.9250 C.ar   88  HIS88       0.1986
     73  NE2      129.5880  144.8530 -205.6610 N.ar   88  HIS88      -0.2212
     74  N        134.9570  162.1820 -213.5910 N.3   128  PRO128     -0.2102
     75  CA       134.8900  160.8360 -214.1600 C.3   128  PRO128      0.1504
     76  C        135.2090  159.7220 -213.1530 C.2   128  PRO128      0.2576
     77  O        135.9380  159.9300 -212.2140 O.2   128  PRO128     -0.2718
     78  CB       135.9380  160.8820 -215.2780 C.3   128  PRO128      0.0282
     79  CG       136.0790  162.3520 -215.6010 C.3   128  PRO128      0.0208
     80  CD       135.9540  163.0240 -214.2790 C.3   128  PRO128      0.0893
     81  N        134.5850  158.5730 -213.3580 N.am  129  ASN129     -0.1961
     82  CA       134.8040  157.3400 -212.6170 C.3   129  ASN129      0.1819
     83  C        134.2380  157.2740 -211.2030 C.2   129  ASN129      0.2621
     84  O        134.4610  156.2860 -210.5140 O.2   129  ASN129     -0.2715
     85  CB       136.2900  157.0400 -212.5870 C.3   129  ASN129      0.1195
     86  CG       136.8460  156.9060 -213.9780 C.2   129  ASN129      0.2630
     87  OD1      137.7570  157.6430 -214.3750 O.2   129  ASN129     -0.2716
     88  ND2      136.2330  156.0210 -214.7690 N.am  129  ASN129     -0.0877
     89  N        133.4760  158.2840 -210.7840 N.am  130  VAL130     -0.1963
     90  CA       132.8170  158.2160 -209.4740 C.3   130  VAL130      0.1727
     91  C        131.5800  157.3080 -209.4600 C.2   130  VAL130      0.2617
     92  O        131.0510  157.0050 -208.3930 O.2   130  VAL130     -0.2715
     93  CB       132.3880  159.6110 -208.9620 C.3   130  VAL130      0.0290
     94  CG1      133.5740  160.4420 -208.5550 C.3   130  VAL130      0.0023
     95  CG2      131.4900  160.3230 -209.9920 C.3   130  VAL130      0.0023
     96  N        131.1050  156.9050 -210.6340 N.am  131  GLY131     -0.1940
     97  CA       130.0080  155.9580 -210.7420 C.3   131  GLY131      0.2014
     98  C        128.7030  156.5080 -211.3100 C.2   131  GLY131      0.2639
     99  O        127.6280  155.9760 -211.0260 O.2   131  GLY131     -0.2714
    100  N        128.7920  157.5420 -212.1420 N.am  132  LYS132     -0.1963
    101  CA       127.5960  158.2170 -212.6590 C.3   132  LYS132      0.1728
    102  C        126.7580  157.3180 -213.5790 C.2   132  LYS132      0.2617
    103  O        125.5650  157.1270 -213.3450 O.2   132  LYS132     -0.2715
    104  CB       127.9910  159.4960 -213.4000 C.3   132  LYS132      0.0311
    105  CG       128.6410  160.5420 -212.5050 C.3   132  LYS132      0.0038
    106  CD       128.9320  161.8560 -213.2370 C.3   132  LYS132      0.0206
    107  CE       129.8820  161.6220 -214.4340 C.3   132  LYS132      0.1093
    108  NZ       131.1970  161.0070 -214.0620 N.3   132  LYS132     -0.1314
    109  N        127.3830  156.7230 -214.5910 N.am  133  SER133     -0.1936
    110  CA       126.6250  155.9260 -215.5440 C.3   133  SER133      0.2055
    111  C        126.1660  154.6430 -214.8820 C.2   133  SER133      0.2643
    112  O        125.0820  154.1410 -215.1860 O.2   133  SER133     -0.2714
    113  CB       127.4500  155.6070 -216.7840 C.3   133  SER133      0.2130
    114  OG       128.5750  154.8550 -216.4030 O.3   133  SER133     -0.2179
    115  N        126.9690  154.1370 -213.9500 N.am  134  THR134     -0.1950
    116  CA       126.5310  153.0220 -213.1090 C.3   134  THR134      0.1897
    117  C        125.2700  153.3720 -212.3250 C.2   134  THR134      0.2313
    118  O        124.3460  152.5660 -212.2450 O.2   134  THR134     -0.2863
    119  CB       127.6160  152.5820 -212.1100 C.3   134  THR134      0.1794
    120  OG1      128.7620  152.1190 -212.8330 O.3   134  THR134     -0.2208
    121  CG2      127.1100  151.4500 -211.2330 C.3   134  THR134      0.0378
    122  N        124.8210  162.1860 -217.7970 N.3   169  PRO169     -0.2116
    123  CA       125.4590  162.9340 -216.7060 C.3   169  PRO169      0.1372
    124  C        126.2100  164.1480 -217.2100 C.2   169  PRO169      0.2244
    125  O        126.5650  164.1860 -218.3850 O.2   169  PRO169     -0.2868
    126  CB       126.4400  161.9220 -216.1080 C.3   169  PRO169      0.0268
    127  CG       126.8260  161.0370 -217.2970 C.3   169  PRO169      0.0207
    128  CD       125.6510  161.0620 -218.2720 C.3   169  PRO169      0.0892
    129  N        129.6930  165.7270 -217.0530 N.3   171  ILE171     -0.1245
    130  CA       131.0210  165.2280 -216.6760 C.3   171  ILE171      0.1561
    131  C        131.9740  166.3990 -216.5120 C.2   171  ILE171      0.2260
    132  O        132.2070  167.1290 -217.4670 O.2   171  ILE171     -0.2867
    133  CB       131.5890  164.2550 -217.7280 C.3   171  ILE171      0.0252
    134  CG1      130.6160  163.1090 -217.9860 C.3   171  ILE171      0.0019
    135  CG2      132.9610  163.7300 -217.2780 C.3   171  ILE171      0.0019
    136  CD1      131.0920  162.1370 -219.0340 C.3   171  ILE171      0.0001
@<TRIPOS>BOND
     1     3     2    1
     2     3     4    2
     3     2     1    1
     4     2     5    1
     5     6     5    1
     6     6     8    1
     7     7     5    1
     8   136   134    1
     9   125   124    2
    10   128   122    1
    11   128   127    1
    12   134   133    1
    13   122   123    1
    14   133   135    1
    15   133   130    1
    16   132   131    2
    17   127   126    1
    18   124   123    1
    19   129   130    1
    20   113   114    1
    21   113   110    1
    22   123   126    1
    23   130   131    1
    24    79    78    1
    25    79    80    1
    26   110   111    1
    27   110   109    1
    28    78    75    1
    29   112   111    2
    30   111   115   am
    31    88    86   am
    32   109   102   am
    33   107   108    1
    34   107   106    1
    35    87    86    2
    36    80    74    1
    37    75    74    1
    38    75    76    1
    39    86    85    1
    40   115   116    1
    41   102   103    2
    42   102   101    1
    43   104   101    1
    44   104   105    1
    45    81    76   am
    46    81    82    1
    47   106   105    1
    48    76    77    2
    49   116   117    1
    50   116   119    1
    51   120   119    1
    52   101   100    1
    53    82    85    1
    54    82    83    1
    55   117   118    2
    56   100    98   am
    57   119   121    1
    58    98    99    2
    59    98    97    1
    60    83    89   am
    61    83    84    2
    62    89    90    1
    63    97    96    1
    64    96    91   am
    65    95    93    1
    66    63    62    1
    67    90    91    1
    68    90    93    1
    69    91    92    2
    70    62    61    1
    71    93    94    1
    72    60    61    1
    73    60    59    1
    74    53    52    2
    75    58    57    2
    76    25    24    1
    77    56    59    1
    78    56    57    1
    79    56    55    1
    80    54    51    1
    81    52    55   am
    82    52    51    1
    83    57    64   am
    84    24    23    1
    85    16    14   am
    86    51    50    1
    87    64    65    1
    88    23    22    1
    89    14    15    2
    90    14    13    1
    91    65    66    1
    92    65    68    1
    93    50    44   am
    94    71    73   ar
    95    71    69   ar
    96    73    72   ar
    97    22    21    1
    98    13    10    1
    99    66    67    2
   100    72    70   ar
   101    69    68    1
   102    69    70   ar
   103    45    44    2
   104    44    43    1
   105    48    47   ar
   106    40    41    1
   107    40    39    1
   108    21    18    1
   109    10    11    1
   110    10     9    1
   111    17    11   am
   112    17    18    1
   113    11    12    2
   114    47    49   ar
   115    47    46    1
   116    18    19    1
   117    43    42    1
   118    43    46    1
   119    33    31   ar
   120    39    38    1
   121    32    31   ar
   122    31    30    1
   123    19    20    2
   124    38    35    1
   125    30    27    1
   126    34    35    1
   127    34    28   am
   128    35    36    1
   129    26    27    1
   130    27    28    1
   131    28    29    2
   132    37    36    2
