@<TRIPOS>MOLECULE
tmp/6g14B00.pdb
 128 125 0 0 0
SMALL
GASTEIGER

@<TRIPOS>ATOM
      1  N        -51.2960   -3.2060  142.2820 N.3    57  ASN57      -0.1225
      2  CA       -51.4160   -1.8830  142.8770 C.3    57  ASN57       0.1785
      3  C        -50.2560   -1.0000  142.4400 C.2    57  ASN57       0.2597
      4  O        -49.2570   -1.4980  141.9380 O.2    57  ASN57      -0.2718
      5  CB       -51.4600   -1.9940  144.4050 C.3    57  ASN57       0.1169
      6  CG       -51.7930   -0.6870  145.0800 C.2    57  ASN57       0.2627
      7  OD1      -52.6610    0.0430  144.6290 O.2    57  ASN57      -0.2716
      8  ND2      -51.1190   -0.3990  146.1900 N.am   57  ASN57      -0.0877
      9  N        -50.4000    0.3050  142.6290 N.am   58  LYS58      -0.1980
     10  CA       -49.3810    1.2880  142.2090 C.3    58  LYS58       0.1596
     11  C        -49.2460    1.2980  140.6970 C.2    58  LYS58       0.2287
     12  O        -48.1570    1.5070  140.1560 O.2    58  LYS58      -0.2864
     13  CB       -48.0080    1.0260  142.8750 C.3    58  LYS58       0.0298
     14  CG       -48.0710    0.7980  144.3930 C.3    58  LYS58       0.0038
     15  CD       -46.6810    0.8070  145.0480 C.3    58  LYS58       0.0206
     16  CE       -46.7610    0.5810  146.5520 C.3    58  LYS58       0.1093
     17  NZ       -45.3880    0.5380  147.2030 N.3    58  LYS58      -0.1314
     18  N        -49.9900    3.5270  138.8710 N.3    60  ASP60      -0.1225
     19  CA       -49.5120    4.8600  138.5220 C.3    60  ASP60       0.1805
     20  C        -47.9830    4.9310  138.4340 C.2    60  ASP60       0.2597
     21  O        -47.4400    5.8640  137.8410 O.2    60  ASP60      -0.2718
     22  CB       -50.0240    5.9060  139.5160 C.3    60  ASP60       0.1424
     23  CG       -49.6360    5.6100  140.9540 C.2    60  ASP60       0.3668
     24  OD1      -49.9280    4.4890  141.4510 O.co2  60  ASP60      -0.2456
     25  OD2      -49.0660    6.5220  141.6050 O.co2  60  ASP60      -0.2456
     26  N        -47.2880    3.9580  139.0170 N.am   61  MET61      -0.1979
     27  CA       -45.8330    3.9710  138.9630 C.3    61  MET61       0.1605
     28  C        -45.2600    2.9700  137.9620 C.2    61  MET61       0.2287
     29  O        -44.0500    2.8240  137.8640 O.2    61  MET61      -0.2864
     30  CB       -45.2460    3.6730  140.3510 C.3    61  MET61       0.0413
     31  CG       -45.8080    4.5370  141.4710 C.3    61  MET61       0.0598
     32  SD       -45.1160    4.0220  143.0530 S.3    61  MET61      -0.1393
     33  CE       -43.4740    4.7080  142.8410 C.3    61  MET61       0.0692
     34  N        -54.8010    2.2190  141.5460 N.3    85  ASP85      -0.1225
     35  CA       -53.9180    3.1180  142.2860 C.3    85  ASP85       0.1805
     36  C        -54.5830    3.3450  143.6290 C.2    85  ASP85       0.2598
     37  O        -55.4260    4.2300  143.7750 O.2    85  ASP85      -0.2718
     38  CB       -53.7020    4.4460  141.5370 C.3    85  ASP85       0.1424
     39  CG       -52.8980    5.4760  142.3480 C.2    85  ASP85       0.3668
     40  OD1      -52.6870    5.3050  143.5710 O.co2  85  ASP85      -0.2456
     41  OD2      -52.4620    6.4760  141.7360 O.co2  85  ASP85      -0.2456
     42  N        -54.1950    2.5670  144.6240 N.am   86  ALA86      -0.1966
     43  CA       -54.9090    2.6060  145.8970 C.3    86  ALA86       0.1728
     44  C        -54.7140    3.9460  146.6100 C.2    86  ALA86       0.2616
     45  O        -55.5600    4.3760  147.3960 O.2    86  ALA86      -0.2715
     46  CB       -54.4410    1.4640  146.7910 C.3    86  ALA86       0.0334
     47  N        -53.6010    4.6080  146.3220 N.am   87  LYS87      -0.1963
     48  CA       -53.2540    5.8330  147.0290 C.3    87  LYS87       0.1728
     49  C        -54.0750    7.0060  146.5290 C.2    87  LYS87       0.2616
     50  O        -54.6240    7.7630  147.3270 O.2    87  LYS87      -0.2715
     51  CB       -51.7670    6.1440  146.8950 C.3    87  LYS87       0.0311
     52  CG       -51.3560    7.4190  147.6170 C.3    87  LYS87       0.0038
     53  CD       -49.8600    7.6180  147.6080 C.3    87  LYS87       0.0206
     54  CE       -49.5110    9.0140  148.1000 C.3    87  LYS87       0.1093
     55  NZ       -48.0430    9.2430  148.1070 N.3    87  LYS87      -0.1314
     56  N        -54.1690    7.1480  145.2130 N.am   88  HIS88      -0.1973
     57  CA       -54.8570    8.2860  144.6260 C.3    88  HIS88       0.1656
     58  C        -56.2910    7.9400  144.2300 C.2    88  HIS88       0.2291
     59  O        -56.9890    8.7520  143.6240 O.2    88  HIS88      -0.2864
     60  CB       -54.0750    8.8010  143.4190 C.3    88  HIS88       0.0771
     61  CG       -52.6470    9.1210  143.7360 C.ar   88  HIS88       0.0820
     62  ND1      -51.5860    8.4340  143.1860 N.ar   88  HIS88      -0.2267
     63  CD2      -52.1110   10.0440  144.5670 C.ar   88  HIS88       0.1154
     64  CE1      -50.4530    8.9290  143.6590 C.ar   88  HIS88       0.1986
     65  NE2      -50.7470    9.9050  144.5000 N.ar   88  HIS88      -0.2212
     66  N        -45.0940   -7.0690  152.5740 N.3   128  PRO128     -0.2102
     67  CA       -45.0910   -5.7040  153.0860 C.3   128  PRO128      0.1504
     68  C        -44.8090   -4.6570  152.0330 C.2   128  PRO128      0.2576
     69  O        -44.1410   -4.9290  151.0230 O.2   128  PRO128     -0.2718
     70  CB       -43.9800   -5.7230  154.1500 C.3   128  PRO128      0.0282
     71  CG       -43.9260   -7.1340  154.5800 C.3   128  PRO128      0.0208
     72  CD       -44.2210   -7.9500  153.3570 C.3   128  PRO128      0.0893
     73  N        -45.3720   -3.4790  152.2900 N.am  129  ASN129     -0.1961
     74  CA       -45.2430   -2.2710  151.4810 C.3   129  ASN129      0.1819
     75  C        -45.9050   -2.3090  150.0930 C.2   129  ASN129      0.2621
     76  O        -45.6790   -1.4100  149.3010 O.2   129  ASN129     -0.2715
     77  CB       -43.7690   -1.8960  151.3490 C.3   129  ASN129      0.1195
     78  CG       -43.1070   -1.7270  152.7040 C.2   129  ASN129      0.2630
     79  OD1      -43.6700   -1.0830  153.5850 O.2   129  ASN129     -0.2716
     80  ND2      -41.9250   -2.3100  152.8820 N.am  129  ASN129     -0.0877
     81  N        -46.7330   -3.3100  149.7940 N.am  130  VAL130     -0.1963
     82  CA       -47.4000   -3.2930  148.4860 C.3   130  VAL130      0.1727
     83  C        -48.6560   -2.4280  148.4470 C.2   130  VAL130      0.2617
     84  O        -49.1890   -2.1940  147.3520 O.2   130  VAL130     -0.2715
     85  CB       -47.8130   -4.7110  147.9720 C.3   130  VAL130      0.0290
     86  CG1      -46.6160   -5.5040  147.5540 C.3   130  VAL130      0.0023
     87  CG2      -48.7150   -5.4570  148.9870 C.3   130  VAL130      0.0023
     88  N        -49.1260   -1.9680  149.6130 N.am  131  GLY131     -0.1940
     89  CA       -50.2580   -1.0470  149.6890 C.3   131  GLY131      0.2014
     90  C        -51.5290   -1.5970  150.3320 C.2   131  GLY131      0.2639
     91  O        -52.6430   -1.0940  150.0910 O.2   131  GLY131     -0.2714
     92  N        -51.3790   -2.6280  151.1530 N.am  132  LYS132     -0.1963
     93  CA       -52.5480   -3.3030  151.7350 C.3   132  LYS132      0.1728
     94  C        -53.3570   -2.3870  152.6680 C.2   132  LYS132      0.2617
     95  O        -54.5870   -2.2810  152.5360 O.2   132  LYS132     -0.2715
     96  CB       -52.0960   -4.5810  152.4580 C.3   132  LYS132      0.0311
     97  CG       -51.4270   -5.6040  151.5050 C.3   132  LYS132      0.0038
     98  CD       -50.9480   -6.8860  152.2160 C.3   132  LYS132      0.0206
     99  CE       -50.0420   -6.5920  153.4270 C.3   132  LYS132      0.1093
    100  NZ       -48.7320   -5.9780  153.0070 N.3   132  LYS132     -0.1314
    101  N        -52.6830   -1.6880  153.5770 N.am  133  SER133     -0.1936
    102  CA       -53.4070   -0.8230  154.5190 C.3   133  SER133      0.2055
    103  C        -53.9890    0.3890  153.7920 C.2   133  SER133      0.2643
    104  O        -55.0950    0.8520  154.1100 O.2   133  SER133     -0.2714
    105  CB       -52.5000   -0.3640  155.6560 C.3   133  SER133      0.2130
    106  OG       -51.2900    0.1680  155.1400 O.3   133  SER133     -0.2179
    107  N        -53.2360    0.9050  152.8240 N.am  134  THR134     -0.1950
    108  CA       -53.7290    1.9560  151.9420 C.3   134  THR134      0.1897
    109  C        -55.0320    1.5490  151.2400 C.2   134  THR134      0.2313
    110  O        -56.0050    2.3160  151.2040 O.2   134  THR134     -0.2863
    111  CB       -52.6850    2.3200  150.8670 C.3   134  THR134      0.1794
    112  OG1      -51.4540    2.7010  151.4990 O.3   134  THR134     -0.2208
    113  CG2      -53.1900    3.4580  150.0030 C.3   134  THR134      0.0378
    114  N        -55.0840   -7.0420  157.0350 N.3   169  PRO169     -0.2116
    115  CA       -54.5090   -7.8210  155.9290 C.3   169  PRO169      0.1372
    116  C        -53.7550   -9.0450  156.4220 C.2   169  PRO169      0.2244
    117  O        -53.4140   -9.1170  157.6040 O.2   169  PRO169     -0.2868
    118  CB       -53.5560   -6.8330  155.2600 C.3   169  PRO169      0.0268
    119  CG       -53.1970   -5.8470  156.3490 C.3   169  PRO169      0.0207
    120  CD       -54.2580   -5.8750  157.3980 C.3   169  PRO169      0.0892
    121  N        -50.2270  -10.6270  156.1490 N.3   171  ILE171     -0.1245
    122  CA       -48.8920  -10.2120  155.7360 C.3   171  ILE171      0.1561
    123  C        -47.9900  -11.4330  155.5830 C.2   171  ILE171      0.2260
    124  O        -47.7860  -12.1870  156.5350 O.2   171  ILE171     -0.2867
    125  CB       -48.2630   -9.2190  156.7530 C.3   171  ILE171      0.0252
    126  CG1      -49.2480   -8.0870  157.0380 C.3   171  ILE171      0.0019
    127  CG2      -46.9580   -8.6540  156.2040 C.3   171  ILE171      0.0019
    128  CD1      -48.8000   -7.0870  158.0700 C.3   171  ILE171      0.0001
@<TRIPOS>BOND
     1    21    20    2
     2    29    28    2
     3    28    27    1
     4    20    19    1
     5    20    26   am
     6    19    18    1
     7    19    22    1
     8    27    26    1
     9    27    30    1
    10    22    23    1
    11    12    11    2
    12    30    31    1
    13    11    10    1
    14    23    24   ar
    15    23    25   ar
    16    31    32    1
    17    38    35    1
    18    38    39    1
    19    34    35    1
    20    41    39   ar
    21     4     3    2
    22    10     9    1
    23    10    13    1
    24     1     2    1
    25    35    36    1
    26    39    40   ar
    27     3     9   am
    28     3     2    1
    29    33    32    1
    30    13    14    1
    31     2     5    1
    32    62    64   ar
    33    62    61   ar
    34    60    61    1
    35    60    57    1
    36    59    58    2
    37    36    37    2
    38    36    42   am
    39    64    65   ar
    40    61    63   ar
    41    58    57    1
    42    14    15    1
    43     5     6    1
    44    65    63   ar
    45    42    43    1
    46    57    56    1
    47     7     6    2
    48    15    16    1
    49     6     8   am
    50    56    49   am
    51    43    44    1
    52    43    46    1
    53    47    44   am
    54    47    48    1
    55    49    48    1
    56    49    50    2
    57    16    17    1
    58    44    45    2
    59    51    48    1
    60    51    52    1
    61    84    83    2
    62    86    85    1
    63    53    52    1
    64    53    54    1
    65    85    82    1
    66    85    87    1
    67    54    55    1
    68    83    82    1
    69    83    88   am
    70    82    81    1
    71    76    75    2
    72    88    89    1
    73    89    90    1
    74    81    75   am
    75   113   111    1
    76    91    90    2
    77    75    74    1
    78    90    92   am
    79   111   112    1
    80   111   108    1
    81    69    68    2
    82    92    93    1
    83   110   109    2
    84   109   108    1
    85    77    74    1
    86    77    78    1
    87    74    73    1
    88    97    98    1
    89    97    96    1
    90    93    96    1
    91    93    94    1
    92   108   107    1
    93    68    73   am
    94    68    67    1
    95    98    99    1
    96    95    94    2
    97    66    67    1
    98    66    72    1
    99    94   101   am
   100    78    80   am
   101    78    79    2
   102   107   103   am
   103   100    99    1
   104    67    70    1
   105    72    71    1
   106   101   102    1
   107   103   104    2
   108   103   102    1
   109    70    71    1
   110   102   105    1
   111   106   105    1
   112   118   115    1
   113   118   119    1
   114   123   122    1
   115   123   124    2
   116   122   121    1
   117   122   125    1
   118   115   116    1
   119   115   114    1
   120   127   125    1
   121   119   120    1
   122   116   117    2
   123   125   126    1
   124   114   120    1
   125   126   128    1
