@<TRIPOS>MOLECULE
tmp/6g15B00.pdb
 152 147 0 0 0
SMALL
GASTEIGER

@<TRIPOS>ATOM
      1  N         -5.9360   -2.2300  -34.3640 N.3     1  VAL1       -0.1231
      2  CA        -4.8730   -3.2100  -34.5230 C.3     1  VAL1        0.1692
      3  C         -5.2040   -4.4730  -33.7370 C.2     1  VAL1        0.2591
      4  O         -5.6840   -4.3930  -32.6070 O.2     1  VAL1       -0.2718
      5  CB        -3.5280   -2.6430  -34.0570 C.3     1  VAL1        0.0266
      6  CG1       -2.3850   -3.4970  -34.5600 C.3     1  VAL1        0.0020
      7  CG2       -3.3640   -1.2130  -34.5350 C.3     1  VAL1        0.0020
      8  N         -4.9630   -5.6340  -34.3470 N.am    2  ILE2       -0.1980
      9  CA        -5.2940   -6.9130  -33.7200 C.3     2  ILE2        0.1595
     10  C         -4.0810   -7.8350  -33.6350 C.2     2  ILE2        0.2287
     11  O         -3.3980   -8.0830  -34.6270 O.2     2  ILE2       -0.2864
     12  CB        -6.3960   -7.6520  -34.4820 C.3     2  ILE2        0.0276
     13  CG1       -7.7690   -7.0350  -34.2250 C.3     2  ILE2        0.0022
     14  CG2       -6.4030   -9.1030  -34.0830 C.3     2  ILE2        0.0022
     15  CD1       -8.8800   -7.7830  -34.9170 C.3     2  ILE2        0.0001
     16  N        -15.1280   -3.5530  -51.3350 N.3    57  ASN57      -0.1225
     17  CA       -15.2600   -2.2370  -50.7360 C.3    57  ASN57       0.1785
     18  C        -14.0800   -1.3340  -51.1320 C.2    57  ASN57       0.2597
     19  O        -13.0720   -1.8240  -51.6410 O.2    57  ASN57      -0.2718
     20  CB       -15.3580   -2.3630  -49.2220 C.3    57  ASN57       0.1169
     21  CG       -15.7570   -1.0630  -48.5590 C.2    57  ASN57       0.2627
     22  OD1      -16.5770   -0.3200  -49.0870 O.2    57  ASN57      -0.2716
     23  ND2      -15.1600   -0.7740  -47.4030 N.am   57  ASN57      -0.0877
     24  N        -14.2100   -0.0290  -50.8900 N.am   58  LYS58      -0.1980
     25  CA       -13.2070    0.9640  -51.3180 C.3    58  LYS58       0.1596
     26  C        -13.0420    0.9800  -52.8370 C.2    58  LYS58       0.2287
     27  O        -11.9420    1.1490  -53.3480 O.2    58  LYS58      -0.2864
     28  CB       -11.8530    0.7250  -50.6290 C.3    58  LYS58       0.0298
     29  CG       -11.9780    0.4580  -49.1220 C.3    58  LYS58       0.0038
     30  CD       -10.6270    0.5070  -48.4150 C.3    58  LYS58       0.0206
     31  CE       -10.7840    0.3630  -46.8970 C.3    58  LYS58       0.1093
     32  NZ        -9.4660    0.3780  -46.1320 N.3    58  LYS58      -0.1314
     33  N        -13.7580    3.1950  -54.7370 N.3    60  ASP60      -0.1225
     34  CA       -13.3320    4.5410  -55.1200 C.3    60  ASP60       0.1805
     35  C        -11.8060    4.6610  -55.2160 C.2    60  ASP60       0.2597
     36  O        -11.2970    5.5690  -55.8680 O.2    60  ASP60      -0.2718
     37  CB       -13.8920    5.5940  -54.1390 C.3    60  ASP60       0.1424
     38  CG       -13.5290    5.3160  -52.6780 C.2    60  ASP60       0.3668
     39  OD1      -13.7930    4.1990  -52.1790 O.co2  60  ASP60      -0.2456
     40  OD2      -12.9930    6.2240  -52.0000 O.co2  60  ASP60      -0.2456
     41  N        -11.0950    3.7290  -54.5860 N.am   61  MET61      -0.1979
     42  CA        -9.6290    3.7470  -54.5580 C.3    61  MET61       0.1605
     43  C         -8.9910    2.7110  -55.4890 C.2    61  MET61       0.2287
     44  O         -7.7700    2.5400  -55.4930 O.2    61  MET61      -0.2864
     45  CB        -9.1250    3.4970  -53.1360 C.3    61  MET61       0.0413
     46  CG        -9.6090    4.4800  -52.0710 C.3    61  MET61       0.0598
     47  SD        -9.0170    3.9900  -50.4380 S.3    61  MET61      -0.1393
     48  CE        -7.3720    4.7190  -50.4640 C.3    61  MET61       0.0692
     49  N        -18.5970    1.8490  -52.2340 N.3    85  ASP85      -0.1225
     50  CA       -17.7890    2.7780  -51.4590 C.3    85  ASP85       0.1805
     51  C        -18.5130    2.9920  -50.1340 C.2    85  ASP85       0.2598
     52  O        -19.4680    3.7610  -50.0750 O.2    85  ASP85      -0.2718
     53  CB       -17.6080    4.1030  -52.2100 C.3    85  ASP85       0.1424
     54  CG       -16.8850    5.1680  -51.3910 C.2    85  ASP85       0.3668
     55  OD1      -16.6990    5.0160  -50.1670 O.co2  85  ASP85      -0.2456
     56  OD2      -16.5230    6.1950  -51.9920 O.co2  85  ASP85      -0.2456
     57  N        -18.0780    2.3110  -49.0800 N.am   86  ALA86      -0.1966
     58  CA       -18.8180    2.3590  -47.8180 C.3    86  ALA86       0.1728
     59  C        -18.6620    3.7170  -47.1380 C.2    86  ALA86       0.2616
     60  O        -19.5110    4.1350  -46.3420 O.2    86  ALA86      -0.2715
     61  CB       -18.3660    1.2510  -46.8870 C.3    86  ALA86       0.0334
     62  N        -17.5730    4.4090  -47.4440 N.am   87  LYS87      -0.1963
     63  CA       -17.3140    5.6770  -46.7720 C.3    87  LYS87       0.1728
     64  C        -18.1840    6.7930  -47.3180 C.2    87  LYS87       0.2616
     65  O        -18.8050    7.5330  -46.5560 O.2    87  LYS87      -0.2715
     66  CB       -15.8410    6.0620  -46.8910 C.3    87  LYS87       0.0311
     67  CG       -15.5320    7.4020  -46.2360 C.3    87  LYS87       0.0038
     68  CD       -14.0400    7.6780  -46.2390 C.3    87  LYS87       0.0206
     69  CE       -13.7230    8.9440  -45.4560 C.3    87  LYS87       0.1093
     70  NZ       -12.2620    9.1320  -45.2710 N.3    87  LYS87      -0.1314
     71  N        -18.2390    6.9150  -48.6390 N.am   88  HIS88      -0.1973
     72  CA       -18.9730    8.0130  -49.2620 C.3    88  HIS88       0.1656
     73  C        -20.3810    7.6080  -49.6920 C.2    88  HIS88       0.2291
     74  O        -21.1160    8.4080  -50.2650 O.2    88  HIS88      -0.2864
     75  CB       -18.1660    8.5750  -50.4330 C.3    88  HIS88       0.0771
     76  CG       -16.7390    8.8490  -50.0750 C.ar   88  HIS88       0.0820
     77  ND1      -15.7110    7.9910  -50.4060 N.ar   88  HIS88      -0.2267
     78  CD2      -16.1770    9.8480  -49.3550 C.ar   88  HIS88       0.1154
     79  CE1      -14.5730    8.4670  -49.9280 C.ar   88  HIS88       0.1986
     80  NE2      -14.8290    9.5930  -49.2850 N.ar   88  HIS88      -0.2212
     81  N         -9.0560   -7.5450  -40.9570 N.3   128  PRO128     -0.2102
     82  CA        -9.1460   -6.1890  -40.4030 C.3   128  PRO128      0.1504
     83  C         -8.8890   -5.0710  -41.4300 C.2   128  PRO128      0.2576
     84  O         -8.1790   -5.2920  -42.4240 O.2   128  PRO128     -0.2718
     85  CB        -8.0510   -6.1950  -39.3090 C.3   128  PRO128      0.0282
     86  CG        -7.8770   -7.6420  -38.9670 C.3   128  PRO128      0.0208
     87  CD        -8.0390   -8.3620  -40.2760 C.3   128  PRO128      0.0893
     88  N         -9.4890   -3.9070  -41.1810 N.am  129  ASN129     -0.1961
     89  CA        -9.2860   -2.6570  -41.9200 C.3   129  ASN129      0.1819
     90  C         -9.8630   -2.5820  -43.3380 C.2   129  ASN129      0.2621
     91  O         -9.6220   -1.6210  -44.0600 O.2   129  ASN129     -0.2715
     92  CB        -7.7930   -2.3250  -41.9820 C.3   129  ASN129      0.1195
     93  CG        -7.2070   -2.0960  -40.6130 C.2   129  ASN129      0.2630
     94  OD1       -6.2370   -2.7500  -40.2140 O.2   129  ASN129     -0.2716
     95  ND2       -7.8050   -1.1710  -39.8710 N.am  129  ASN129     -0.0877
     96  N        -10.6880   -3.5420  -43.7150 N.am  130  VAL130     -0.1963
     97  CA       -11.2660   -3.5070  -45.0610 C.3   130  VAL130      0.1727
     98  C        -12.5520   -2.6910  -45.1170 C.2   130  VAL130      0.2617
     99  O        -13.0530   -2.4000  -46.2030 O.2   130  VAL130     -0.2715
    100  CB       -11.5160   -4.9320  -45.5880 C.3   130  VAL130      0.0290
    101  CG1      -10.1800   -5.6680  -45.7280 C.3   130  VAL130      0.0023
    102  CG2      -12.4890   -5.6780  -44.6730 C.3   130  VAL130      0.0023
    103  N        -13.0680   -2.2800  -43.9590 N.am  131  GLY131     -0.1940
    104  CA       -14.2230   -1.3970  -43.9260 C.3   131  GLY131      0.2014
    105  C        -15.5050   -1.9670  -43.3300 C.2   131  GLY131      0.2639
    106  O        -16.5820   -1.4480  -43.5850 O.2   131  GLY131     -0.2714
    107  N        -15.3890   -3.0250  -42.5350 N.am  132  LYS132     -0.1963
    108  CA       -16.5790   -3.6930  -41.9930 C.3   132  LYS132      0.1728
    109  C        -17.4270   -2.7860  -41.0980 C.2   132  LYS132      0.2617
    110  O        -18.6490   -2.6880  -41.2810 O.2   132  LYS132     -0.2715
    111  CB       -16.1620   -4.9610  -41.2480 C.3   132  LYS132      0.0311
    112  CG       -15.3510   -5.9080  -42.1230 C.3   132  LYS132      0.0038
    113  CD       -15.0040   -7.2360  -41.4550 C.3   132  LYS132      0.0206
    114  CE       -14.1900   -7.0390  -40.1940 C.3   132  LYS132      0.1093
    115  NZ       -12.8810   -6.3850  -40.4810 N.3   132  LYS132     -0.1314
    116  N        -16.8010   -2.1310  -40.1260 N.am  133  SER133     -0.1936
    117  CA       -17.5490   -1.2750  -39.2070 C.3   133  SER133      0.2055
    118  C        -18.0910   -0.0470  -39.9320 C.2   133  SER133      0.2643
    119  O        -19.1830    0.4200  -39.6220 O.2   133  SER133     -0.2714
    120  CB       -16.6850   -0.8560  -38.0090 C.3   133  SER133      0.2130
    121  OG       -15.5430   -0.1230  -38.4130 O.3   133  SER133     -0.2179
    122  N        -17.3400    0.4630  -40.9080 N.am  134  THR134     -0.1950
    123  CA       -17.8170    1.5630  -41.7470 C.3   134  THR134      0.1897
    124  C        -19.0990    1.1880  -42.5110 C.2   134  THR134      0.2313
    125  O        -20.0720    1.9480  -42.5330 O.2   134  THR134     -0.2863
    126  CB       -16.7420    2.0180  -42.7700 C.3   134  THR134      0.1794
    127  OG1      -15.5610    2.4320  -42.0760 O.3   134  THR134     -0.2208
    128  CG2      -17.2620    3.1670  -43.6150 C.3   134  THR134      0.0378
    129  N        -19.2880   -7.5040  -36.8080 N.3   169  PRO169     -0.2116
    130  CA       -18.6360   -8.3140  -37.8430 C.3   169  PRO169      0.1372
    131  C        -17.8720   -9.5170  -37.2930 C.2   169  PRO169      0.2244
    132  O        -17.5640   -9.5900  -36.1010 O.2   169  PRO169     -0.2868
    133  CB       -17.6620   -7.3270  -38.5030 C.3   169  PRO169      0.0268
    134  CG       -17.3360   -6.3420  -37.4220 C.3   169  PRO169      0.0207
    135  CD       -18.5690   -6.2420  -36.5410 C.3   169  PRO169      0.0892
    136  N        -14.3730  -11.1360  -37.4430 N.3   171  ILE171     -0.1245
    137  CA       -13.0280  -10.7090  -37.8370 C.3   171  ILE171      0.1561
    138  C        -12.0920  -11.9010  -37.9490 C.2   171  ILE171      0.2260
    139  O        -11.9540  -12.6860  -37.0070 O.2   171  ILE171     -0.2867
    140  CB       -12.4720   -9.6720  -36.8590 C.3   171  ILE171      0.0252
    141  CG1      -13.4450   -8.4950  -36.7730 C.3   171  ILE171      0.0019
    142  CG2      -11.0950   -9.1910  -37.3220 C.3   171  ILE171      0.0019
    143  CD1      -13.0930   -7.4540  -35.7480 C.3   171  ILE171      0.0001
    144  N         -0.3970   -2.4540  -41.1510 N.3   192  LYS192     -0.1245
    145  CA         0.6160   -1.4290  -40.9300 C.3   192  LYS192      0.1561
    146  C          1.6190   -1.9660  -39.9240 C.2   192  LYS192      0.2260
    147  O          2.0970   -1.2430  -39.0470 O.2   192  LYS192     -0.2867
    148  CB        -0.0150   -0.1220  -40.4550 C.3   192  LYS192      0.0271
    149  CG        -0.8770    0.5410  -41.5190 C.3   192  LYS192      0.0035
    150  CD        -1.4030    1.8880  -41.0670 C.3   192  LYS192      0.0206
    151  CE        -2.5030    2.3780  -41.9960 C.3   192  LYS192      0.1093
    152  NZ        -2.8480    3.8040  -41.7410 N.3   192  LYS192     -0.1314
@<TRIPOS>BOND
     1    36    35    2
     2    44    43    2
     3    43    42    1
     4    35    34    1
     5    35    41   am
     6    34    33    1
     7    34    37    1
     8    41    42    1
     9    42    45    1
    10    37    38    1
    11    27    26    2
    12    45    46    1
    13    26    25    1
    14    38    39   ar
    15    38    40   ar
    16    49    50    1
    17    53    50    1
    18    53    54    1
    19    46    47    1
    20    56    54   ar
    21    19    18    2
    22    50    51    1
    23    54    55   ar
    24    16    17    1
    25    25    24    1
    26    25    28    1
    27    18    24   am
    28    18    17    1
    29    17    20    1
    30    28    29    1
    31    48    47    1
    32    75    76    1
    33    75    72    1
    34    77    76   ar
    35    77    79   ar
    36    74    73    2
    37    51    52    2
    38    51    57   am
    39    76    78   ar
    40    79    80   ar
    41    73    72    1
    42    78    80   ar
    43    72    71    1
    44    20    21    1
    45    29    30    1
    46    22    21    2
    47    57    58    1
    48    71    64   am
    49    21    23   am
    50    30    31    1
    51    58    59    1
    52    58    61    1
    53    62    59   am
    54    62    63    1
    55    64    63    1
    56    64    65    2
    57    59    60    2
    58    31    32    1
    59    66    63    1
    60    66    67    1
    61    68    67    1
    62    68    69    1
    63    99    98    2
    64   101   100    1
    65   100    97    1
    66   100   102    1
    67    69    70    1
    68    98    97    1
    69    98   103   am
    70    97    96    1
    71    91    90    2
    72   103   104    1
    73   104   105    1
    74    96    90   am
    75   128   126    1
    76   106   105    2
    77    90    89    1
    78   105   107   am
    79   126   127    1
    80   126   123    1
    81   107   108    1
    82   125   124    2
    83   124   123    1
    84    84    83    2
    85   112   113    1
    86   112   111    1
    87   151   152    1
    88   151   150    1
    89   108   111    1
    90   108   109    1
    91    92    89    1
    92    92    93    1
    93    89    88    1
    94   123   122    1
    95   149   150    1
    96   149   148    1
    97   113   114    1
    98    83    88   am
    99    83    82    1
   100   110   109    2
   101   144   145    1
   102   109   116   am
   103    81    82    1
   104    81    87    1
   105   145   148    1
   106   145   146    1
   107   122   118   am
   108    93    94    2
   109    93    95   am
   110   115   114    1
   111    82    85    1
   112    87    86    1
   113   116   117    1
   114   118   119    2
   115   118   117    1
   116   146   147    2
   117    85    86    1
   118   117   120    1
   119   133   130    1
   120   133   134    1
   121   121   120    1
   122   138   137    1
   123   138   139    2
   124   130   131    1
   125   130   129    1
   126   137   136    1
   127   137   140    1
   128   134   135    1
   129   142   140    1
   130   131   132    2
   131   140   141    1
   132   129   135    1
   133   141   143    1
   134    15    13    1
   135    11    10    2
   136     6     5    1
   137     7     5    1
   138     2     1    1
   139     2     5    1
   140     2     3    1
   141    12    13    1
   142    12    14    1
   143    12     9    1
   144     8     3   am
   145     8     9    1
   146     3     4    2
   147     9    10    1
