@<TRIPOS>MOLECULE
tmp/6g19A00.pdb
 137 128 0 0 0
SMALL
GASTEIGER

@<TRIPOS>ATOM
      1  N         84.3030  143.5060  125.9570 N.3     2  GLN2       -0.1245
      2  CA        83.7200  144.4140  124.9870 C.3     2  GLN2        0.1566
      3  C         83.8070  143.8420  123.5870 C.2     2  GLN2        0.2260
      4  O         84.6870  143.0390  123.2660 O.2     2  GLN2       -0.2867
      5  CB        84.4160  145.7670  125.0000 C.3     2  GLN2        0.0367
      6  CG        84.2390  146.5340  126.2900 C.3     2  GLN2        0.0905
      7  CD        82.7870  146.8880  126.5650 C.2     2  GLN2        0.2608
      8  OE1       82.1620  146.3410  127.4740 O.2     2  GLN2       -0.2717
      9  NE2       82.2410  147.7940  125.7680 N.am    2  GLN2       -0.0878
     10  N         84.0150  144.9430  119.7780 N.3     4  ARG4       -0.1245
     11  CA        84.2910  146.0480  118.8840 C.3     4  ARG4        0.1563
     12  C         83.4040  145.9600  117.6440 C.2     4  ARG4        0.2260
     13  O         82.8550  144.8990  117.3390 O.2     4  ARG4       -0.2867
     14  CB        85.7470  146.0600  118.4630 C.3     4  ARG4        0.0307
     15  CG        86.6920  146.4070  119.5640 C.3     4  ARG4        0.0489
     16  CD        88.0900  146.4810  118.9920 C.3     4  ARG4        0.2205
     17  NE        89.1610  146.6530  119.9750 N.pl3   4  ARG4       -0.0865
     18  CZ        89.6160  147.8120  120.4380 C.cat   4  ARG4        0.5346
     19  NH1       89.0890  148.9790  120.0460 N.pl3   4  ARG4        0.1354
     20  NH2       90.6090  147.7930  121.3290 N.pl3   4  ARG4        0.1354
     21  N         85.5170  143.8050  114.8670 N.3     7  GLN7       -0.1245
     22  CA        85.7010  142.4230  115.2740 C.3     7  GLN7        0.1566
     23  C         84.4080  141.6360  115.1510 C.2     7  GLN7        0.2260
     24  O         84.4300  140.4170  114.9270 O.2     7  GLN7       -0.2867
     25  CB        86.2120  142.3780  116.6990 C.3     7  GLN7        0.0367
     26  CG        87.5850  142.9230  116.8410 C.3     7  GLN7        0.0905
     27  CD        88.0690  142.8230  118.2360 C.2     7  GLN7        0.2608
     28  OE1       87.3410  142.4180  119.1380 O.2     7  GLN7       -0.2717
     29  NE2       89.3060  143.1860  118.4340 N.am    7  GLN7       -0.0878
     30  N         94.9350  142.3440  111.2160 N.3    25  PRO25      -0.2102
     31  CA        96.2550  142.9000  111.5160 C.3    25  PRO25       0.1504
     32  C         96.6680  142.6620  112.9520 C.2    25  PRO25       0.2576
     33  O         95.9120  142.1130  113.7610 O.2    25  PRO25      -0.2718
     34  CB        96.0820  144.3910  111.2340 C.3    25  PRO25       0.0282
     35  CG        94.9640  144.4670  110.2770 C.3    25  PRO25       0.0208
     36  CD        94.0270  143.3800  110.7000 C.3    25  PRO25       0.0893
     37  N         97.8770  143.0950  113.2740 N.am   26  THR26      -0.1939
     38  CA        98.4360  142.9170  114.5980 C.3    26  THR26       0.2028
     39  C         97.9250  143.9850  115.5540 C.2    26  THR26       0.2643
     40  O         97.7650  145.1510  115.1880 O.2    26  THR26      -0.2714
     41  CB        99.9560  142.9540  114.4990 C.3    26  THR26       0.1808
     42  OG1      100.3810  141.9740  113.5520 O.3    26  THR26      -0.2208
     43  CG2      100.6000  142.6370  115.8110 C.3    26  THR26       0.0379
     44  N         97.6780  143.5760  116.7990 N.am   27  GLY27      -0.1939
     45  CA        97.1630  144.4850  117.8100 C.3    27  GLY27       0.2014
     46  C         95.6970  144.7740  117.7490 C.2    27  GLY27       0.2640
     47  O         95.2290  145.6650  118.4810 O.2    27  GLY27      -0.2714
     48  N         94.9420  144.0360  116.9450 N.am   28  SER28      -0.1935
     49  CA        93.5480  144.3520  116.7050 C.3    28  SER28       0.2055
     50  C         92.6050  143.6240  117.6490 C.2    28  SER28       0.2644
     51  O         91.4020  143.6100  117.3990 O.2    28  SER28      -0.2714
     52  CB        93.2200  143.9420  115.2760 C.3    28  SER28       0.2130
     53  OG        93.2440  142.5480  115.1650 O.3    28  SER28      -0.2179
     54  N         93.1240  143.0150  118.7140 N.am   29  GLY29      -0.1939
     55  CA        92.2990  142.3490  119.6830 C.3    29  GLY29       0.2014
     56  C         91.8950  140.9710  119.2300 C.2    29  GLY29       0.2639
     57  O         90.7140  140.6110  119.1740 O.2    29  GLY29      -0.2714
     58  N         92.9090  140.1800  118.9210 N.am   30  LYS30      -0.1963
     59  CA        92.7220  138.8350  118.4090 C.3    30  LYS30       0.1728
     60  C         92.2780  137.8900  119.5180 C.2    30  LYS30       0.2617
     61  O         91.2950  137.1420  119.3780 O.2    30  LYS30      -0.2715
     62  CB        94.0440  138.3960  117.7870 C.3    30  LYS30       0.0311
     63  CG        94.0400  137.0590  117.1550 C.3    30  LYS30       0.0038
     64  CD        95.3530  136.7380  116.4330 C.3    30  LYS30       0.0206
     65  CE        96.3780  136.0610  117.3290 C.3    30  LYS30       0.1093
     66  NZ        97.1800  137.0140  118.1090 N.3    30  LYS30      -0.1314
     67  N         92.9830  137.9360  120.6410 N.am   31  THR31      -0.1937
     68  CA        92.6300  137.0870  121.7630 C.3    31  THR31       0.2028
     69  C         91.2280  137.3980  122.2490 C.2    31  THR31       0.2642
     70  O         90.4780  136.4930  122.6140 O.2    31  THR31      -0.2714
     71  CB        93.6340  137.2730  122.8910 C.3    31  THR31       0.1808
     72  OG1       93.6190  138.6350  123.3290 O.3    31  THR31      -0.2208
     73  CG2       95.0210  136.9210  122.4280 C.3    31  THR31       0.0379
     74  N         90.8390  138.6670  122.2160 N.am   32  ARG32      -0.1977
     75  CA        89.5560  139.0450  122.7850 C.3    32  ARG32       0.1597
     76  C         88.4040  138.5400  121.9340 C.2    32  ARG32       0.2287
     77  O         87.3720  138.1080  122.4660 O.2    32  ARG32      -0.2864
     78  CB        89.4990  140.5550  122.9410 C.3    32  ARG32       0.0334
     79  CG        88.2340  141.0980  123.5850 C.3    32  ARG32       0.0492
     80  CD        88.0780  140.7030  125.0130 C.3    32  ARG32       0.2205
     81  NE        89.1860  141.1770  125.8320 N.pl3  32  ARG32      -0.0865
     82  CZ        89.2840  142.3940  126.3650 C.cat  32  ARG32       0.5346
     83  NH1       88.3410  143.3130  126.1900 N.pl3  32  ARG32       0.1354
     84  NH2       90.3440  142.6840  127.1000 N.pl3  32  ARG32       0.1354
     85  N         93.4620  137.0600  129.5290 N.3    71  GLU71      -0.1245
     86  CA        92.3020  137.1610  128.6550 C.3    71  GLU71       0.1567
     87  C         91.1910  136.1920  129.0130 C.2    71  GLU71       0.2260
     88  O         90.0440  136.6160  129.1880 O.2    71  GLU71      -0.2867
     89  CB        92.7400  136.9330  127.2140 C.3    71  GLU71       0.0388
     90  CG        93.6730  137.9970  126.6870 C.3    71  GLU71       0.1160
     91  CD        93.0060  139.3500  126.5440 C.2    71  GLU71       0.3649
     92  OE1       91.7770  139.3910  126.3340 O.co2  71  GLU71      -0.2457
     93  OE2       93.7130  140.3750  126.6310 O.co2  71  GLU71      -0.2457
     94  N         97.6970  136.5120  112.0870 N.3   180  ALA180     -0.1245
     95  CA        97.9380  137.8490  111.5800 C.3   180  ALA180      0.1562
     96  C         97.9930  137.8760  110.0680 C.2   180  ALA180      0.2260
     97  O         97.4440  138.7840  109.4390 O.2   180  ALA180     -0.2867
     98  CB        99.2500  138.3870  112.1260 C.3   180  ALA180      0.0290
     99  N        104.6890  138.2920  124.7340 N.3   463  ASP463     -0.1239
    100  CA       104.0110  139.5770  124.6000 C.3   463  ASP463      0.1674
    101  C        104.8720  140.6990  125.1720 C.2   463  ASP463      0.2266
    102  O        104.7850  141.0370  126.3520 O.2   463  ASP463     -0.2867
    103  CB       102.6490  139.5030  125.2740 C.3   463  ASP463      0.1410
    104  CG       101.6750  138.6060  124.5200 C.2   463  ASP463      0.3668
    105  OD1      101.8020  138.4890  123.2820 O.co2 463  ASP463     -0.2456
    106  OD2      100.7820  138.0150  125.1640 O.co2 463  ASP463     -0.2456
    107  N        104.4300  147.5270  123.6410 N.3   466  GLU466     -0.1245
    108  CA       104.5160  148.2430  122.3690 C.3   466  GLU466      0.1567
    109  C        105.7340  149.1600  122.3320 C.2   466  GLU466      0.2260
    110  O        106.1440  149.7140  123.3520 O.2   466  GLU466     -0.2867
    111  CB       103.2480  149.0610  122.1240 C.3   466  GLU466      0.0388
    112  CG       101.9880  148.2390  121.9060 C.3   466  GLU466      0.1160
    113  CD       101.3240  147.8580  123.2040 C.2   466  GLU466      0.3649
    114  OE1      101.8620  148.2410  124.2620 O.co2 466  GLU466     -0.2457
    115  OE2      100.2640  147.1990  123.1780 O.co2 466  GLU466     -0.2457
    116  N        104.8100  145.5360  115.8070 N.3   488  ARG488     -0.1245
    117  CA       105.1530  145.8880  117.1760 C.3   488  ARG488      0.1563
    118  C        104.9390  147.3700  117.4360 C.2   488  ARG488      0.2260
    119  O        104.4130  147.7530  118.4840 O.2   488  ARG488     -0.2867
    120  CB       106.6100  145.5360  117.4680 C.3   488  ARG488      0.0307
    121  CG       106.9590  144.0780  117.3480 C.3   488  ARG488      0.0489
    122  CD       106.3330  143.2670  118.4510 C.3   488  ARG488      0.2205
    123  NE       106.7330  141.8700  118.4100 N.pl3 488  ARG488     -0.0865
    124  CZ       106.2610  140.9410  119.2300 C.cat 488  ARG488      0.5346
    125  NH1      105.3780  141.2450  120.1660 N.pl3 488  ARG488      0.1354
    126  NH2      106.6780  139.6940  119.1210 N.pl3 488  ARG488      0.1354
    127  N        103.6370  150.5800  117.7340 N.3   490  ARG490     -0.1245
    128  CA       102.5770  151.5410  117.9880 C.3   490  ARG490      0.1563
    129  C        103.2560  152.7690  118.5740 C.2   490  ARG490      0.2260
    130  O        104.4380  152.9990  118.3060 O.2   490  ARG490     -0.2867
    131  CB       101.5120  150.9520  118.9200 C.3   490  ARG490      0.0307
    132  CG       100.8370  149.7520  118.2960 C.3   490  ARG490      0.0489
    133  CD       101.6790  148.5530  118.4630 C.3   490  ARG490      0.2205
    134  NE       101.1430  147.4610  117.6530 N.pl3 490  ARG490     -0.0865
    135  CZ       100.3900  146.5100  118.0860 C.cat 490  ARG490      0.5346
    136  NH1      100.0390  146.4630  119.3820 N.pl3 490  ARG490      0.1354
    137  NH2      100.0020  145.6250  117.1860 N.pl3 490  ARG490      0.1354
@<TRIPOS>BOND
     1    97    96    2
     2    96    95    1
     3    35    36    1
     4    35    34    1
     5    36    30    1
     6    30    31    1
     7    34    31    1
     8    31    32    1
     9    95    94    1
    10    95    98    1
    11    32    37   am
    12    32    33    2
    13    37    38    1
    14    42    41    1
    15    41    38    1
    16    41    43    1
    17    38    39    1
    18    21    22    1
    19    24    23    2
    20    23    22    1
    21    53    52    1
    22    40    39    2
    23    22    25    1
    24    52    49    1
    25    39    44   am
    26   116   117    1
    27    64    63    1
    28    64    65    1
    29    25    26    1
    30    49    48    1
    31    49    50    1
    32    44    45    1
    33    26    27    1
    34    48    46   am
    35    63    62    1
    36   117   118    1
    37   117   120    1
    38   137   135    1
    39    65    66    1
    40    13    12    2
    41   121   120    1
    42   121   122    1
    43    51    50    2
    44   118   119    2
    45    12    11    1
    46    50    54   am
    47   134   135    2
    48   134   133    1
    49   127   128    1
    50    46    45    1
    51    46    47    2
    52    62    59    1
    53   128   129    1
    54   128   131    1
    55   135   136    1
    56    27    29   am
    57    27    28    2
    58   132   133    1
    59   132   131    1
    60   130   129    2
    61    59    58    1
    62    59    60    1
    63   123   122    1
    64   123   124    2
    65    14    11    1
    66    14    15    1
    67    54    55    1
    68    11    10    1
    69    58    56   am
    70    16    15    1
    71    16    17    1
    72   126   124    1
    73    57    56    2
    74   124   125    1
    75    56    55    1
    76    61    60    2
    77    60    67   am
    78    17    18    2
    79    19    18    1
    80    18    20    1
    81    67    68    1
    82    68    69    1
    83    68    71    1
    84   112   111    1
    85   112   113    1
    86    76    77    2
    87    76    75    1
    88   111   108    1
    89    74    69   am
    90    74    75    1
    91    69    70    2
    92   109   108    1
    93   109   110    2
    94   108   107    1
    95    73    71    1
    96    75    78    1
    97    71    72    1
    98    78    79    1
    99   115   113   ar
   100   113   114   ar
   101     4     3    2
   102   105   104   ar
   103    79    80    1
   104     3     2    1
   105   104   106   ar
   106   104   103    1
   107   100    99    1
   108   100   101    1
   109   100   103    1
   110     2     5    1
   111     2     1    1
   112     5     6    1
   113    80    81    1
   114   101   102    2
   115     9     7   am
   116    81    82    2
   117    83    82    1
   118     6     7    1
   119    92    91   ar
   120    82    84    1
   121    91    93   ar
   122    91    90    1
   123     7     8    2
   124    90    89    1
   125    89    86    1
   126    86    87    1
   127    86    85    1
   128    87    88    2
