@<TRIPOS>MOLECULE
tmp/6g1gA02.pdb
 107 104 0 0 0
SMALL
GASTEIGER

@<TRIPOS>ATOM
      1  N         14.3720  -25.7640   -8.9600 N.3    77  ALA77      -0.1231
      2  CA        14.4280  -26.1960   -7.5480 C.3    77  ALA77       0.1694
      3  C         15.6050  -25.5690   -6.7980 C.2    77  ALA77       0.2592
      4  O         15.5380  -25.4680   -5.5740 O.2    77  ALA77      -0.2718
      5  CB        14.5140  -27.6920   -7.4900 C.3    77  ALA77       0.0304
      6  N         16.6860  -25.2220   -7.5200 N.am   78  SER78      -0.1952
      7  CA        17.8800  -24.5920   -6.9110 C.3    78  SER78       0.1924
      8  C         17.8260  -23.0570   -6.9250 C.2    78  SER78       0.2314
      9  O         18.7460  -22.4150   -6.4460 O.2    78  SER78      -0.2863
     10  CB        19.1770  -24.9650   -7.6750 C.3    78  SER78       0.2116
     11  OG        19.3390  -26.3380   -7.9350 O.3    78  SER78      -0.2180
     12  N         17.4610  -19.6240   -5.7740 N.3    80  ALA80      -0.1245
     13  CA        17.5770  -19.2530   -4.3560 C.3    80  ALA80       0.1562
     14  C         17.8730  -17.7670   -4.2760 C.2    80  ALA80       0.2260
     15  O         18.5630  -17.1720   -5.1110 O.2    80  ALA80      -0.2867
     16  CB        18.6530  -20.0400   -3.6910 C.3    80  ALA80       0.0290
     17  N         20.3240  -18.0890    1.0410 N.3    85  GLN85      -0.1245
     18  CA        20.0840  -18.7730   -0.2450 C.3    85  GLN85       0.1566
     19  C         18.9530  -19.7780   -0.0910 C.2    85  GLN85       0.2260
     20  O         19.0580  -20.9850   -0.3200 O.2    85  GLN85      -0.2867
     21  CB        21.3500  -19.3710   -0.8210 C.3    85  GLN85       0.0367
     22  CG        22.3600  -18.3010   -1.2340 C.3    85  GLN85       0.0905
     23  CD        21.9310  -17.6160   -2.4820 C.2    85  GLN85       0.2608
     24  OE1       22.1980  -18.1410   -3.5920 O.2    85  GLN85      -0.2717
     25  NE2       21.2170  -16.5110   -2.3590 N.am   85  GLN85      -0.0878
     26  N         15.9640  -21.6590   -1.2720 N.3    87  ALA87      -0.1245
     27  CA        15.4950  -22.1200   -2.5760 C.3    87  ALA87       0.1562
     28  C         14.0070  -22.0940   -2.7040 C.2    87  ALA87       0.2260
     29  O         13.2440  -22.1400   -1.7270 O.2    87  ALA87      -0.2867
     30  CB        15.9960  -23.5290   -2.8210 C.3    87  ALA87       0.0290
     31  N         12.0940  -24.4830   -3.3870 N.3    89  THR89      -0.1218
     32  CA        11.5090  -25.6880   -2.7700 C.3    89  THR89       0.1862
     33  C         11.0900  -25.4320   -1.3330 C.2    89  THR89       0.2287
     34  O         10.3470  -26.2470   -0.7620 O.2    89  THR89      -0.2866
     35  CB        12.4710  -26.8530   -2.8590 C.3    89  THR89       0.1770
     36  OG1       13.6900  -26.4240   -2.2430 O.3    89  THR89      -0.2211
     37  CG2       12.7150  -27.3390   -4.2630 C.3    89  THR89       0.0375
     38  N         13.3410  -24.2740    5.9290 N.3   129  HIS129     -0.1241
     39  CA        13.8000  -25.2520    4.9420 C.3   129  HIS129      0.1621
     40  C         14.9400  -26.0970    5.5060 C.2   129  HIS129      0.2264
     41  O         14.9930  -27.3180    5.3110 O.2   129  HIS129     -0.2867
     42  CB        14.1980  -24.4630    3.6940 C.3   129  HIS129      0.0745
     43  CG        14.5530  -25.2350    2.4810 C.ar  129  HIS129      0.0817
     44  ND1       13.7230  -26.1750    1.9290 N.ar  129  HIS129     -0.2268
     45  CD2       15.5760  -25.0610    1.6140 C.ar  129  HIS129      0.1154
     46  CE1       14.2460  -26.5600    0.7530 C.ar  129  HIS129      0.1986
     47  NE2       15.3580  -25.9110    0.5460 N.ar  129  HIS129     -0.2212
     48  N         15.0100  -30.4630    6.4940 N.3   133  PHE133     -0.1241
     49  CA        16.0380  -31.4920    6.2620 C.3   133  PHE133      0.1605
     50  C         16.6760  -31.9750    7.5750 C.2   133  PHE133      0.2264
     51  O         16.9830  -33.1720    7.6850 O.2   133  PHE133     -0.2867
     52  CB        17.0930  -30.9820    5.2990 C.3   133  PHE133      0.0534
     53  CG        16.5730  -30.7850    3.8820 C.ar  133  PHE133     -0.0203
     54  CD1       16.2570  -31.8720    3.0860 C.ar  133  PHE133     -0.0042
     55  CD2       16.3830  -29.5180    3.3860 C.ar  133  PHE133     -0.0042
     56  CE1       15.7570  -31.6940    1.8020 C.ar  133  PHE133     -0.0003
     57  CE2       15.8890  -29.3410    2.1020 C.ar  133  PHE133     -0.0003
     58  CZ        15.5910  -30.4400    1.3320 C.ar  133  PHE133     -0.0000
     59  N         21.1180  -31.7470    3.0480 N.3   153  GLY153     -0.1210
     60  CA        19.7960  -31.7040    2.4710 C.3   153  GLY153      0.1956
     61  C         19.4570  -30.3300    1.9570 C.2   153  GLY153      0.2612
     62  O         18.9000  -30.1620    0.8570 O.2   153  GLY153     -0.2717
     63  N         19.7420  -29.3030    2.7480 N.am  154  TYR154     -0.1962
     64  CA        19.4410  -27.9250    2.3640 C.3   154  TYR154      0.1771
     65  C         20.0810  -27.6060    0.9860 C.2   154  TYR154      0.2620
     66  O         19.4310  -27.0040    0.1210 O.2   154  TYR154     -0.2715
     67  CB        20.0010  -26.9880    3.4480 C.3   154  TYR154      0.0574
     68  CG        19.6220  -25.5330    3.2700 C.ar  154  TYR154     -0.0198
     69  CD1       18.4390  -25.0470    3.7820 C.ar  154  TYR154     -0.0009
     70  CD2       20.4440  -24.6400    2.6060 C.ar  154  TYR154     -0.0009
     71  CE1       18.1010  -23.7170    3.7080 C.ar  154  TYR154      0.0417
     72  CE2       20.0960  -23.3130    2.4980 C.ar  154  TYR154      0.0417
     73  CZ        18.9250  -22.8410    3.0540 C.ar  154  TYR154      0.1957
     74  OH        18.5310  -21.5300    2.9960 O.3   154  TYR154     -0.2866
     75  N         21.3530  -27.9520    0.8430 N.am  155  ASN155     -0.1958
     76  CA        22.0690  -27.5760   -0.3850 C.3   155  ASN155      0.1819
     77  C         21.8040  -28.4720   -1.5540 C.2   155  ASN155      0.2622
     78  O         21.8690  -28.0360   -2.7100 O.2   155  ASN155     -0.2715
     79  CB        23.5750  -27.4800   -0.0890 C.3   155  ASN155      0.1195
     80  CG        24.3970  -27.1870   -1.3520 C.2   155  ASN155      0.2630
     81  OD1       25.0370  -28.0990   -1.8780 O.2   155  ASN155     -0.2716
     82  ND2       24.3480  -25.9740   -1.8430 N.am  155  ASN155     -0.0877
     83  N         21.5670  -29.7700   -1.3140 N.am  156  THR156     -0.1937
     84  CA        21.5140  -30.7470   -2.4070 C.3   156  THR156      0.2028
     85  C         20.1460  -31.3500   -2.6210 C.2   156  THR156      0.2643
     86  O         19.9160  -31.9890   -3.6650 O.2   156  THR156     -0.2714
     87  CB        22.5090  -31.8920   -2.2000 C.3   156  THR156      0.1808
     88  OG1       22.0120  -32.8340   -1.2380 O.3   156  THR156     -0.2208
     89  CG2       23.9230  -31.4330   -1.8880 C.3   156  THR156      0.0379
     90  N         19.2460  -31.2300   -1.6550 N.am  157  GLY157     -0.1939
     91  CA        17.9700  -31.9200   -1.6230 C.3   157  GLY157      0.2014
     92  C         17.9710  -33.2490   -0.9070 C.2   157  GLY157      0.2638
     93  O         16.8820  -33.8280   -0.7390 O.2   157  GLY157     -0.2714
     94  N         19.1340  -33.7330   -0.4850 N.am  158  TRP158     -0.1973
     95  CA        19.2770  -35.0950    0.0260 C.3   158  TRP158      0.1640
     96  C         20.2140  -35.0370    1.2210 C.2   158  TRP158      0.2290
     97  O         21.3330  -34.5650    1.1430 O.2   158  TRP158     -0.2864
     98  CB        19.8440  -36.0300   -1.0510 C.3   158  TRP158      0.0576
     99  CG        18.9700  -36.0040   -2.2710 C.ar  158  TRP158      0.0006
    100  CD1       19.1430  -35.2730   -3.4190 C.ar  158  TRP158      0.0946
    101  CD2       17.6610  -36.5500   -2.3630 C.ar  158  TRP158      0.0152
    102  NE1       18.0530  -35.3530   -4.2070 N.ar  158  TRP158     -0.2442
    103  CE2       17.1140  -36.1160   -3.6010 C.ar  158  TRP158      0.0810
    104  CE3       16.8700  -37.3350   -1.5160 C.ar  158  TRP158      0.0012
    105  CZ2       15.8180  -36.4390   -3.9940 C.ar  158  TRP158      0.0191
    106  CZ3       15.5910  -37.6880   -1.9280 C.ar  158  TRP158      0.0001
    107  CH2       15.0900  -37.2220   -3.1580 C.ar  158  TRP158      0.0015
@<TRIPOS>BOND
     1     1     2    1
     2    11    10    1
     3    10     7    1
     4     2     5    1
     5     2     3    1
     6     6     7    1
     7     6     3   am
     8     8     7    1
     9     8     9    2
    10     3     4    2
    11    12    13    1
    12    15    14    2
    13    13    14    1
    14    13    16    1
    15    37    35    1
    16   102   103   ar
    17   102   100   ar
    18   105   103   ar
    19   105   107   ar
    20    86    85    2
    21   103   101   ar
    22    24    23    2
    23   100    99   ar
    24    31    32    1
    25   107   106   ar
    26    35    32    1
    27    35    36    1
    28    30    27    1
    29    32    33    1
    30    78    77    2
    31    28    27    1
    32    28    29    2
    33    85    84    1
    34    85    90   am
    35    27    26    1
    36    23    25   am
    37    23    22    1
    38    84    87    1
    39    84    83    1
    40   101    99   ar
    41   101   104   ar
    42    99    98    1
    43    87    89    1
    44    87    88    1
    45   106   104   ar
    46    81    80    2
    47    82    80   am
    48    90    91    1
    49    91    92    1
    50    77    83   am
    51    77    76    1
    52    80    79    1
    53    33    34    2
    54    22    21    1
    55    98    95    1
    56    92    93    2
    57    92    94   am
    58    21    18    1
    59    94    95    1
    60    76    79    1
    61    76    75    1
    62    20    19    2
    63    18    19    1
    64    18    17    1
    65    95    96    1
    66    66    65    2
    67    47    46   ar
    68    47    45   ar
    69    46    44   ar
    70    75    65   am
    71    62    61    2
    72    65    64    1
    73    97    96    2
    74    58    56   ar
    75    58    57   ar
    76    45    43   ar
    77    56    54   ar
    78    44    43   ar
    79    61    60    1
    80    61    63   am
    81    57    55   ar
    82    64    63    1
    83    64    67    1
    84    60    59    1
    85    43    42    1
    86    72    70   ar
    87    72    73   ar
    88    70    68   ar
    89    74    73    1
    90    73    71   ar
    91    54    53   ar
    92    68    67    1
    93    68    69   ar
    94    55    53   ar
    95    42    39    1
    96    71    69   ar
    97    53    52    1
    98    39    40    1
    99    39    38    1
   100    52    49    1
   101    41    40    2
   102    49    48    1
   103    49    50    1
   104    50    51    2
