@<TRIPOS>MOLECULE
tmp/6g1iB04.pdb
 87 80 0 0 0
SMALL
GASTEIGER

@<TRIPOS>ATOM
      1  N        -23.1110   13.2040   23.6380 N.3    63  GLU63      -0.1245
      2  CA       -21.9250   13.4870   24.4290 C.3    63  GLU63       0.1567
      3  C        -21.2020   12.2420   24.9200 C.2    63  GLU63       0.2260
      4  O        -19.9820   12.2810   25.0490 O.2    63  GLU63      -0.2867
      5  CB       -22.2980   14.3750   25.6300 C.3    63  GLU63       0.0388
      6  CG       -22.6000   15.8260   25.2090 C.3    63  GLU63       0.1160
      7  CD       -21.3750   16.6190   24.7930 C.2    63  GLU63       0.3649
      8  OE1      -20.2360   16.1160   24.7910 O.co2  63  GLU63      -0.2457
      9  OE2      -21.5460   17.8550   24.4760 O.co2  63  GLU63      -0.2457
     10  N        -13.1480   13.4060   29.3170 N.3    72  THR72      -0.1203
     11  CA       -12.3610   13.9090   28.1910 C.3    72  THR72       0.1994
     12  C        -11.8410   15.2710   28.4610 C.2    72  THR72       0.2618
     13  O        -12.3880   16.0270   29.2290 O.2    72  THR72      -0.2717
     14  CB       -13.1730   14.0440   26.8390 C.3    72  THR72       0.1784
     15  OG1      -14.2460   14.9980   26.9920 O.3    72  THR72      -0.2211
     16  CG2      -13.7270   12.7070   26.3510 C.3    72  THR72       0.0376
     17  N        -10.7350   15.6160   27.7940 N.am   73  GLY73      -0.1956
     18  CA       -10.2750   16.9920   27.7240 C.3    73  GLY73       0.1869
     19  C         -9.4600   17.4970   28.8760 C.2    73  GLY73       0.2309
     20  O         -9.2580   16.7870   29.8690 O.2    73  GLY73      -0.2863
     21  N        -10.5450   24.1300   30.4310 N.3    76  ALA76      -0.1231
     22  CA       -11.9370   24.5070   30.2100 C.3    76  ALA76       0.1694
     23  C        -12.6970   23.4430   29.4330 C.2    76  ALA76       0.2592
     24  O        -13.9170   23.3840   29.5140 O.2    76  ALA76      -0.2718
     25  CB       -12.0040   25.8170   29.4190 C.3    76  ALA76       0.0304
     26  N        -11.9730   22.6130   28.6700 N.am   77  SER77      -0.1952
     27  CA       -12.5470   21.5410   27.9010 C.3    77  SER77       0.1924
     28  C        -12.6130   20.2080   28.6550 C.2    77  SER77       0.2314
     29  O        -12.9950   19.1890   28.0510 O.2    77  SER77      -0.2863
     30  CB       -11.7760   21.3070   26.5860 C.3    77  SER77       0.2116
     31  OG       -11.8740   22.4610   25.7330 O.3    77  SER77      -0.2180
     32  N        -14.2300   17.5400   30.8010 N.3    79  ALA79      -0.1245
     33  CA       -15.6130   17.2270   31.0830 C.3    79  ALA79       0.1562
     34  C        -15.7680   15.7900   31.5490 C.2    79  ALA79       0.2260
     35  O        -14.9760   14.9070   31.1620 O.2    79  ALA79      -0.2867
     36  CB       -16.4610   17.4700   29.8430 C.3    79  ALA79       0.0290
     37  N        -21.3140   15.1740   29.6100 N.3    84  GLN84      -0.1245
     38  CA       -20.0320   15.8250   29.4300 C.3    84  GLN84       0.1566
     39  C        -20.0620   17.2570   29.9730 C.2    84  GLN84       0.2260
     40  O        -19.8780   18.2530   29.2770 O.2    84  GLN84      -0.2867
     41  CB       -19.5280   15.7860   27.9650 C.3    84  GLN84       0.0367
     42  CG       -19.2170   14.3260   27.5260 C.3    84  GLN84       0.0905
     43  CD       -17.9190   13.8580   28.1430 C.2    84  GLN84       0.2608
     44  OE1      -16.8480   14.0790   27.5280 O.2    84  GLN84      -0.2717
     45  NE2      -17.9940   13.2150   29.3130 N.am   84  GLN84      -0.0878
     46  N        -18.5340   20.2180   31.7230 N.3    86  ALA86      -0.1245
     47  CA       -17.1810   20.7290   31.8080 C.3    86  ALA86       0.1562
     48  C        -16.9250   21.3940   33.1590 C.2    86  ALA86       0.2260
     49  O        -17.8260   21.8140   33.8770 O.2    86  ALA86      -0.2867
     50  CB       -16.9480   21.7710   30.7170 C.3    86  ALA86       0.0290
     51  N        -16.0830   24.3340   33.5820 N.3    88  THR88      -0.1218
     52  CA       -16.6260   25.6860   33.5180 C.3    88  THR88       0.1862
     53  C        -18.0350   25.7730   34.0860 C.2    88  THR88       0.2287
     54  O        -18.5200   26.8780   34.3710 O.2    88  THR88      -0.2866
     55  CB       -16.6100   26.2280   32.0950 C.3    88  THR88       0.1770
     56  OG1      -17.3910   25.3260   31.3170 O.3    88  THR88      -0.2211
     57  CG2      -15.2260   26.3350   31.5110 C.3    88  THR88       0.0375
     58  N        -25.5920   24.1610   33.2210 N.3   128  HIS128     -0.1241
     59  CA       -24.6410   24.7450   32.3110 C.3   128  HIS128      0.1621
     60  C        -25.2640   24.9810   30.9370 C.2   128  HIS128      0.2264
     61  O        -25.0640   26.0390   30.3100 O.2   128  HIS128     -0.2867
     62  CB       -23.4580   23.7760   32.2560 C.3   128  HIS128      0.0745
     63  CG       -22.2460   24.2080   31.5230 C.ar  128  HIS128      0.0817
     64  ND1      -21.5970   25.4050   31.7840 N.ar  128  HIS128     -0.2268
     65  CD2      -21.4790   23.5530   30.6380 C.ar  128  HIS128      0.1154
     66  CE1      -20.4690   25.4220   31.0860 C.ar  128  HIS128      0.1986
     67  NE2      -20.3850   24.3220   30.3730 N.ar  128  HIS128     -0.2212
     68  N        -22.9110   25.3350   24.9220 N.3   153  TYR153     -0.1227
     69  CA       -22.5040   24.2410   25.7840 C.3   153  TYR153      0.1736
     70  C        -21.2120   23.6000   25.3100 C.2   153  TYR153      0.2595
     71  O        -20.2830   23.3100   26.0720 O.2   153  TYR153     -0.2718
     72  CB       -23.6480   23.2320   25.8570 C.3   153  TYR153      0.0548
     73  CG       -23.4750   22.1460   26.8610 C.ar  153  TYR153     -0.0200
     74  CD1      -23.8830   22.3210   28.1820 C.ar  153  TYR153     -0.0009
     75  CD2      -22.9450   20.8920   26.5270 C.ar  153  TYR153     -0.0009
     76  CE1      -23.7800   21.3120   29.1270 C.ar  153  TYR153      0.0417
     77  CE2      -22.8350   19.8800   27.4480 C.ar  153  TYR153      0.0417
     78  CZ       -23.2280   20.1050   28.7760 C.ar  153  TYR153      0.1957
     79  OH       -23.1380   19.1370   29.7210 O.3   153  TYR153     -0.2866
     80  N        -21.1510   23.2730   24.0000 N.am  154  ASN154     -0.1974
     81  CA       -20.0040   22.5580   23.4830 C.3   154  ASN154      0.1688
     82  C        -18.7860   23.4450   23.2510 C.2   154  ASN154      0.2292
     83  O        -17.6570   23.0020   23.4340 O.2   154  ASN154     -0.2864
     84  CB       -20.3880   21.8170   22.2050 C.3   154  ASN154      0.1181
     85  CG       -19.2270   21.1250   21.5300 C.2   154  ASN154      0.2629
     86  OD1      -18.8230   21.5590   20.4450 O.2   154  ASN154     -0.2716
     87  ND2      -18.6620   20.1160   22.1690 N.am  154  ASN154     -0.0877
@<TRIPOS>BOND
     1    86    85    2
     2    85    87   am
     3    85    84    1
     4    84    81    1
     5    82    83    2
     6    82    81    1
     7    81    80    1
     8     1     2    1
     9    80    70   am
    10     2     3    1
    11     2     5    1
    12     9     7   ar
    13     8     7   ar
    14     7     6    1
    15     3     4    2
    16    68    69    1
    17     6     5    1
    18    70    69    1
    19    70    71    2
    20    31    30    1
    21    69    72    1
    22    72    73    1
    23    16    14    1
    24    75    73   ar
    25    75    77   ar
    26    30    27    1
    27    14    15    1
    28    14    11    1
    29    73    74   ar
    30    77    78   ar
    31    42    41    1
    32    42    43    1
    33    44    43    2
    34    18    17    1
    35    18    19    1
    36    17    12   am
    37    27    28    1
    38    27    26    1
    39    41    38    1
    40    29    28    2
    41    43    45   am
    42    74    76   ar
    43    11    12    1
    44    11    10    1
    45    12    13    2
    46    26    23   am
    47    78    76   ar
    48    78    79    1
    49    19    20    2
    50    40    39    2
    51    25    22    1
    52    38    37    1
    53    38    39    1
    54    23    24    2
    55    23    22    1
    56    36    33    1
    57    22    21    1
    58    61    60    2
    59    67    65   ar
    60    67    66   ar
    61    65    63   ar
    62    50    47    1
    63    32    33    1
    64    60    59    1
    65    33    34    1
    66    66    64   ar
    67    35    34    2
    68    56    55    1
    69    57    55    1
    70    63    64   ar
    71    63    62    1
    72    46    47    1
    73    47    48    1
    74    55    52    1
    75    62    59    1
    76    59    58    1
    77    48    49    2
    78    52    51    1
    79    52    53    1
    80    53    54    2
