@<TRIPOS>MOLECULE
tmp/6g1kB03.pdb
 114 111 0 0 0
SMALL
GASTEIGER

@<TRIPOS>ATOM
      1  N        132.5450  111.5730  128.5300 N.3   452  ILE452     -0.1231
      2  CA       132.5760  111.7050  129.9810 C.3   452  ILE452      0.1692
      3  C        133.8970  111.1760  130.5350 C.2   452  ILE452      0.2591
      4  O        134.4740  111.7550  131.4610 O.2   452  ILE452     -0.2718
      5  CB       131.3520  111.0020  130.5900 C.3   452  ILE452      0.0266
      6  CG1      130.0850  111.6970  130.1030 C.3   452  ILE452      0.0019
      7  CG2      131.3810  111.0370  132.0940 C.3   452  ILE452      0.0020
      8  CD1      128.8250  110.9460  130.3990 C.3   452  ILE452      0.0001
      9  N        134.4480  110.1350  129.9180 N.am  453  LEU453     -0.1980
     10  CA       135.7690  109.6310  130.2740 C.3   453  LEU453      0.1596
     11  C        136.9240  110.4730  129.7350 C.2   453  LEU453      0.2287
     12  O        138.0700  110.0340  129.8280 O.2   453  LEU453     -0.2864
     13  CB       135.9350  108.1940  129.7900 C.3   453  LEU453      0.0297
     14  CG       135.6360  107.0750  130.7850 C.3   453  LEU453      0.0022
     15  CD1      136.6440  107.1430  131.9160 C.3   453  LEU453      0.0001
     16  CD2      134.2190  107.1100  131.3300 C.3   453  LEU453      0.0001
     17  N        136.6010  113.2610  132.7790 N.3   456  LEU456     -0.1245
     18  CA       137.1510  112.6910  133.9980 C.3   456  LEU456      0.1561
     19  C        138.6470  112.4380  133.9070 C.2   456  LEU456      0.2260
     20  O        139.1900  111.7190  134.7460 O.2   456  LEU456     -0.2867
     21  CB       136.4120  111.4070  134.3820 C.3   456  LEU456      0.0270
     22  CG       135.2070  111.5890  135.3110 C.3   456  LEU456      0.0019
     23  CD1      134.0210  112.2680  134.6520 C.3   456  LEU456      0.0001
     24  CD2      134.7880  110.2560  135.9080 C.3   456  LEU456      0.0001
     25  N        138.9970  116.8570  134.7990 N.3   459  TYR459     -0.1227
     26  CA       138.4490  117.1860  136.1030 C.3   459  TYR459      0.1736
     27  C        139.2710  116.6050  137.2330 C.2   459  TYR459      0.2595
     28  O        139.3720  117.2190  138.2970 O.2   459  TYR459     -0.2718
     29  CB       137.0200  116.6730  136.1810 C.3   459  TYR459      0.0548
     30  CG       136.3930  116.9360  137.5020 C.ar  459  TYR459     -0.0200
     31  CD1      136.0000  118.2130  137.8500 C.ar  459  TYR459     -0.0009
     32  CD2      136.2010  115.9080  138.4120 C.ar  459  TYR459     -0.0009
     33  CE1      135.4340  118.4620  139.0630 C.ar  459  TYR459      0.0417
     34  CE2      135.6380  116.1450  139.6280 C.ar  459  TYR459      0.0417
     35  CZ       135.2540  117.4230  139.9480 C.ar  459  TYR459      0.1957
     36  OH       134.6870  117.6610  141.1690 O.3   459  TYR459     -0.2866
     37  N        139.8840  115.4430  137.0190 N.am  460  CYS460     -0.1970
     38  CA       140.6920  114.8480  138.0700 C.3   460  CYS460      0.1712
     39  C        141.9740  115.6260  138.3140 C.2   460  CYS460      0.2296
     40  O        142.4180  115.7260  139.4620 O.2   460  CYS460     -0.2864
     41  CB       140.9980  113.3930  137.7450 C.3   460  CYS460      0.0983
     42  SG       139.5690  112.3070  137.9050 S.3   460  CYS460     -0.0798
     43  N        141.0130  118.6610  140.1830 N.3   463  LEU463     -0.1245
     44  CA       140.8060  118.2150  141.5510 C.3   463  LEU463      0.1561
     45  C        142.1170  118.1120  142.3100 C.2   463  LEU463      0.2260
     46  O        142.2330  118.6100  143.4340 O.2   463  LEU463     -0.2867
     47  CB       140.1120  116.8630  141.5260 C.3   463  LEU463      0.0270
     48  CG       139.7170  116.2890  142.8660 C.3   463  LEU463      0.0019
     49  CD1      138.6010  117.1240  143.3840 C.3   463  LEU463      0.0001
     50  CD2      139.3040  114.8440  142.7250 C.3   463  LEU463      0.0001
     51  N        132.5680  113.0600  156.9360 N.3   489  ARG489     -0.1245
     52  CA       131.3140  112.3270  157.0210 C.3   489  ARG489      0.1563
     53  C        130.6060  112.5360  158.3470 C.2   489  ARG489      0.2260
     54  O        129.6470  111.8200  158.6370 O.2   489  ARG489     -0.2867
     55  CB       131.5360  110.8270  156.8200 C.3   489  ARG489      0.0307
     56  CG       131.5290  110.3540  155.3900 C.3   489  ARG489      0.0489
     57  CD       132.8700  110.5080  154.7600 C.3   489  ARG489      0.2205
     58  NE       133.9100  109.8110  155.5070 N.pl3 489  ARG489     -0.0865
     59  CZ       134.2330  108.5340  155.3340 C.cat 489  ARG489      0.5346
     60  NH1      133.5960  107.8090  154.4350 N.pl3 489  ARG489      0.1354
     61  NH2      135.1950  107.9830  156.0600 N.pl3 489  ARG489      0.1354
     62  N        143.8640  113.1620  151.6430 N.3   501  PHE501     -0.1241
     63  CA       142.7500  112.2740  151.3730 C.3   501  PHE501      0.1605
     64  C        141.4160  112.9070  151.7220 C.2   501  PHE501      0.2264
     65  O        140.4950  112.8950  150.8960 O.2   501  PHE501     -0.2867
     66  CB       142.9320  110.9840  152.1450 C.3   501  PHE501      0.0534
     67  CG       141.8230  110.0270  151.9590 C.ar  501  PHE501     -0.0203
     68  CD1      141.6570  109.3810  150.7540 C.ar  501  PHE501     -0.0042
     69  CD2      140.9490  109.7570  152.9930 C.ar  501  PHE501     -0.0042
     70  CE1      140.6370  108.4930  150.5790 C.ar  501  PHE501     -0.0003
     71  CE2      139.9280  108.8670  152.8240 C.ar  501  PHE501     -0.0003
     72  CZ       139.7740  108.2340  151.6180 C.ar  501  PHE501     -0.0000
     73  N        140.7300  115.6870  149.0950 N.3   504  LEU504     -0.1231
     74  CA       140.1690  115.1530  147.8620 C.3   504  LEU504      0.1693
     75  C        138.7190  114.7790  148.0570 C.2   504  LEU504      0.2591
     76  O        137.8770  115.0290  147.1930 O.2   504  LEU504     -0.2718
     77  CB       140.9320  113.9230  147.3990 C.3   504  LEU504      0.0284
     78  CG       142.2970  114.1420  146.7890 C.3   504  LEU504      0.0019
     79  CD1      142.9310  112.8060  146.5140 C.3   504  LEU504      0.0001
     80  CD2      142.0790  114.8910  145.5130 C.3   504  LEU504      0.0001
     81  N        138.4330  114.2000  149.2130 N.am  505  GLN505     -0.1979
     82  CA       137.0770  113.7950  149.5330 C.3   505  GLN505      0.1601
     83  C        136.1580  115.0030  149.6710 C.2   505  GLN505      0.2287
     84  O        135.0340  115.0010  149.1550 O.2   505  GLN505     -0.2864
     85  CB       137.1440  112.9680  150.8020 C.3   505  GLN505      0.0394
     86  CG       135.9210  112.2630  151.1740 C.3   505  GLN505      0.0908
     87  CD       136.2350  111.2090  152.1840 C.2   505  GLN505      0.2608
     88  OE1      137.3670  111.1060  152.6460 O.2   505  GLN505     -0.2717
     89  NE2      135.2620  110.3740  152.4890 N.am  505  GLN505     -0.0878
     90  N        135.5490  116.5140  146.2610 N.3   508  PHE508     -0.1227
     91  CA       134.5890  115.7100  145.5170 C.3   508  PHE508      0.1736
     92  C        133.1750  115.9990  145.9700 C.2   508  PHE508      0.2595
     93  O        132.2750  116.1660  145.1450 O.2   508  PHE508     -0.2718
     94  CB       134.8740  114.2240  145.6600 C.3   508  PHE508      0.0547
     95  CG       133.7700  113.3660  145.1290 C.ar  508  PHE508     -0.0202
     96  CD1      133.5240  113.2910  143.7800 C.ar  508  PHE508     -0.0042
     97  CD2      132.9700  112.6360  145.9830 C.ar  508  PHE508     -0.0042
     98  CE1      132.5010  112.5050  143.2930 C.ar  508  PHE508     -0.0003
     99  CE2      131.9470  111.8540  145.4960 C.ar  508  PHE508     -0.0003
    100  CZ       131.7180  111.7880  144.1530 C.ar  508  PHE508     -0.0000
    101  N        132.9510  116.0430  147.2760 N.am  509  TRP509     -0.1976
    102  CA       131.5900  116.2410  147.7460 C.3   509  TRP509      0.1640
    103  C        131.1070  117.6730  147.6280 C.2   509  TRP509      0.2290
    104  O        129.9100  117.9100  147.7840 O.2   509  TRP509     -0.2864
    105  CB       131.4420  115.7900  149.1910 C.3   509  TRP509      0.0576
    106  CG       131.4480  114.3400  149.3320 C.ar  509  TRP509      0.0006
    107  CD1      132.4290  113.5740  149.8450 C.ar  509  TRP509      0.0946
    108  CD2      130.4320  113.4540  148.8950 C.ar  509  TRP509      0.0152
    109  NE1      132.0800  112.2580  149.7860 N.ar  509  TRP509     -0.2442
    110  CE2      130.8510  112.1610  149.2000 C.ar  509  TRP509      0.0810
    111  CE3      129.1950  113.6320  148.2880 C.ar  509  TRP509      0.0012
    112  CZ2      130.0860  111.0590  148.9240 C.ar  509  TRP509      0.0191
    113  CZ3      128.4430  112.5440  148.0120 C.ar  509  TRP509      0.0001
    114  CH2      128.8820  111.2720  148.3330 C.ar  509  TRP509      0.0015
@<TRIPOS>BOND
     1     1     2    1
     2    11    12    2
     3    11    10    1
     4    13    10    1
     5    13    14    1
     6     9    10    1
     7     9     3   am
     8     2     3    1
     9     2     5    1
    10     6     8    1
    11     6     5    1
    12     3     4    2
    13     5     7    1
    14    14    16    1
    15    14    15    1
    16    17    18    1
    17    19    18    1
    18    19    20    2
    19    18    21    1
    20    21    22    1
    21    23    22    1
    22    25    26    1
    23    22    24    1
    24    26    29    1
    25    26    27    1
    26    29    30    1
    27    37    27   am
    28    37    38    1
    29    27    28    2
    30    30    31   ar
    31    30    32   ar
    32    41    42    1
    33    41    38    1
    34    31    33   ar
    35    38    39    1
    36    39    40    2
    37    32    34   ar
    38    33    35   ar
    39    34    35   ar
    40    35    36    1
    41    43    44    1
    42    47    44    1
    43    47    48    1
    44    44    45    1
    45    45    46    2
    46    50    48    1
    47    48    49    1
    48    98    96   ar
    49    98   100   ar
    50    96    95   ar
    51   100    99   ar
    52    95    94    1
    53    95    97   ar
    54    93    92    2
    55    99    97   ar
    56    80    78    1
    57    91    94    1
    58    91    92    1
    59    91    90    1
    60    92   101   am
    61    79    78    1
    62    78    77    1
    63    76    75    2
    64   101   102    1
    65    77    74    1
    66   103   102    1
    67   103   104    2
    68   102   105    1
    69    74    75    1
    70    74    73    1
    71   113   111   ar
    72   113   114   ar
    73    75    81   am
    74   111   108   ar
    75   114   112   ar
    76   108   110   ar
    77   108   106   ar
    78   112   110   ar
    79    84    83    2
    80   105   106    1
    81   110   109   ar
    82    81    82    1
    83   106   107   ar
    84    82    83    1
    85    82    85    1
    86   109   107   ar
    87    70    68   ar
    88    70    72   ar
    89    68    67   ar
    90    85    86    1
    91    65    64    2
    92    86    87    1
    93    63    62    1
    94    63    64    1
    95    63    66    1
    96    72    71   ar
    97    67    66    1
    98    67    69   ar
    99    87    89   am
   100    87    88    2
   101    71    69   ar
   102    60    59    1
   103    57    56    1
   104    57    58    1
   105    59    58    2
   106    59    61    1
   107    56    55    1
   108    55    52    1
   109    51    52    1
   110    52    53    1
   111    53    54    2
