@<TRIPOS>MOLECULE
tmp/6g1pB00.pdb
 122 113 0 0 0
SMALL
GASTEIGER

@<TRIPOS>ATOM
      1  N          9.7540   -5.2200  -18.4020 N.3    55  ASP55      -0.1239
      2  CA        11.1500   -4.8320  -18.5360 C.3    55  ASP55       0.1674
      3  C         12.0860   -5.9420  -18.0430 C.2    55  ASP55       0.2266
      4  O         13.2240   -6.0480  -18.5170 O.2    55  ASP55      -0.2867
      5  CB        11.3930   -3.5000  -17.8200 C.3    55  ASP55       0.1410
      6  CG        10.9750   -3.4390  -16.3680 C.2    55  ASP55       0.3668
      7  OD1        9.8970   -3.9100  -16.0210 O.co2  55  ASP55      -0.2456
      8  OD2       11.7390   -2.7820  -15.5700 O.co2  55  ASP55      -0.2456
      9  N         14.9580   -6.9430  -20.7100 N.3    59  MET59      -0.1245
     10  CA        16.3900   -6.7790  -20.4750 C.3    59  MET59       0.1570
     11  C         17.1060   -8.1350  -20.4470 C.2    59  MET59       0.2261
     12  O         18.2700   -8.2240  -20.8710 O.2    59  MET59      -0.2867
     13  CB        16.6480   -5.9780  -19.1940 C.3    59  MET59       0.0387
     14  CG        16.0950   -4.5860  -19.2750 C.3    59  MET59       0.0595
     15  SD        16.9890   -3.3720  -18.2320 S.3    59  MET59      -0.1393
     16  CE        18.4140   -3.0700  -19.2880 C.3    59  MET59       0.0692
     17  N          7.7450   -1.2170  -18.8300 N.3    93  GLY93      -0.1210
     18  CA         7.6200   -1.0770  -17.3720 C.3    93  GLY93       0.1956
     19  C          8.8780   -0.5850  -16.6790 C.2    93  GLY93       0.2612
     20  O          9.0010   -0.7500  -15.4590 O.2    93  GLY93      -0.2717
     21  N          9.7590    0.0900  -17.4110 N.am   94  TYR94      -0.1962
     22  CA        10.9680    0.6730  -16.8560 C.3    94  TYR94       0.1771
     23  C         10.5900    1.7480  -15.8230 C.2    94  TYR94       0.2620
     24  O          9.6090    2.4680  -16.0100 O.2    94  TYR94      -0.2715
     25  CB        11.8060    1.2660  -17.9780 C.3    94  TYR94       0.0574
     26  CG        12.2440    0.2640  -19.0190 C.ar   94  TYR94      -0.0198
     27  CD1       13.3130   -0.5860  -18.7870 C.ar   94  TYR94      -0.0009
     28  CD2       11.5630    0.1170  -20.2120 C.ar   94  TYR94      -0.0009
     29  CE1       13.7220   -1.5140  -19.7340 C.ar   94  TYR94       0.0417
     30  CE2       11.9350   -0.8260  -21.1640 C.ar   94  TYR94       0.0417
     31  CZ        13.0190   -1.6520  -20.9210 C.ar   94  TYR94       0.1957
     32  OH        13.4000   -2.5720  -21.8620 O.3    94  TYR94      -0.2866
     33  N         11.2720    1.7770  -14.6960 N.am   95  GLY95      -0.1940
     34  CA        11.0650    2.8090  -13.7150 C.3    95  GLY95       0.2014
     35  C         12.3650    3.2330  -13.0710 C.2    95  GLY95       0.2638
     36  O         13.4540    2.9820  -13.5850 O.2    95  GLY95      -0.2714
     37  N         12.2420    3.9030  -11.9290 N.am   96  ALA96      -0.1977
     38  CA        13.3550    4.2780  -11.0730 C.3    96  ALA96       0.1597
     39  C         14.4480    5.0240  -11.8520 C.2    96  ALA96       0.2287
     40  O         15.6390    4.9080  -11.5840 O.2    96  ALA96      -0.2864
     41  CB        13.8690    3.0500  -10.3680 C.3    96  ALA96       0.0319
     42  N         15.5680    4.6970  -14.8640 N.3    98  VAL98      -0.1245
     43  CA        16.5300    3.9780  -15.6910 C.3    98  VAL98       0.1561
     44  C         16.5030    4.4520  -17.1550 C.2    98  VAL98       0.2260
     45  O         17.5310    4.3760  -17.8460 O.2    98  VAL98      -0.2867
     46  CB        16.3410    2.4480  -15.5900 C.3    98  VAL98       0.0252
     47  CG1       15.0820    1.9690  -16.3170 C.3    98  VAL98       0.0019
     48  CG2       17.5630    1.7250  -16.1290 C.3    98  VAL98       0.0019
     49  N         22.0870    4.1330   -8.9850 N.3   126  SER126     -0.1217
     50  CA        20.8650    3.4180   -8.6050 C.3   126  SER126      0.1889
     51  C         21.1770    2.1830   -7.7670 C.2   126  SER126      0.2288
     52  O         22.0790    1.3990   -8.1150 O.2   126  SER126     -0.2866
     53  CB        20.0930    2.9810   -9.8000 C.3   126  SER126      0.2089
     54  OG        18.8630    2.3640   -9.3560 O.3   126  SER126     -0.2183
     55  N         18.5010    0.1450   -7.2020 N.3   128  GLY128     -0.1210
     56  CA        17.3530   -0.7010   -7.5820 C.3   128  GLY128      0.1956
     57  C         17.7960   -2.0950   -7.9810 C.2   128  GLY128      0.2612
     58  O         18.9730   -2.4060   -8.0490 O.2   128  GLY128     -0.2717
     59  N         16.7990   -2.9230   -8.2810 N.am  129  ASN129     -0.1960
     60  CA        17.0230   -4.3340   -8.5450 C.3   129  ASN129      0.1819
     61  C         17.0860   -4.6280  -10.0510 C.2   129  ASN129      0.2621
     62  O         17.1630   -5.8010  -10.4530 O.2   129  ASN129     -0.2715
     63  CB        15.9590   -5.1900   -7.8480 C.3   129  ASN129      0.1195
     64  CG        14.5520   -4.8460   -8.2740 C.2   129  ASN129      0.2630
     65  OD1       14.3390   -4.2480   -9.3480 O.2   129  ASN129     -0.2716
     66  ND2       13.5630   -5.2830   -7.4760 N.am  129  ASN129     -0.0877
     67  N         17.0890   -3.6100  -10.9260 N.am  130  GLY130     -0.1954
     68  CA        17.1600   -3.8440  -12.3250 C.3   130  GLY130      0.1869
     69  C         18.4170   -4.5370  -12.8370 C.2   130  GLY130      0.2309
     70  O         18.3860   -5.2730  -13.8330 O.2   130  GLY130     -0.2863
     71  N         17.6060   -8.2670  -11.9020 N.3   133  MET133     -0.1230
     72  CA        16.4230   -8.9200  -12.4950 C.3   133  MET133      0.1702
     73  C         16.7870   -9.6390  -13.8060 C.2   133  MET133      0.2592
     74  O         16.0560  -10.5670  -14.1990 O.2   133  MET133     -0.2718
     75  CB        15.3370   -7.8800  -12.7700 C.3   133  MET133      0.0401
     76  CG        15.5880   -7.0390  -13.9790 C.3   133  MET133      0.0596
     77  SD        14.3630   -5.7300  -14.1170 S.3   133  MET133     -0.1393
     78  CE        14.9860   -4.9260  -15.5840 C.3   133  MET133      0.0692
     79  N         17.9060   -9.2430  -14.4250 N.am  134  ARG134     -0.1980
     80  CA        18.2900   -9.6750  -15.7500 C.3   134  ARG134      0.1597
     81  C         19.5890  -10.4670  -15.7440 C.2   134  ARG134      0.2287
     82  O         20.0690  -10.8400  -16.8150 O.2   134  ARG134     -0.2864
     83  CB        18.5080   -8.4780  -16.6750 C.3   134  ARG134      0.0334
     84  CG        19.6220   -7.5600  -16.2080 C.3   134  ARG134      0.0492
     85  CD        19.6900   -6.2510  -16.9430 C.3   134  ARG134      0.2205
     86  NE        20.8660   -5.4890  -16.5360 N.pl3 134  ARG134     -0.0865
     87  CZ        20.8950   -4.1940  -16.1850 C.cat 134  ARG134      0.5346
     88  NH1       19.7730   -3.4620  -16.1620 N.pl3 134  ARG134      0.1354
     89  NH2       22.0620   -3.6460  -15.8580 N.pl3 134  ARG134      0.1354
     90  N         23.1980    0.3980  -13.0190 N.3   160  HIS160     -0.1241
     91  CA        23.0860    0.4430  -11.5710 C.3   160  HIS160      0.1621
     92  C         24.4830    0.5530  -10.9780 C.2   160  HIS160      0.2264
     93  O         25.1800   -0.4600  -10.7530 O.2   160  HIS160     -0.2867
     94  CB        22.3410   -0.8210  -11.0550 C.3   160  HIS160      0.0745
     95  CG        20.8920   -0.7800  -11.3600 C.ar  160  HIS160      0.0817
     96  ND1       20.3990   -0.8800  -12.6150 N.ar  160  HIS160     -0.2268
     97  CD2       19.8240   -0.6010  -10.5460 C.ar  160  HIS160      0.1154
     98  CE1       19.0930   -0.7280  -12.5770 C.ar  160  HIS160      0.1986
     99  NE2       18.7280   -0.5620  -11.3180 N.ar  160  HIS160     -0.2212
    100  N         11.6280   -2.2820   -4.6430 N.3   235  ILE235     -0.1245
    101  CA        12.4490   -2.2180   -5.8460 C.3   235  ILE235      0.1561
    102  C         13.9400   -2.1410   -5.4990 C.2   235  ILE235      0.2260
    103  O         14.7790   -2.4730   -6.3360 O.2   235  ILE235     -0.2867
    104  CB        11.9950   -1.0600   -6.7420 C.3   235  ILE235      0.0252
    105  CG1       10.6220   -1.3510   -7.3590 C.3   235  ILE235      0.0019
    106  CG2       13.0290   -0.7750   -7.7930 C.3   235  ILE235      0.0019
    107  CD1        9.7100   -0.1680   -7.4580 C.3   235  ILE235      0.0001
    108  N          7.0810   -5.6200   -5.0560 N.3   278  ASP278     -0.1239
    109  CA         7.6570   -5.7460   -6.3580 C.3   278  ASP278      0.1674
    110  C          7.5840   -7.2200   -6.7920 C.2   278  ASP278      0.2266
    111  O          8.6120   -7.9100   -6.9850 O.2   278  ASP278     -0.2867
    112  CB         9.0870   -5.2100   -6.4200 C.3   278  ASP278      0.1410
    113  CG         9.6370   -5.0880   -7.8490 C.2   278  ASP278      0.3668
    114  OD1        8.9310   -5.4800   -8.8310 O.co2 278  ASP278     -0.2456
    115  OD2       10.7840   -4.6880   -8.0130 O.co2 278  ASP278     -0.2456
    116  N          9.5250   -8.6440  -10.0440 N.3   281  THR281     -0.1218
    117  CA        10.9890   -8.8370   -9.9780 C.3   281  THR281      0.1862
    118  C         11.3340   -9.8740   -8.9060 C.2   281  THR281      0.2287
    119  O         12.2570  -10.6700   -9.1090 O.2   281  THR281     -0.2866
    120  CB        11.7350   -7.5230   -9.8110 C.3   281  THR281      0.1770
    121  OG1       11.3410   -6.7270  -10.9450 O.3   281  THR281     -0.2211
    122  CG2       13.2270   -7.7270   -9.7510 C.3   281  THR281      0.0375
@<TRIPOS>BOND
     1    32    31    1
     2    30    31   ar
     3    30    28   ar
     4    31    29   ar
     5    12    11    2
     6     9    10    1
     7    10    11    1
     8    10    13    1
     9    28    26   ar
    10    29    27   ar
    11    16    15    1
    12    14    13    1
    13    14    15    1
    14    26    27   ar
    15    26    25    1
    16    17    18    1
    17     2     1    1
    18     2     3    1
    19     2     5    1
    20     4     3    2
    21    25    22    1
    22    45    44    2
    23     5     6    1
    24    21    22    1
    25    21    19   am
    26    18    19    1
    27    44    43    1
    28    85    86    1
    29    85    84    1
    30    22    23    1
    31    82    81    2
    32    19    20    2
    33    83    84    1
    34    83    80    1
    35    86    87    2
    36     6     7   ar
    37     6     8   ar
    38    47    46    1
    39    87    88    1
    40    87    89    1
    41    48    46    1
    42    24    23    2
    43    23    33   am
    44    80    81    1
    45    80    79    1
    46    43    46    1
    47    43    42    1
    48    78    77    1
    49    33    34    1
    50    79    73   am
    51    74    73    2
    52    77    76    1
    53    76    75    1
    54    70    69    2
    55    73    72    1
    56    34    35    1
    57    36    35    2
    58    35    37   am
    59    90    91    1
    60    69    68    1
    61    75    72    1
    62    96    98   ar
    63    96    95   ar
    64    98    99   ar
    65    72    71    1
    66    68    67    1
    67    37    38    1
    68    39    40    2
    69    39    38    1
    70    91    94    1
    71    91    92    1
    72    95    94    1
    73    95    97   ar
    74    99    97   ar
    75    38    41    1
    76    92    93    2
    77   121   120    1
    78    67    61   am
    79    62    61    2
    80    61    60    1
    81   116   117    1
    82   117   120    1
    83   117   118    1
    84   120   122    1
    85    53    54    1
    86    53    50    1
    87    65    64    2
    88   119   118    2
    89    49    50    1
    90   114   113   ar
    91    50    51    1
    92    60    59    1
    93    60    63    1
    94    59    57   am
    95    64    63    1
    96    64    66   am
    97    52    51    2
    98    58    57    2
    99   115   113   ar
   100    57    56    1
   101   113   112    1
   102   106   104    1
   103    56    55    1
   104   107   105    1
   105   105   104    1
   106   111   110    2
   107   110   109    1
   108   104   101    1
   109   112   109    1
   110   109   108    1
   111   103   102    2
   112   101   102    1
   113   101   100    1
