@<TRIPOS>MOLECULE
tmp/6g1qB01.pdb
 203 196 0 0 0
SMALL
GASTEIGER

@<TRIPOS>ATOM
      1  N         35.4630   54.4690  114.8570 N.3    27  GLU27      -0.1245
      2  CA        36.5440   53.5720  114.4550 C.3    27  GLU27       0.1567
      3  C         36.0160   52.3410  113.7110 C.2    27  GLU27       0.2260
      4  O         35.0150   51.7830  114.0910 O.2    27  GLU27      -0.2867
      5  CB        37.3320   53.1010  115.6690 C.3    27  GLU27       0.0388
      6  CG        38.5640   52.2930  115.3050 C.3    27  GLU27       0.1160
      7  CD        39.4250   52.0260  116.5230 C.2    27  GLU27       0.3649
      8  OE1       39.2520   52.7590  117.5130 O.co2  27  GLU27      -0.2457
      9  OE2       40.2540   51.0980  116.5030 O.co2  27  GLU27      -0.2457
     10  N         43.7250   53.3090  123.6290 N.3    57  ASP57      -0.1225
     11  CA        45.0940   52.8490  123.7460 C.3    57  ASP57       0.1805
     12  C         46.0350   53.9530  123.2470 C.2    57  ASP57       0.2597
     13  O         47.0590   54.1830  123.8800 O.2    57  ASP57      -0.2718
     14  CB        45.2880   51.5040  123.0340 C.3    57  ASP57       0.1424
     15  CG        44.8480   51.5140  121.5880 C.2    57  ASP57       0.3668
     16  OD1       43.7120   51.9670  121.3170 O.co2  57  ASP57      -0.2456
     17  OD2       45.6170   51.0660  120.7620 O.co2  57  ASP57      -0.2456
     18  N         45.6320   54.6880  122.2010 N.am   58  ASP58      -0.1974
     19  CA        46.4430   55.7250  121.6190 C.3    58  ASP58       0.1709
     20  C         46.9490   56.6810  122.7120 C.2    58  ASP58       0.2293
     21  O         48.1710   57.0170  122.7650 O.2    58  ASP58      -0.2864
     22  CB        45.7200   56.4740  120.5100 C.3    58  ASP58       0.1436
     23  CG        45.3110   55.5840  119.3530 C.2    58  ASP58       0.3671
     24  OD1       44.6400   54.5980  119.6360 O.co2  58  ASP58      -0.2456
     25  OD2       45.6240   55.9110  118.1550 O.co2  58  ASP58      -0.2456
     26  N         49.0500   54.7890  125.8040 N.3    61  MET61      -0.1245
     27  CA        50.4550   54.5480  125.4850 C.3    61  MET61       0.1570
     28  C         51.2270   55.8730  125.4520 C.2    61  MET61       0.2261
     29  O         52.3160   55.9560  126.0310 O.2    61  MET61      -0.2867
     30  CB        50.5550   53.8100  124.1470 C.3    61  MET61       0.0387
     31  CG        49.9590   52.3920  124.2000 C.3    61  MET61       0.0595
     32  SD        50.7210   51.2250  123.0080 S.3    61  MET61      -0.1393
     33  CE        52.1790   50.8210  123.9570 C.3    61  MET61       0.0692
     34  N         41.4880   49.4230  124.1690 N.3    95  GLY95      -0.1210
     35  CA        41.3210   49.3220  122.6870 C.3    95  GLY95       0.1956
     36  C         42.5480   48.8550  121.9110 C.2    95  GLY95       0.2612
     37  O         42.6440   49.1220  120.7080 O.2    95  GLY95      -0.2717
     38  N         43.4560   48.1230  122.5750 N.am   96  TYR96      -0.1962
     39  CA        44.7700   47.6860  122.0270 C.3    96  TYR96       0.1771
     40  C         44.5530   46.7210  120.8570 C.2    96  TYR96       0.2620
     41  O         43.5910   46.0040  120.8420 O.2    96  TYR96      -0.2715
     42  CB        45.6190   47.0010  123.1070 C.3    96  TYR96       0.0574
     43  CG        46.0890   47.9040  124.2230 C.ar   96  TYR96      -0.0198
     44  CD1       47.2360   48.6720  124.0940 C.ar   96  TYR96      -0.0009
     45  CD2       45.3940   47.9960  125.4130 C.ar   96  TYR96      -0.0009
     46  CE1       47.6670   49.5220  125.1030 C.ar   96  TYR96       0.0417
     47  CE2       45.7950   48.8420  126.4310 C.ar   96  TYR96       0.0417
     48  CZ        46.9450   49.5980  126.2770 C.ar   96  TYR96       0.1957
     49  OH        47.3520   50.4230  127.2710 O.3    96  TYR96      -0.2866
     50  N         45.4910   46.6770  119.9090 N.am   97  GLY97      -0.1940
     51  CA        45.5000   45.6630  118.8380 C.3    97  GLY97       0.2014
     52  C         45.5660   44.2360  119.3800 C.2    97  GLY97       0.2639
     53  O         46.0660   43.9930  120.4870 O.2    97  GLY97      -0.2714
     54  N         45.0790   43.2770  118.5830 N.am   98  ALA98      -0.1963
     55  CA        45.0210   41.8880  118.9700 C.3    98  ALA98       0.1728
     56  C         46.4410   41.3070  119.1180 C.2    98  ALA98       0.2617
     57  O         46.7440   40.5450  120.0660 O.2    98  ALA98      -0.2715
     58  CB        44.1950   41.1400  117.9530 C.3    98  ALA98       0.0334
     59  N         47.3370   41.6620  118.1930 N.am   99  GLY99      -0.1940
     60  CA        48.7630   41.2570  118.2750 C.3    99  GLY99       0.2014
     61  C         49.4600   41.8030  119.5180 C.2    99  GLY99       0.2638
     62  O         50.0020   41.0340  120.3280 O.2    99  GLY99      -0.2714
     63  N         49.4400   43.1330  119.6840 N.am  100  VAL100     -0.1977
     64  CA        50.3680   43.8020  120.5930 C.3   100  VAL100      0.1596
     65  C         50.1720   43.3120  122.0370 C.2   100  VAL100      0.2287
     66  O         51.0780   43.3780  122.8510 O.2   100  VAL100     -0.2864
     67  CB        50.2880   45.3400  120.4770 C.3   100  VAL100      0.0276
     68  CG1       48.9580   45.9100  120.9460 C.3   100  VAL100      0.0022
     69  CG2       51.4470   46.0060  121.2150 C.3   100  VAL100      0.0022
     70  N         56.7640   38.7510  117.1650 N.3   122  GLN122     -0.1231
     71  CA        55.4100   38.9560  116.6340 C.3   122  GLN122      0.1698
     72  C         55.3190   38.4440  115.1850 C.2   122  GLN122      0.2592
     73  O         56.2360   38.5970  114.4080 O.2   122  GLN122     -0.2718
     74  CB        55.0650   40.4420  116.7210 C.3   122  GLN122      0.0381
     75  CG        54.8260   40.9360  118.1450 C.3   122  GLN122      0.0905
     76  CD        53.4970   40.4250  118.6600 C.2   122  GLN122      0.2608
     77  OE1       53.4030   39.2920  119.1280 O.2   122  GLN122     -0.2717
     78  NE2       52.4590   41.2470  118.5490 N.am  122  GLN122     -0.0878
     79  N         54.1900   37.8100  114.8440 N.am  123  PHE123     -0.1976
     80  CA        53.8800   37.3430  113.4710 C.3   123  PHE123      0.1639
     81  C         55.0710   36.6070  112.8450 C.2   123  PHE123      0.2290
     82  O         55.6070   37.0240  111.8220 O.2   123  PHE123     -0.2864
     83  CB        53.4740   38.5240  112.5900 C.3   123  PHE123      0.0560
     84  CG        52.3290   39.2940  113.1720 C.ar  123  PHE123     -0.0200
     85  CD1       51.0290   38.8380  113.0030 C.ar  123  PHE123     -0.0042
     86  CD2       52.5570   40.4420  113.9180 C.ar  123  PHE123     -0.0042
     87  CE1       49.9660   39.5410  113.5490 C.ar  123  PHE123     -0.0003
     88  CE2       51.5020   41.1340  114.4820 C.ar  123  PHE123     -0.0003
     89  CZ        50.2070   40.6840  114.2920 C.ar  123  PHE123     -0.0000
     90  N         58.4190   38.2480  111.8660 N.3   126  LYS126     -0.1231
     91  CA        58.3110   39.3730  110.9070 C.3   126  LYS126      0.1693
     92  C         58.0670   40.7260  111.6030 C.2   126  LYS126      0.2593
     93  O         58.3090   41.7720  110.9860 O.2   126  LYS126     -0.2718
     94  CB        57.1910   39.1280  109.8870 C.3   126  LYS126      0.0285
     95  CG        57.6510   38.7270  108.4880 C.3   126  LYS126      0.0035
     96  CD        58.2290   39.8830  107.6650 C.3   126  LYS126      0.0206
     97  CE        58.9900   39.4570  106.4180 C.3   126  LYS126      0.1093
     98  NZ        60.3620   38.9730  106.7190 N.3   126  LYS126     -0.1314
     99  N         57.5490   40.7180  112.8420 N.am  127  GLY127     -0.1942
    100  CA        57.1940   41.9460  113.5800 C.3   127  GLY127      0.2014
    101  C         55.9280   42.5950  113.0340 C.2   127  GLY127      0.2640
    102  O         55.5470   42.3540  111.8890 O.2   127  GLY127     -0.2714
    103  N         55.2860   43.4280  113.8680 N.am  128  SER128     -0.1935
    104  CA        53.9740   44.0750  113.5500 C.3   128  SER128      0.2055
    105  C         54.1920   45.2280  112.5620 C.2   128  SER128      0.2643
    106  O         55.1200   46.0420  112.7640 O.2   128  SER128     -0.2714
    107  CB        53.2650   44.5570  114.8200 C.3   128  SER128      0.2130
    108  OG        52.0760   45.2910  114.5250 O.3   128  SER128     -0.2179
    109  N         53.3270   45.3130  111.5330 N.am  129  TYR129     -0.1959
    110  CA        53.3300   46.4620  110.5890 C.3   129  TYR129      0.1771
    111  C         52.2770   47.5080  110.9890 C.2   129  TYR129      0.2620
    112  O         52.0210   48.4440  110.2170 O.2   129  TYR129     -0.2715
    113  CB        53.1570   46.0230  109.1280 C.3   129  TYR129      0.0574
    114  CG        51.9540   45.1620  108.8370 C.ar  129  TYR129     -0.0198
    115  CD1       50.6690   45.5810  109.1530 C.ar  129  TYR129     -0.0009
    116  CD2       52.1010   43.9280  108.2250 C.ar  129  TYR129     -0.0009
    117  CE1       49.5620   44.7970  108.8650 C.ar  129  TYR129      0.0417
    118  CE2       51.0070   43.1260  107.9420 C.ar  129  TYR129      0.0417
    119  CZ        49.7320   43.5610  108.2670 C.ar  129  TYR129      0.1957
    120  OH        48.6480   42.7800  107.9930 O.3   129  TYR129     -0.2866
    121  N         51.7150   47.3780  112.2070 N.am  130  GLY130     -0.1940
    122  CA        50.6380   48.2580  112.7270 C.3   130  GLY130      0.2014
    123  C         51.1320   49.6590  113.0720 C.2   130  GLY130      0.2639
    124  O         52.3650   49.8990  113.2270 O.2   130  GLY130     -0.2714
    125  N         50.1670   50.5770  113.2100 N.am  131  ASN131     -0.1958
    126  CA        50.3920   52.0080  113.3800 C.3   131  ASN131      0.1819
    127  C         50.5470   52.3880  114.8550 C.2   131  ASN131      0.2621
    128  O         50.7390   53.5700  115.2000 O.2   131  ASN131     -0.2715
    129  CB        49.3190   52.8630  112.7130 C.3   131  ASN131      0.1195
    130  CG        47.8770   52.5610  113.0870 C.2   131  ASN131      0.2630
    131  OD1       47.5720   52.0970  114.2070 O.2   131  ASN131     -0.2716
    132  ND2       46.9900   52.8690  112.1480 N.am  131  ASN131     -0.0877
    133  N         50.5700   51.3820  115.7220 N.am  132  GLY132     -0.1954
    134  CA        50.6040   51.6360  117.1480 C.3   132  GLY132      0.1869
    135  C         51.9200   52.2170  117.6060 C.2   132  GLY132      0.2309
    136  O         51.9360   52.8180  118.6640 O.2   132  GLY132     -0.2863
    137  N         51.2470   55.8930  116.6870 N.3   135  MET135     -0.1230
    138  CA        50.0760   56.5390  117.3410 C.3   135  MET135      0.1702
    139  C         50.5060   57.2790  118.6090 C.2   135  MET135      0.2595
    140  O         49.8100   58.2160  119.0180 O.2   135  MET135     -0.2718
    141  CB        48.9750   55.5180  117.6690 C.3   135  MET135      0.0401
    142  CG        49.1180   54.8380  119.0180 C.3   135  MET135      0.0596
    143  SD        48.0180   53.4330  119.1170 S.3   135  MET135     -0.1393
    144  CE        48.6430   52.5420  120.5290 C.3   135  MET135      0.0692
    145  N         51.6740   56.8920  119.1570 N.am  136  ARG136     -0.1934
    146  CA        52.1600   57.3000  120.5100 C.3   136  ARG136      0.1813
    147  C         53.4810   58.0870  120.4500 C.2   136  ARG136      0.2332
    148  O         53.9910   58.5300  121.4620 O.2   136  ARG136     -0.2860
    149  CB        52.3580   56.0440  121.3600 C.2   136  ARG136      0.0019
    150  CG        53.3360   55.0030  120.7980 C.2   136  ARG136      0.0178
    151  CD        53.5890   53.7940  121.6970 C.3   136  ARG136      0.2464
    152  NE        54.6670   52.9030  121.2440 N.pl3 136  ARG136     -0.0815
    153  CZ        54.5360   51.6480  120.8300 C.cat 136  ARG136      0.5349
    154  NH1       53.3490   51.0640  120.8150 N.pl3 136  ARG136      0.1354
    155  NH2       55.6100   50.9770  120.4410 N.pl3 136  ARG136      0.1354
    156  N         57.3100   47.3670  120.4450 N.3   161  THR161     -0.1203
    157  CA        56.0960   46.6500  120.0060 C.3   161  THR161      0.1994
    158  C         56.0900   46.3660  118.4950 C.2   161  THR161      0.2617
    159  O         55.4460   45.3790  118.0590 O.2   161  THR161     -0.2717
    160  CB        54.8200   47.4360  120.3550 C.3   161  THR161      0.1784
    161  OG1       54.8130   48.6990  119.6920 O.3   161  THR161     -0.2211
    162  CG2       54.6900   47.6800  121.8380 C.3   161  THR161      0.0376
    163  N         56.7640   47.2080  117.6980 N.am  162  HIS162     -0.1975
    164  CA        56.6320   47.1380  116.2540 C.3   162  HIS162      0.1656
    165  C         57.9920   46.8420  115.6220 C.2   162  HIS162      0.2291
    166  O         58.7670   47.7640  115.4190 O.2   162  HIS162     -0.2864
    167  CB        55.9540   48.4270  115.7410 C.3   162  HIS162      0.0771
    168  CG        54.5040   48.4440  116.0790 C.ar  162  HIS162      0.0820
    169  ND1       54.0720   48.5430  117.3860 N.ar  162  HIS162     -0.2267
    170  CD2       53.4150   48.2180  115.3060 C.ar  162  HIS162      0.1154
    171  CE1       52.7600   48.4420  117.3950 C.ar  162  HIS162      0.1986
    172  NE2       52.3330   48.2510  116.1200 N.ar  162  HIS162     -0.2212
    173  N         44.8620   50.1450  109.7180 N.3   238  ILE238     -0.1245
    174  CA        45.5910   49.9640  110.9360 C.3   238  ILE238      0.1561
    175  C         47.0810   49.7980  110.6080 C.2   238  ILE238      0.2260
    176  O         47.9120   50.0640  111.4500 O.2   238  ILE238     -0.2867
    177  CB        45.0470   48.7760  111.7560 C.3   238  ILE238      0.0252
    178  CG1       45.0890   47.4490  110.9960 C.3   238  ILE238      0.0019
    179  CG2       43.6520   49.0770  112.2650 C.3   238  ILE238      0.0019
    180  CD1       44.5340   46.2580  111.7630 C.3   238  ILE238      0.0001
    181  N         40.6200   53.5180  110.3600 N.3   281  ASP281     -0.1239
    182  CA        41.1630   53.5910  111.7310 C.3   281  ASP281      0.1674
    183  C         41.1860   55.0610  112.1620 C.2   281  ASP281      0.2266
    184  O         42.2510   55.6700  112.3180 O.2   281  ASP281     -0.2867
    185  CB        42.5280   52.9090  111.8180 C.3   281  ASP281      0.1410
    186  CG        43.0100   52.6730  113.2300 C.2   281  ASP281      0.3668
    187  OD1       42.2390   52.8750  114.1850 O.co2 281  ASP281     -0.2456
    188  OD2       44.1660   52.3330  113.3600 O.co2 281  ASP281     -0.2456
    189  N         40.2970   56.8440  114.6880 N.3   283  ASP283     -0.1225
    190  CA        40.9640   56.9910  115.9350 C.3   283  ASP283      0.1805
    191  C         42.4840   57.3330  115.7940 C.2   283  ASP283      0.2598
    192  O         42.9940   58.3560  116.2970 O.2   283  ASP283     -0.2718
    193  CB        40.6760   55.6370  116.5650 C.3   283  ASP283      0.1424
    194  CG        41.3550   55.4640  117.8660 C.2   283  ASP283      0.3668
    195  OD1       41.4170   56.4760  118.5930 O.co2 283  ASP283     -0.2456
    196  OD2       41.8580   54.3260  118.0810 O.co2 283  ASP283     -0.2456
    197  N         43.2350   56.4740  115.1060 N.am  284  THR284     -0.1953
    198  CA        44.7160   56.5860  115.0800 C.3   284  THR284      0.1897
    199  C         45.1480   57.6440  114.0510 C.2   284  THR284      0.2313
    200  O         46.0970   58.4020  114.2860 O.2   284  THR284     -0.2863
    201  CB        45.3640   55.2120  114.8910 C.3   284  THR284      0.1794
    202  OG1       44.9320   54.4560  116.0170 O.3   284  THR284     -0.2208
    203  CG2       46.8760   55.2670  114.8520 C.3   284  THR284      0.0378
@<TRIPOS>BOND
     1    97    98    1
     2    97    96    1
     3    96    95    1
     4   118   116   ar
     5   118   119   ar
     6   120   119    1
     7   116   114   ar
     8   119   117   ar
     9    95    94    1
    10   114   113    1
    11   114   115   ar
    12   117   115   ar
    13   113   110    1
    14   173   174    1
    15    94    91    1
    16   112   111    2
    17   181   182    1
    18   110   111    1
    19   110   109    1
    20   175   174    1
    21   175   176    2
    22    91    92    1
    23    91    90    1
    24   174   177    1
    25    93    92    2
    26   111   121   am
    27   178   177    1
    28   178   180    1
    29   109   105   am
    30    92    99   am
    31   182   185    1
    32   182   183    1
    33   177   179    1
    34   185   186    1
    35    82    81    2
    36   102   101    2
    37   132   130   am
    38   183   184    2
    39   121   122    1
    40   105   106    2
    41   105   104    1
    42    83    84    1
    43    83    80    1
    44   129   130    1
    45   129   126    1
    46   122   123    1
    47    99   100    1
    48    81    80    1
    49    85    84   ar
    50    85    87   ar
    51   101   100    1
    52   101   103   am
    53   123   125   am
    54   123   124    2
    55   130   131    2
    56    84    86   ar
    57   125   126    1
    58   186   188   ar
    59   186   187   ar
    60   126   127    1
    61    80    79    1
    62    87    89   ar
    63   104   103    1
    64   104   107    1
    65     3     4    2
    66     3     2    1
    67    86    88   ar
    68   199   200    2
    69   199   198    1
    70    89    88   ar
    71    73    72    2
    72     2     1    1
    73     2     5    1
    74   108   107    1
    75   189   190    1
    76    79    72   am
    77   203   201    1
    78   127   128    2
    79   127   133   am
    80   201   198    1
    81   201   202    1
    82   198   197    1
    83   197   191   am
    84    72    71    1
    85     6     5    1
    86     6     7    1
    87   170   168   ar
    88   170   172   ar
    89   166   165    2
    90   165   164    1
    91   133   134    1
    92   167   168    1
    93   167   164    1
    94   191   190    1
    95   191   192    2
    96   190   193    1
    97   168   169   ar
    98   172   171   ar
    99   164   163    1
   100     9     7   ar
   101     7     8   ar
   102   193   194    1
   103    71    74    1
   104    71    70    1
   105   137   138    1
   106    74    75    1
   107   134   135    1
   108   138   141    1
   109   138   139    1
   110   169   171   ar
   111   135   136    2
   112   141   142    1
   113   163   158   am
   114   194   196   ar
   115   194   195   ar
   116    58    55    1
   117   159   158    2
   118    75    76    1
   119    25    23   ar
   120    59    60    1
   121    59    56   am
   122    60    61    1
   123   158   157    1
   124    78    76   am
   125    54    55    1
   126    54    52   am
   127   139   140    2
   128   139   145   am
   129    76    77    2
   130    51    52    1
   131    51    50    1
   132    55    56    1
   133   142   143    1
   134   143   144    1
   135    56    57    2
   136   145   146    1
   137    23    24   ar
   138    23    22    1
   139    52    53    2
   140    61    63   am
   141    61    62    2
   142    63    64    1
   143   161   160    1
   144    50    40   am
   145   157   160    1
   146   157   156    1
   147   160   162    1
   148   155   153    1
   149   147   146    1
   150   147   148    2
   151    67    64    1
   152    67    68    1
   153    67    69    1
   154    22    19    1
   155   146   149    1
   156    64    65    1
   157    37    36    2
   158    17    15   ar
   159   150   149    2
   160   150   151    1
   161   154   153    1
   162   153   152    2
   163    41    40    2
   164    40    39    1
   165   152   151    1
   166    16    15   ar
   167    15    14    1
   168    19    18    1
   169    19    20    1
   170    36    38   am
   171    36    35    1
   172    39    38    1
   173    39    42    1
   174    65    66    2
   175    18    12   am
   176    35    34    1
   177    20    21    2
   178    32    33    1
   179    32    31    1
   180    14    11    1
   181    42    43    1
   182    12    11    1
   183    12    13    2
   184    10    11    1
   185    44    43   ar
   186    44    46   ar
   187    30    31    1
   188    30    27    1
   189    43    45   ar
   190    46    48   ar
   191    45    47   ar
   192    28    27    1
   193    28    29    2
   194    27    26    1
   195    48    47   ar
   196    48    49    1
