@<TRIPOS>MOLECULE
tmp/6g1tA00.pdb
 99 98 0 0 0
SMALL
GASTEIGER

@<TRIPOS>ATOM
      1  N         14.8270   39.4790   39.1440 N.3    34  HIS34      -0.1241
      2  CA        14.0180   39.5260   40.3600 C.3    34  HIS34       0.1621
      3  C         12.9840   38.4110   40.4030 C.2    34  HIS34       0.2264
      4  O         12.6420   37.9300   41.4890 O.2    34  HIS34      -0.2867
      5  CB        13.3200   40.8820   40.4920 C.3    34  HIS34       0.0745
      6  CG        12.5500   41.0320   41.7680 C.ar   34  HIS34       0.0817
      7  ND1       13.1560   41.3000   42.9770 N.ar   34  HIS34      -0.2268
      8  CD2       11.2250   40.9200   42.0280 C.ar   34  HIS34       0.1154
      9  CE1       12.2360   41.3630   43.9250 C.ar   34  HIS34       0.1986
     10  NE2       11.0560   41.1360   43.3750 N.ar   34  HIS34      -0.2212
     11  N         14.9920   35.7020   41.9510 N.3    37  LEU37      -0.1231
     12  CA        15.6290   35.9870   43.2330 C.3    37  LEU37       0.1693
     13  C         14.6180   36.2000   44.3490 C.2    37  LEU37       0.2591
     14  O         14.9180   35.9230   45.5130 O.2    37  LEU37      -0.2718
     15  CB        16.5230   37.2180   43.0910 C.3    37  LEU37       0.0284
     16  CG        17.7220   37.0830   42.1480 C.3    37  LEU37       0.0019
     17  CD1       18.3620   38.4620   41.9390 C.3    37  LEU37       0.0001
     18  CD2       18.7190   36.0960   42.7400 C.3    37  LEU37       0.0001
     19  N         13.4130   36.6620   44.0170 N.am   38  LYS38      -0.1980
     20  CA        12.4460   37.0290   45.0440 C.3    38  LYS38       0.1596
     21  C         11.9740   35.8340   45.8580 C.2    38  LYS38       0.2287
     22  O         11.3960   36.0230   46.9300 O.2    38  LYS38      -0.2864
     23  CB        11.2500   37.7130   44.3960 C.3    38  LYS38       0.0298
     24  CG        10.3640   36.7580   43.6060 C.3    38  LYS38       0.0038
     25  CD         9.2110   37.5080   42.9630 C.3    38  LYS38       0.0206
     26  CE         8.0530   36.5830   42.6270 C.3    38  LYS38       0.1093
     27  NZ         8.3590   35.6430   41.5170 N.3    38  LYS38      -0.1314
     28  N         13.9150   33.7250   47.3780 N.3    40  PHE40      -0.1227
     29  CA        14.9500   33.2970   48.3080 C.3    40  PHE40       0.1736
     30  C         15.4030   34.4220   49.2220 C.2    40  PHE40       0.2595
     31  O         15.3310   35.6010   48.8650 O.2    40  PHE40      -0.2718
     32  CB        16.2120   32.8110   47.5830 C.3    40  PHE40       0.0547
     33  CG        15.9790   31.6760   46.6550 C.ar   40  PHE40      -0.0202
     34  CD1       16.0600   30.3720   47.1160 C.ar   40  PHE40      -0.0042
     35  CD2       15.7110   31.9050   45.3180 C.ar   40  PHE40      -0.0042
     36  CE1       15.8640   29.3040   46.2550 C.ar   40  PHE40      -0.0003
     37  CE2       15.5110   30.8380   44.4470 C.ar   40  PHE40      -0.0003
     38  CZ        15.5930   29.5410   44.9220 C.ar   40  PHE40      -0.0000
     39  N         15.8960   34.0320   50.4000 N.am   41  ASN41      -0.1960
     40  CA        16.8450   34.8500   51.1300 C.3    41  ASN41       0.1819
     41  C         18.2110   34.5990   50.5160 C.2    41  ASN41       0.2621
     42  O         18.5930   33.4460   50.3090 O.2    41  ASN41      -0.2715
     43  CB        16.8750   34.4920   52.6120 C.3    41  ASN41       0.1195
     44  CG        15.7680   35.1530   53.4040 C.2    41  ASN41       0.2630
     45  OD1       14.7200   35.4900   52.8590 O.2    41  ASN41      -0.2716
     46  ND2       15.9870   35.3140   54.7120 N.am   41  ASN41      -0.0877
     47  N         18.9320   35.6670   50.1960 N.am   42  TYR42      -0.1960
     48  CA        20.2970   35.5020   49.7040 C.3    42  TYR42       0.1771
     49  C         21.1130   36.7360   50.0520 C.2    42  TYR42       0.2619
     50  O         20.5730   37.8210   50.3080 O.2    42  TYR42      -0.2715
     51  CB        20.3390   35.2520   48.1810 C.3    42  TYR42       0.0574
     52  CG        19.7180   36.3960   47.4490 C.ar   42  TYR42      -0.0198
     53  CD1       18.3380   36.4430   47.2860 C.ar   42  TYR42      -0.0009
     54  CD2       20.4860   37.4470   46.9400 C.ar   42  TYR42      -0.0009
     55  CE1       17.7310   37.4800   46.6420 C.ar   42  TYR42       0.0417
     56  CE2       19.8680   38.5210   46.2910 C.ar   42  TYR42       0.0417
     57  CZ        18.4780   38.5130   46.1520 C.ar   42  TYR42       0.1957
     58  OH        17.7820   39.5180   45.5250 O.3    42  TYR42      -0.2866
     59  N         22.4400   36.5620   50.0400 N.am   43  ARG43      -0.1977
     60  CA        23.3660   37.6580   50.2960 C.3    43  ARG43       0.1597
     61  C         24.7580   37.2100   49.8910 C.2    43  ARG43       0.2287
     62  O         25.1670   36.0970   50.2400 O.2    43  ARG43      -0.2864
     63  CB        23.3730   38.0800   51.7800 C.3    43  ARG43       0.0334
     64  CG        24.1960   39.3880   51.9790 C.3    43  ARG43       0.0492
     65  CD        24.0040   40.0170   53.3620 C.3    43  ARG43       0.2205
     66  NE        22.5910   40.3510   53.5450 N.pl3  43  ARG43      -0.0865
     67  CZ        22.0340   41.4570   53.0420 C.cat  43  ARG43       0.5346
     68  NH1       22.7830   42.2990   52.3470 N.pl3  43  ARG43       0.1354
     69  NH2       20.7350   41.7060   53.2110 N.pl3  43  ARG43       0.1354
     70  N         15.8780   33.0280   58.1600 N.3    57  ASN57      -0.1225
     71  CA        17.3250   32.9510   58.3370 C.3    57  ASN57       0.1785
     72  C         17.9480   34.3040   58.0300 C.2    57  ASN57       0.2597
     73  O         17.8940   34.7620   56.8840 O.2    57  ASN57      -0.2718
     74  CB        17.9000   31.8860   57.4060 C.3    57  ASN57       0.1169
     75  CG        17.9200   30.5160   58.0400 C.2    57  ASN57       0.2627
     76  OD1       18.0770   30.3910   59.2470 O.2    57  ASN57      -0.2716
     77  ND2       17.7580   29.4790   57.2260 N.am   57  ASN57      -0.0877
     78  N         18.5580   34.9330   59.0350 N.am   58  ASP58      -0.1960
     79  CA        19.2160   36.2280   58.8640 C.3    58  ASP58       0.1840
     80  C         20.6430   35.9660   58.3990 C.2    58  ASP58       0.2622
     81  O         21.5500   35.7710   59.2100 O.2    58  ASP58      -0.2715
     82  CB        19.1850   37.0210   60.1700 C.3    58  ASP58       0.1450
     83  CG        19.9400   38.3490   60.0730 C.2    58  ASP58       0.3671
     84  OD1       20.2550   38.7760   58.9460 O.co2  58  ASP58      -0.2456
     85  OD2       20.2140   38.9760   61.1230 O.co2  58  ASP58      -0.2456
     86  N         20.8540   35.9780   57.0780 N.am   59  LEU59      -0.1963
     87  CA        22.1750   35.6620   56.5220 C.3    59  LEU59       0.1728
     88  C         23.2070   36.7280   56.8310 C.2    59  LEU59       0.2616
     89  O         24.4160   36.4500   56.7400 O.2    59  LEU59      -0.2715
     90  CB        22.0870   35.4710   55.0060 C.3    59  LEU59       0.0311
     91  CG        21.0090   34.4930   54.5240 C.3    59  LEU59       0.0022
     92  CD1       21.0110   34.3940   52.9920 C.3    59  LEU59       0.0001
     93  CD2       21.2160   33.1190   55.1450 C.3    59  LEU59       0.0001
     94  N         22.7750   37.9390   57.2070 N.am   60  SER60      -0.1950
     95  CA        23.7700   38.9160   57.6340 C.3    60  SER60       0.1924
     96  C         24.4370   38.5230   58.9370 C.2    60  SER60       0.2314
     97  O         25.3880   39.2000   59.3420 O.2    60  SER60      -0.2863
     98  CB        23.1530   40.3210   57.7720 C.3    60  SER60       0.2116
     99  OG        22.3250   40.4180   58.9310 O.3    60  SER60      -0.2180
@<TRIPOS>BOND
     1     1     2    1
     2     2     3    1
     3     2     5    1
     4     3     4    2
     5     5     6    1
     6    27    26    1
     7     6     8   ar
     8     6     7   ar
     9    17    16    1
    10    11    12    1
    11     8    10   ar
    12    16    18    1
    13    16    15    1
    14    26    25    1
    15    25    24    1
    16     7     9   ar
    17    15    12    1
    18    12    13    1
    19    10     9   ar
    20    24    23    1
    21    19    13   am
    22    19    20    1
    23    13    14    2
    24    23    20    1
    25    37    38   ar
    26    37    35   ar
    27    38    36   ar
    28    20    21    1
    29    35    33   ar
    30    58    57    1
    31    21    22    2
    32    57    56   ar
    33    57    55   ar
    34    36    34   ar
    35    56    54   ar
    36    55    53   ar
    37    33    34   ar
    38    33    32    1
    39    54    52   ar
    40    53    52   ar
    41    28    29    1
    42    52    51    1
    43    32    29    1
    44    51    48    1
    45    29    30    1
    46    31    30    2
    47    30    39   am
    48    48    49    1
    49    48    47    1
    50    61    62    2
    51    61    60    1
    52    59    49   am
    53    59    60    1
    54    49    50    2
    55    47    41   am
    56    60    63    1
    57    42    41    2
    58    39    40    1
    59    41    40    1
    60    40    43    1
    61    63    64    1
    62    64    65    1
    63    68    67    1
    64    43    44    1
    65    45    44    2
    66    92    91    1
    67    67    69    1
    68    67    66    2
    69    65    66    1
    70    44    46   am
    71    91    90    1
    72    91    93    1
    73    90    87    1
    74    87    88    1
    75    87    86    1
    76    89    88    2
    77    88    94   am
    78    73    72    2
    79    86    80   am
    80    94    95    1
    81    77    75   am
    82    74    75    1
    83    74    71    1
    84    95    98    1
    85    95    96    1
    86    98    99    1
    87    72    71    1
    88    72    78   am
    89    75    76    2
    90    70    71    1
    91    80    79    1
    92    80    81    2
    93    79    78    1
    94    79    82    1
    95    96    97    2
    96    84    83   ar
    97    83    82    1
    98    83    85   ar
