@<TRIPOS>MOLECULE
tmp/6g1uA05.pdb
 125 126 0 0 0
SMALL
GASTEIGER

@<TRIPOS>ATOM
      1  N          5.9870    5.2740   13.6690 N.3    67  TYR67      -0.1241
      2  CA         7.2150    4.7120   14.2080 C.3    67  TYR67       0.1605
      3  C          7.2800    3.2150   13.9270 C.2    67  TYR67       0.2264
      4  O          6.3090    2.4900   14.1470 O.2    67  TYR67      -0.2867
      5  CB         7.2620    4.9720   15.7160 C.3    67  TYR67       0.0534
      6  CG         8.4890    4.3790   16.3710 C.ar   67  TYR67      -0.0201
      7  CD1        9.6790    5.0820   16.4080 C.ar   67  TYR67      -0.0009
      8  CD2        8.4510    3.1090   16.9330 C.ar   67  TYR67      -0.0009
      9  CE1       10.8110    4.5370   17.0000 C.ar   67  TYR67       0.0417
     10  CE2        9.5700    2.5550   17.5250 C.ar   67  TYR67       0.0417
     11  CZ        10.7410    3.2720   17.5540 C.ar   67  TYR67       0.1957
     12  OH        11.8530    2.7190   18.1450 O.3    67  TYR67      -0.2866
     13  N          0.0720    5.2180   18.5010 N.3   118  TYR118     -0.1241
     14  CA         1.2050    5.6890   17.7140 C.3   118  TYR118      0.1605
     15  C          1.5860    4.7250   16.5960 C.2   118  TYR118      0.2264
     16  O          2.4940    5.0250   15.8120 O.2   118  TYR118     -0.2867
     17  CB         2.4270    5.9410   18.6200 C.3   118  TYR118      0.0534
     18  CG         3.1190    4.6870   19.1110 C.ar  118  TYR118     -0.0201
     19  CD1        4.1480    4.0910   18.3760 C.ar  118  TYR118     -0.0009
     20  CD2        2.7760    4.1180   20.3360 C.ar  118  TYR118     -0.0009
     21  CE1        4.7830    2.9410   18.8350 C.ar  118  TYR118      0.0417
     22  CE2        3.4150    2.9720   20.8050 C.ar  118  TYR118      0.0417
     23  CZ         4.4120    2.3920   20.0550 C.ar  118  TYR118      0.1957
     24  OH         5.0340    1.2560   20.5330 O.3   118  TYR118     -0.2866
     25  N          8.6730   11.1170   20.0520 N.3   276  TRP276     -0.1227
     26  CA         8.8630   10.7380   21.4410 C.3   276  TRP276      0.1737
     27  C          9.4510   11.8620   22.2810 C.2   276  TRP276      0.2595
     28  O          9.3760   11.7980   23.5140 O.2   276  TRP276     -0.2718
     29  CB         9.7430    9.4990   21.4990 C.3   276  TRP276      0.0564
     30  CG         9.1590    8.3260   20.7860 C.ar  276  TRP276      0.0003
     31  CD1        9.4270    7.9180   19.5000 C.ar  276  TRP276      0.0946
     32  CD2        8.1720    7.4210   21.2970 C.ar  276  TRP276      0.0152
     33  NE1        8.6820    6.8080   19.1960 N.ar  276  TRP276     -0.2442
     34  CE2        7.8970    6.4850   20.2760 C.ar  276  TRP276      0.0810
     35  CE3        7.4980    7.3060   22.5240 C.ar  276  TRP276      0.0012
     36  CZ2        6.9740    5.4490   20.4400 C.ar  276  TRP276      0.0191
     37  CZ3        6.5880    6.2730   22.6890 C.ar  276  TRP276      0.0001
     38  CH2        6.3300    5.3600   21.6520 C.ar  276  TRP276      0.0015
     39  N         10.0220   12.8920   21.6500 N.am  277  ASN277     -0.1974
     40  CA        10.6800   13.9570   22.3960 C.3   277  ASN277      0.1688
     41  C          9.7110   14.8320   23.1720 C.2   277  ASN277      0.2292
     42  O         10.1570   15.5960   24.0330 O.2   277  ASN277     -0.2864
     43  CB        11.4990   14.8540   21.4620 C.3   277  ASN277      0.1181
     44  CG        12.6080   14.1080   20.7540 C.2   277  ASN277      0.2629
     45  OD1       12.8060   12.9140   20.9610 O.2   277  ASN277     -0.2716
     46  ND2       13.3240   14.8120   19.8840 N.am  277  ASN277     -0.0877
     47  N          7.2110   13.8390   25.2060 N.3   279  LEU279     -0.1245
     48  CA         6.6870   13.2760   26.4450 C.3   279  LEU279      0.1561
     49  C          7.2310   14.0600   27.6370 C.2   279  LEU279      0.2260
     50  O          8.3870   14.4960   27.6190 O.2   279  LEU279     -0.2867
     51  CB         7.0540   11.7990   26.5740 C.3   279  LEU279      0.0270
     52  CG         6.2810   10.8040   25.7090 C.3   279  LEU279      0.0019
     53  CD1        6.8930    9.4020   25.8140 C.3   279  LEU279      0.0001
     54  CD2        4.7950   10.7860   26.0720 C.3   279  LEU279      0.0001
     55  N         10.4780   10.7420   31.4680 N.3   282  ASP282     -0.1225
     56  CA        10.9900    9.4100   31.1840 C.3   282  ASP282      0.1805
     57  C         10.0000    8.3930   31.7210 C.2   282  ASP282      0.2598
     58  O          9.6380    8.4400   32.8980 O.2   282  ASP282     -0.2718
     59  CB        12.3660    9.2070   31.8310 C.3   282  ASP282      0.1424
     60  CG        13.4800    9.8380   31.0320 C.2   282  ASP282      0.3668
     61  OD1       14.4950   10.2520   31.6320 O.co2 282  ASP282     -0.2456
     62  OD2       13.3290    9.9360   29.7910 O.co2 282  ASP282     -0.2456
     63  N          9.5620    7.4790   30.8690 N.am  283  SER283     -0.1938
     64  CA         8.4280    6.6540   31.2410 C.3   283  SER283      0.2055
     65  C          8.3740    5.4250   30.3590 C.2   283  SER283      0.2643
     66  O          9.0200    5.3510   29.3070 O.2   283  SER283     -0.2714
     67  CB         7.1160    7.4340   31.1300 C.3   283  SER283      0.2130
     68  OG         7.0180    8.0260   29.8460 O.3   283  SER283     -0.2179
     69  N          7.6150    4.4400   30.8180 N.am  284  ILE284     -0.1963
     70  CA         7.2110    3.3660   29.9350 C.3   284  ILE284      0.1727
     71  C          5.6890    3.3390   29.9210 C.2   284  ILE284      0.2616
     72  O          5.0210    3.8370   30.8360 O.2   284  ILE284     -0.2715
     73  CB         7.7950    1.9980   30.3330 C.3   284  ILE284      0.0290
     74  CG1        7.1950    1.5130   31.6410 C.3   284  ILE284      0.0022
     75  CG2        9.3340    2.0810   30.4530 C.3   284  ILE284      0.0023
     76  CD1        7.6460    0.1180   31.9980 C.3   284  ILE284      0.0001
     77  N          5.1470    2.7630   28.8540 N.am  285  PHE285     -0.1960
     78  CA         3.6910    2.7110   28.6660 C.3   285  PHE285      0.1771
     79  C          3.0820    4.1200   28.6470 C.2   285  PHE285      0.2619
     80  O          1.9940    4.3600   29.1810 O.2   285  PHE285     -0.2715
     81  CB         3.0320    1.8260   29.7350 C.3   285  PHE285      0.0574
     82  CG         1.9130    0.9490   29.2060 C.ar  285  PHE285     -0.0200
     83  CD1        1.8110   -0.3720   29.6000 C.ar  285  PHE285     -0.0042
     84  CD2        0.9870    1.4440   28.2970 C.ar  285  PHE285     -0.0042
     85  CE1        0.7970   -1.1800   29.1390 C.ar  285  PHE285     -0.0003
     86  CE2       -0.0410    0.6390   27.8040 C.ar  285  PHE285     -0.0003
     87  CZ        -0.1440   -0.6740   28.2220 C.ar  285  PHE285     -0.0000
     88  N          3.7940    5.0740   28.0400 N.am  286  ARG286     -0.1963
     89  CA         3.2310    6.3910   27.7590 C.3   286  ARG286      0.1729
     90  C          3.5330    6.7540   26.3130 C.2   286  ARG286      0.2616
     91  O          4.6200    6.4550   25.8060 O.2   286  ARG286     -0.2715
     92  CB         3.7780    7.4800   28.6870 C.3   286  ARG286      0.0348
     93  CG         3.3770    7.3360   30.1660 C.3   286  ARG286      0.0492
     94  CD         1.8760    7.5190   30.3740 C.3   286  ARG286      0.2205
     95  NE         1.5270    7.4660   31.8030 N.pl3 286  ARG286     -0.0865
     96  CZ         1.2180    6.3480   32.4520 C.cat 286  ARG286      0.5346
     97  NH1        1.2260    5.1860   31.8090 N.pl3 286  ARG286      0.1354
     98  NH2        0.9130    6.3900   33.7530 N.pl3 286  ARG286      0.1354
     99  N          2.5700    7.4060   25.6600 N.am  287  PHE287     -0.1974
    100  CA         2.6270    7.6650   24.2260 C.3   287  PHE287      0.1639
    101  C          2.3100    9.1310   23.9640 C.2   287  PHE287      0.2290
    102  O          1.5290    9.7510   24.6860 O.2   287  PHE287     -0.2864
    103  CB         1.6690    6.7300   23.4890 C.3   287  PHE287      0.0560
    104  CG         1.7190    5.3140   24.0000 C.ar  287  PHE287     -0.0200
    105  CD1        2.8590    4.5380   23.8170 C.ar  287  PHE287     -0.0042
    106  CD2        0.6560    4.7800   24.7110 C.ar  287  PHE287     -0.0042
    107  CE1        2.9300    3.2350   24.3110 C.ar  287  PHE287     -0.0003
    108  CE2        0.7100    3.4810   25.1970 C.ar  287  PHE287     -0.0003
    109  CZ         1.8540    2.7060   24.9970 C.ar  287  PHE287     -0.0000
    110  N         11.2690   -3.3410   26.7140 N.3   331  TYR331     -0.1227
    111  CA        11.6690   -2.2420   25.8490 C.3   331  TYR331      0.1736
    112  C         12.1850   -1.0440   26.6250 C.2   331  TYR331      0.2596
    113  O         13.0550   -0.3340   26.1230 O.2   331  TYR331     -0.2718
    114  CB        10.5040   -1.8240   24.9450 C.3   331  TYR331      0.0548
    115  CG        10.3990   -2.6800   23.7100 C.ar  331  TYR331     -0.0200
    116  CD1       10.0270   -4.0150   23.8000 C.ar  331  TYR331     -0.0009
    117  CD2       10.7000   -2.1630   22.4530 C.ar  331  TYR331     -0.0009
    118  CE1        9.9290   -4.8140   22.6730 C.ar  331  TYR331      0.0417
    119  CE2       10.6090   -2.9570   21.3190 C.ar  331  TYR331      0.0417
    120  CZ        10.2250   -4.2780   21.4380 C.ar  331  TYR331      0.1957
    121  OH        10.1290   -5.0780   20.3270 O.3   331  TYR331     -0.2866
    122  N         11.7210   -0.8180   27.8510 N.am  332  GLY332     -0.1957
    123  CA        12.0170    0.4530   28.4770 C.3   332  GLY332      0.1869
    124  C         12.6710    0.4460   29.8450 C.2   332  GLY332      0.2309
    125  O         13.0230    1.5160   30.3410 O.2   332  GLY332     -0.2863
@<TRIPOS>BOND
     1     1     2    1
     2     3     4    2
     3     3     2    1
     4     2     5    1
     5     5     6    1
     6    16    15    2
     7     6     7   ar
     8     6     8   ar
     9     7     9   ar
    10    15    14    1
    11     8    10   ar
    12     9    11   ar
    13    10    11   ar
    14    11    12    1
    15    14    13    1
    16    14    17    1
    17    19    21   ar
    18    19    18   ar
    19    17    18    1
    20    21    23   ar
    21    18    20   ar
    22    33    31   ar
    23    33    34   ar
    24    31    30   ar
    25    46    44   am
    26    25    26    1
    27    23    24    1
    28    23    22   ar
    29    34    36   ar
    30    34    32   ar
    31   121   120    1
    32    20    22   ar
    33    36    38   ar
    34    44    45    2
    35    44    43    1
    36    30    32   ar
    37    30    29    1
    38    32    35   ar
    39   119   120   ar
    40   119   117   ar
    41   120   118   ar
    42    26    29    1
    43    26    27    1
    44    43    40    1
    45    39    27   am
    46    39    40    1
    47    38    37   ar
    48    27    28    2
    49    40    41    1
    50   117   115   ar
    51    35    37   ar
    52   118   116   ar
    53    41    42    2
    54   103   104    1
    55   103   100    1
    56   115   116   ar
    57   115   114    1
    58   105   104   ar
    59   105   107   ar
    60   101   100    1
    61   101   102    2
    62   104   106   ar
    63   100    99    1
    64   107   109   ar
    65   106   108   ar
    66   114   111    1
    67   109   108   ar
    68    47    48    1
    69    99    90   am
    70    52    53    1
    71    52    54    1
    72    52    51    1
    73    91    90    2
    74   111   112    1
    75   111   110    1
    76   113   112    2
    77    90    89    1
    78    48    51    1
    79    48    49    1
    80   112   122   am
    81    50    49    2
    82    89    88    1
    83    89    92    1
    84    86    87   ar
    85    86    84   ar
    86   122   123    1
    87    88    79   am
    88    87    85   ar
    89    84    82   ar
    90   123   124    1
    91    79    78    1
    92    79    80    2
    93    78    77    1
    94    78    81    1
    95    92    93    1
    96    77    71   am
    97    85    83   ar
    98    82    83   ar
    99    82    81    1
   100    66    65    2
   101    62    60   ar
   102   124   125    2
   103    68    67    1
   104    71    70    1
   105    71    72    2
   106    70    73    1
   107    70    69    1
   108    93    94    1
   109    73    75    1
   110    73    74    1
   111    65    69   am
   112    65    64    1
   113    94    95    1
   114    63    64    1
   115    63    57   am
   116    60    61   ar
   117    60    59    1
   118    67    64    1
   119    56    55    1
   120    56    57    1
   121    56    59    1
   122    74    76    1
   123    57    58    2
   124    95    96    2
   125    97    96    1
   126    96    98    1
