@<TRIPOS>MOLECULE
tmp/6g1uA03.pdb
 164 162 0 0 0
SMALL
GASTEIGER

@<TRIPOS>ATOM
      1  N          9.2680   -0.3300   14.8080 N.3    69  ASP69      -0.1239
      2  CA        10.0850   -0.9200   15.8660 C.3    69  ASP69       0.1674
      3  C         11.2410   -1.6880   15.2390 C.2    69  ASP69       0.2266
      4  O         11.0320   -2.6810   14.5370 O.2    69  ASP69      -0.2867
      5  CB         9.2200   -1.8320   16.7300 C.3    69  ASP69       0.1410
      6  CG        10.0350   -2.6840   17.6850 C.2    69  ASP69       0.3668
      7  OD1       11.1590   -2.2750   18.0720 O.co2  69  ASP69      -0.2456
      8  OD2        9.5380   -3.7690   18.0460 O.co2  69  ASP69      -0.2456
      9  N          8.7170  -11.9720   16.7130 N.3    77  GLY77      -0.1210
     10  CA         7.8860  -11.5400   17.8280 C.3    77  GLY77       0.1956
     11  C          7.6290  -10.0460   17.8330 C.2    77  GLY77       0.2612
     12  O          6.5790   -9.5910   18.3020 O.2    77  GLY77      -0.2717
     13  N          8.5860   -9.2630   17.3400 N.am   78  SER78      -0.1952
     14  CA         8.4200   -7.8230   17.2080 C.3    78  SER78       0.1924
     15  C          7.9890   -7.4190   15.8030 C.2    78  SER78       0.2314
     16  O          7.1620   -6.5140   15.6480 O.2    78  SER78      -0.2863
     17  CB         9.7240   -7.1060   17.5790 C.3    78  SER78       0.2116
     18  OG        10.8110   -7.5970   16.8150 O.3    78  SER78      -0.2180
     19  N          4.2310   -7.0950   14.4180 N.3    81  TRP81      -0.1241
     20  CA         3.4140   -5.9360   14.7190 C.3    81  TRP81       0.1605
     21  C          3.7410   -4.7410   13.8430 C.2    81  TRP81       0.2264
     22  O          2.9970   -3.7580   13.8580 O.2    81  TRP81      -0.2867
     23  CB         3.5940   -5.5420   16.1840 C.3    81  TRP81       0.0550
     24  CG         3.3330   -6.6700   17.1050 C.ar   81  TRP81       0.0003
     25  CD1        4.2600   -7.4240   17.7700 C.ar   81  TRP81       0.0946
     26  CD2        2.0530   -7.1980   17.4580 C.ar   81  TRP81       0.0152
     27  NE1        3.6280   -8.3890   18.5220 N.ar   81  TRP81      -0.2442
     28  CE2        2.2720   -8.2610   18.3580 C.ar   81  TRP81       0.0810
     29  CE3        0.7400   -6.8640   17.1150 C.ar   81  TRP81       0.0012
     30  CZ2        1.2300   -9.0010   18.9000 C.ar   81  TRP81       0.0191
     31  CZ3       -0.2970   -7.5990   17.6570 C.ar   81  TRP81       0.0001
     32  CH2       -0.0490   -8.6530   18.5410 C.ar   81  TRP81       0.0015
     33  N         -4.7920   -1.9850   17.9400 N.3   114  GLY114     -0.1210
     34  CA        -4.0670   -1.2260   18.9310 C.3   114  GLY114      0.1956
     35  C         -2.6800   -0.8440   18.4420 C.2   114  GLY114      0.2612
     36  O         -2.3460   -0.9660   17.2600 O.2   114  GLY114     -0.2717
     37  N         -1.8500   -0.4080   19.3920 N.am  115  GLY115     -0.1956
     38  CA        -0.5480    0.1400   19.0620 C.3   115  GLY115      0.1869
     39  C         -0.2870    1.4640   19.7460 C.2   115  GLY115      0.2309
     40  O          0.4110    2.3180   19.1960 O.2   115  GLY115     -0.2863
     41  N          0.0720    5.2180   18.5010 N.3   118  TYR118     -0.1227
     42  CA         1.2050    5.6890   17.7140 C.3   118  TYR118      0.1736
     43  C          1.5860    4.7250   16.5960 C.2   118  TYR118      0.2596
     44  O          2.4940    5.0250   15.8120 O.2   118  TYR118     -0.2718
     45  CB         2.4270    5.9410   18.6200 C.3   118  TYR118      0.0548
     46  CG         3.1190    4.6870   19.1110 C.ar  118  TYR118     -0.0200
     47  CD1        4.1480    4.0910   18.3760 C.ar  118  TYR118     -0.0009
     48  CD2        2.7760    4.1180   20.3360 C.ar  118  TYR118     -0.0009
     49  CE1        4.7830    2.9410   18.8350 C.ar  118  TYR118      0.0417
     50  CE2        3.4150    2.9720   20.8050 C.ar  118  TYR118      0.0417
     51  CZ         4.4120    2.3920   20.0550 C.ar  118  TYR118      0.1957
     52  OH         5.0340    1.2560   20.5330 O.3   118  TYR118     -0.2866
     53  N          0.9130    3.5830   16.4900 N.am  119  SER119     -0.1952
     54  CA         1.3080    2.5430   15.5510 C.3   119  SER119      0.1924
     55  C          0.1240    1.6150   15.3650 C.2   119  SER119      0.2314
     56  O         -0.9000    1.7390   16.0360 O.2   119  SER119     -0.2863
     57  CB         2.5200    1.7610   16.0600 C.3   119  SER119      0.2116
     58  OG         2.1930    1.1340   17.2960 O.3   119  SER119     -0.2180
     59  N         -4.1710  -10.2580   12.2380 N.3   127  TYR127     -0.1241
     60  CA        -5.5220   -9.7130   12.1250 C.3   127  TYR127      0.1605
     61  C         -6.2600  -10.2300   10.8890 C.2   127  TYR127      0.2264
     62  O         -7.3200   -9.6960   10.5510 O.2   127  TYR127     -0.2867
     63  CB        -5.4990   -8.1770   12.0840 C.3   127  TYR127      0.0534
     64  CG        -4.8060   -7.4430   13.2360 C.ar  127  TYR127     -0.0201
     65  CD1       -4.7330   -7.9870   14.5220 C.ar  127  TYR127     -0.0009
     66  CD2       -4.2430   -6.1850   13.0260 C.ar  127  TYR127     -0.0009
     67  CE1       -4.0970   -7.2900   15.5580 C.ar  127  TYR127      0.0417
     68  CE2       -3.6190   -5.4880   14.0410 C.ar  127  TYR127      0.0417
     69  CZ        -3.5560   -6.0430   15.3140 C.ar  127  TYR127      0.1957
     70  OH        -2.9250   -5.3390   16.3180 O.3   127  TYR127     -0.2866
     71  N         -8.0400   -4.3900   20.6610 N.3   196  GLU196     -0.1231
     72  CA        -7.1050   -4.7300   21.7240 C.3   196  GLU196      0.1699
     73  C         -6.1990   -3.5400   22.0290 C.2   196  GLU196      0.2592
     74  O         -5.8240   -2.7850   21.1300 O.2   196  GLU196     -0.2718
     75  CB        -6.2840   -5.9720   21.3290 C.3   196  GLU196      0.0402
     76  CG        -5.3040   -6.4720   22.3910 C.3   196  GLU196      0.1161
     77  CD        -3.9490   -5.8030   22.3090 C.2   196  GLU196      0.3649
     78  OE1       -3.6800   -5.0900   21.3100 O.co2 196  GLU196     -0.2457
     79  OE2       -3.1450   -5.9950   23.2530 O.co2 196  GLU196     -0.2457
     80  N         -5.8680   -3.3700   23.3150 N.am  197  SER197     -0.1952
     81  CA        -4.9830   -2.3100   23.8090 C.3   197  SER197      0.1924
     82  C         -5.5370   -0.9550   23.3870 C.2   197  SER197      0.2314
     83  O         -6.6670   -0.6260   23.7840 O.2   197  SER197     -0.2863
     84  CB        -3.5570   -2.6080   23.3540 C.3   197  SER197      0.2116
     85  OG        -2.6660   -1.7640   24.0570 O.3   197  SER197     -0.2180
     86  N          6.0200   -6.8780   28.0570 N.3   327  PHE327     -0.1241
     87  CA         6.5120   -6.3000   26.8090 C.3   327  PHE327      0.1605
     88  C          7.0820   -4.9080   27.0440 C.2   327  PHE327      0.2264
     89  O          8.1440   -4.5680   26.5130 O.2   327  PHE327     -0.2867
     90  CB         5.3720   -6.3010   25.7690 C.3   327  PHE327      0.0534
     91  CG         5.4450   -5.1990   24.7250 C.ar  327  PHE327     -0.0203
     92  CD1        4.2900   -4.5080   24.3710 C.ar  327  PHE327     -0.0042
     93  CD2        6.6330   -4.8700   24.0780 C.ar  327  PHE327     -0.0042
     94  CE1        4.3280   -3.5040   23.4110 C.ar  327  PHE327     -0.0003
     95  CE2        6.6790   -3.8540   23.1300 C.ar  327  PHE327     -0.0003
     96  CZ         5.5240   -3.1770   22.7910 C.ar  327  PHE327     -0.0000
     97  N         11.2690   -3.3410   26.7140 N.3   331  TYR331     -0.1241
     98  CA        11.6690   -2.2420   25.8490 C.3   331  TYR331      0.1605
     99  C         12.1850   -1.0440   26.6250 C.2   331  TYR331      0.2264
    100  O         13.0550   -0.3340   26.1230 O.2   331  TYR331     -0.2867
    101  CB        10.5040   -1.8240   24.9450 C.3   331  TYR331      0.0534
    102  CG        10.3990   -2.6800   23.7100 C.ar  331  TYR331     -0.0201
    103  CD1       10.0270   -4.0150   23.8000 C.ar  331  TYR331     -0.0009
    104  CD2       10.7000   -2.1630   22.4530 C.ar  331  TYR331     -0.0009
    105  CE1        9.9290   -4.8140   22.6730 C.ar  331  TYR331      0.0417
    106  CE2       10.6090   -2.9570   21.3190 C.ar  331  TYR331      0.0417
    107  CZ        10.2250   -4.2780   21.4380 C.ar  331  TYR331      0.1957
    108  OH        10.1290   -5.0780   20.3270 O.3   331  TYR331     -0.2866
    109  N          8.9040  -15.3530   22.4550 N.3   429  TRP429     -0.1241
    110  CA         9.3960  -14.5440   23.5540 C.3   429  TRP429      0.1605
    111  C          9.7870  -15.4420   24.7270 C.2   429  TRP429      0.2264
    112  O          9.2610  -16.5530   24.8630 O.2   429  TRP429     -0.2867
    113  CB         8.3280  -13.5440   23.9870 C.3   429  TRP429      0.0550
    114  CG         8.0090  -12.5540   22.9270 C.ar  429  TRP429      0.0003
    115  CD1        6.9140  -12.5430   22.1040 C.ar  429  TRP429      0.0946
    116  CD2        8.8140  -11.4360   22.5430 C.ar  429  TRP429      0.0152
    117  NE1        6.9850  -11.4690   21.2390 N.ar  429  TRP429     -0.2442
    118  CE2        8.1460  -10.7800   21.4900 C.ar  429  TRP429      0.0810
    119  CE3       10.0380  -10.9230   22.9900 C.ar  429  TRP429      0.0012
    120  CZ2        8.6640   -9.6410   20.8770 C.ar  429  TRP429      0.0191
    121  CZ3       10.5520   -9.7890   22.3750 C.ar  429  TRP429      0.0001
    122  CH2        9.8590   -9.1570   21.3340 C.ar  429  TRP429      0.0015
    123  N          8.4290  -13.4170   30.3080 N.3   433  MET433     -0.1245
    124  CA         7.4060  -12.4710   29.8780 C.3   433  MET433      0.1570
    125  C          5.9930  -13.0280   29.9940 C.2   433  MET433      0.2261
    126  O          5.0330  -12.2520   29.9110 O.2   433  MET433     -0.2867
    127  CB         7.6840  -12.0360   28.4330 C.3   433  MET433      0.0387
    128  CG         9.0450  -11.3510   28.2970 C.3   433  MET433      0.0595
    129  SD         9.4130  -10.8270   26.6010 S.3   433  MET433     -0.1393
    130  CE         8.1350   -9.6050   26.3450 C.3   433  MET433      0.0692
    131  N          1.7100  -12.5650   27.3300 N.3   436  ILE436     -0.1231
    132  CA         2.1080  -11.2180   26.9440 C.3   436  ILE436      0.1692
    133  C          0.9140  -10.4300   26.4210 C.2   436  ILE436      0.2592
    134  O         -0.0360  -10.9840   25.8510 O.2   436  ILE436     -0.2718
    135  CB         3.2360  -11.3240   25.8970 C.3   436  ILE436      0.0266
    136  CG1        4.4770  -11.9560   26.5310 C.3   436  ILE436      0.0019
    137  CG2        3.5920   -9.9780   25.2800 C.3   436  ILE436      0.0020
    138  CD1        5.4450  -12.4280   25.4740 C.3   436  ILE436      0.0001
    139  N          0.9540   -9.1220   26.6640 N.am  437  HIS437     -0.1962
    140  CA         0.0610   -8.1660   26.0270 C.3   437  HIS437      0.1787
    141  C         -0.0750   -8.5050   24.5480 C.2   437  HIS437      0.2621
    142  O          0.9230   -8.7240   23.8650 O.2   437  HIS437     -0.2715
    143  CB         0.6500   -6.7670   26.2190 C.3   437  HIS437      0.0785
    144  CG        -0.2700   -5.6350   25.8760 C.ar  437  HIS437      0.0821
    145  ND1       -1.4340   -5.3760   26.5700 N.ar  437  HIS437     -0.2267
    146  CD2       -0.1510   -4.6450   24.9600 C.ar  437  HIS437      0.1154
    147  CE1       -2.0080   -4.2940   26.0730 C.ar  437  HIS437      0.1986
    148  NE2       -1.2410   -3.8220   25.1060 N.ar  437  HIS437     -0.2212
    149  N         -1.3190   -8.6300   24.0800 N.am  438  GLY438     -0.1940
    150  CA        -1.5940   -8.8760   22.6750 C.3   438  GLY438      0.2014
    151  C         -1.5650  -10.3220   22.2270 C.2   438  GLY438      0.2638
    152  O         -1.9230  -10.6040   21.0720 O.2   438  GLY438     -0.2714
    153  N         -1.1530  -11.2610   23.0750 N.am  439  TYR439     -0.1973
    154  CA        -1.0190  -12.6250   22.5960 C.3   439  TYR439      0.1639
    155  C         -2.2860  -13.4450   22.7880 C.2   439  TYR439      0.2290
    156  O         -2.2940  -14.6390   22.4790 O.2   439  TYR439     -0.2864
    157  CB         0.2390  -13.2660   23.2080 C.3   439  TYR439      0.0560
    158  CG         1.4070  -12.7800   22.3760 C.ar  439  TYR439     -0.0198
    159  CD1        1.9150  -11.4980   22.5550 C.ar  439  TYR439     -0.0009
    160  CD2        1.9150  -13.5470   21.3270 C.ar  439  TYR439     -0.0009
    161  CE1        2.9410  -11.0100   21.7450 C.ar  439  TYR439      0.0417
    162  CE2        2.9490  -13.0660   20.5160 C.ar  439  TYR439      0.0417
    163  CZ         3.4550  -11.7940   20.7390 C.ar  439  TYR439      0.1957
    164  OH         4.4730  -11.2900   19.9500 O.3   439  TYR439     -0.2866
@<TRIPOS>BOND
     1    62    61    2
     2    61    60    1
     3    63    60    1
     4    63    64    1
     5    60    59    1
     6    66    64   ar
     7    66    68   ar
     8    64    65   ar
     9    21    22    2
    10    21    20    1
    11    68    69   ar
    12    19    20    1
    13    65    67   ar
    14     4     3    2
    15    20    23    1
    16     1     2    1
    17     3     2    1
    18    69    67   ar
    19    69    70    1
    20    55    54    1
    21    55    56    2
    22    54    57    1
    23    54    53    1
    24    16    15    2
    25    15    14    1
    26    44    43    2
    27     2     5    1
    28    57    58    1
    29    23    24    1
    30    53    43   am
    31    43    42    1
    32     9    10    1
    33     5     6    1
    34    18    17    1
    35    24    26   ar
    36    24    25   ar
    37    29    26   ar
    38    29    31   ar
    39    14    13    1
    40    14    17    1
    41    36    35    2
    42    13    11   am
    43    26    28   ar
    44    31    32   ar
    45     6     8   ar
    46     6     7   ar
    47    42    41    1
    48    42    45    1
    49    25    27   ar
    50    10    11    1
    51    11    12    2
    52    33    34    1
    53    28    27   ar
    54    28    30   ar
    55    47    49   ar
    56    47    46   ar
    57    35    34    1
    58    35    37   am
    59    32    30   ar
    60    45    46    1
    61    49    51   ar
    62    38    37    1
    63    38    39    1
    64    46    48   ar
    65    40    39    2
    66   164   163    1
    67    51    52    1
    68    51    50   ar
    69   108   107    1
    70    48    50   ar
    71   162   163   ar
    72   162   160   ar
    73    71    72    1
    74   163   161   ar
    75   120   122   ar
    76   120   118   ar
    77   152   151    2
    78    74    73    2
    79   117   118   ar
    80   117   115   ar
    81    78    77   ar
    82   106   107   ar
    83   106   104   ar
    84   160   158   ar
    85    75    72    1
    86    75    76    1
    87   122   121   ar
    88   107   105   ar
    89   118   116   ar
    90    72    73    1
    91   161   159   ar
    92    73    80   am
    93   115   114   ar
    94   151   150    1
    95   151   153   am
    96    77    76    1
    97    77    79   ar
    98   121   119   ar
    99   158   159   ar
   100   158   157    1
   101   104   102   ar
   102   109   110    1
   103   156   155    2
   104   116   114   ar
   105   116   119   ar
   106   154   155    1
   107   154   153    1
   108   154   157    1
   109   105   103   ar
   110   150   149    1
   111    96    95   ar
   112    96    94   ar
   113   114   113    1
   114    95    93   ar
   115    80    81    1
   116    84    81    1
   117    84    85    1
   118    82    83    2
   119    82    81    1
   120    94    92   ar
   121   110   113    1
   122   110   111    1
   123   102   103   ar
   124   102   101    1
   125   142   141    2
   126    93    91   ar
   127   149   141   am
   128    92    91   ar
   129   141   140    1
   130    91    90    1
   131   111   112    2
   132   101    98    1
   133   146   148   ar
   134   146   144   ar
   135   148   147   ar
   136   137   135    1
   137   138   136    1
   138    90    87    1
   139    98    99    1
   140    98    97    1
   141   134   133    2
   142   144   143    1
   143   144   145   ar
   144   135   136    1
   145   135   132    1
   146   140   143    1
   147   140   139    1
   148   147   145   ar
   149   100    99    2
   150   130   129    1
   151   133   139   am
   152   133   132    1
   153    89    88    2
   154   129   128    1
   155    87    88    1
   156    87    86    1
   157   132   131    1
   158   128   127    1
   159   127   124    1
   160   124   125    1
   161   124   123    1
   162   126   125    2
