@<TRIPOS>MOLECULE
tmp/6g1zB03.pdb
 91 88 0 0 0
SMALL
GASTEIGER

@<TRIPOS>ATOM
      1  N        -55.1320  -13.2330  -18.6570 N.3    17  PRO17      -0.2116
      2  CA       -55.6190  -11.9050  -18.2630 C.3    17  PRO17       0.1372
      3  C        -54.9330  -11.3510  -17.0140 C.2    17  PRO17       0.2244
      4  O        -55.0000  -10.1600  -16.7820 O.2    17  PRO17      -0.2868
      5  CB       -57.1130  -12.1460  -17.9830 C.3    17  PRO17       0.0268
      6  CG       -57.1960  -13.5860  -17.5850 C.3    17  PRO17       0.0207
      7  CD       -56.0950  -14.3060  -18.3190 C.3    17  PRO17       0.0892
      8  N        -55.8920  -12.0030  -13.9860 N.3    19  TYR19      -0.1241
      9  CA       -56.9320  -11.8090  -12.9790 C.3    19  TYR19       0.1605
     10  C        -57.8500  -13.0160  -12.9480 C.2    19  TYR19       0.2264
     11  O        -58.0410  -13.7060  -13.9700 O.2    19  TYR19      -0.2867
     12  CB       -57.7730  -10.5790  -13.3130 C.3    19  TYR19       0.0534
     13  CG       -57.0910   -9.2530  -13.1350 C.ar   19  TYR19      -0.0201
     14  CD1      -56.2870   -8.7180  -14.1360 C.ar   19  TYR19      -0.0009
     15  CD2      -57.2590   -8.5230  -11.9630 C.ar   19  TYR19      -0.0009
     16  CE1      -55.6580   -7.4950  -13.9730 C.ar   19  TYR19       0.0417
     17  CE2      -56.6370   -7.3040  -11.7840 C.ar   19  TYR19       0.0417
     18  CZ       -55.8400   -6.7910  -12.7880 C.ar   19  TYR19       0.1957
     19  OH       -55.2420   -5.5700  -12.6010 O.3    19  TYR19      -0.2866
     20  N        -61.8280  -14.3920  -11.2660 N.3    21  GLN21      -0.1231
     21  CA       -63.1550  -13.9510  -10.8510 C.3    21  GLN21       0.1683
     22  C        -63.2290  -14.1150   -9.3410 C.2    21  GLN21       0.2434
     23  O        -62.4970  -14.9150   -8.7900 O.2    21  GLN21      -0.2733
     24  CB       -64.2450  -14.7760  -11.5390 C.3    21  GLN21       0.0380
     25  CG       -64.2900  -14.6130  -13.0580 C.3    21  GLN21       0.0905
     26  CD       -65.3720  -15.4740  -13.7190 C.2    21  GLN21       0.2608
     27  OE1      -66.5000  -15.5820  -13.2280 O.2    21  GLN21      -0.2717
     28  NE2      -65.0200  -16.1060  -14.8250 N.am   21  GLN21      -0.0878
     29  N        -64.1090  -13.3530   -8.6720 N.am   22  PRO22      -0.2729
     30  CA       -64.0750  -13.3170   -7.2040 C.3    22  PRO22       0.1401
     31  C        -64.7950  -14.4260   -6.4590 C.2    22  PRO22       0.2269
     32  O        -64.7630  -14.4370   -5.2320 O.2    22  PRO22      -0.2865
     33  CB       -64.7260  -11.9670   -6.8670 C.3    22  PRO22       0.0296
     34  CG       -65.6170  -11.6700   -8.0190 C.3    22  PRO22       0.0237
     35  CD       -64.9640  -12.2880   -9.2320 C.3    22  PRO22       0.0939
     36  N        -70.1970  -13.0090  -12.1400 N.3   201  ASP201     -0.1225
     37  CA       -70.6880  -11.6480  -11.9600 C.3   201  ASP201      0.1805
     38  C        -69.9800  -10.7150  -12.9120 C.2   201  ASP201      0.2597
     39  O        -68.8300  -10.3510  -12.6850 O.2   201  ASP201     -0.2718
     40  CB       -70.4590  -11.1800  -10.5210 C.3   201  ASP201      0.1424
     41  CG       -71.0570   -9.7840  -10.2440 C.2   201  ASP201      0.3668
     42  OD1      -71.5980   -9.1190  -11.1640 O.co2 201  ASP201     -0.2456
     43  OD2      -70.9620   -9.3370   -9.0930 O.co2 201  ASP201     -0.2456
     44  N        -70.6720  -10.3010  -13.9610 N.am  202  ALA202     -0.1979
     45  CA       -70.0840   -9.4200  -14.9670 C.3   202  ALA202      0.1597
     46  C        -69.6880   -8.0240  -14.4620 C.2   202  ALA202      0.2287
     47  O        -68.9130   -7.3330  -15.1230 O.2   202  ALA202     -0.2864
     48  CB       -71.0170   -9.2850  -16.1510 C.3   202  ALA202      0.0319
     49  N        -68.6420   -7.6390  -11.1050 N.3   204  GLY204     -0.1225
     50  CA       -67.8250   -7.8540   -9.9200 C.3   204  GLY204      0.1811
     51  C        -66.4220   -7.3050  -10.1160 C.2   204  GLY204      0.2280
     52  O        -66.0430   -6.9010  -11.2190 O.2   204  GLY204     -0.2866
     53  N        -62.5510   -7.9110  -10.3880 N.3   206  PRO206     -0.2116
     54  CA       -61.5880   -8.9880  -10.6030 C.3   206  PRO206      0.1372
     55  C        -60.4450   -8.9370   -9.5980 C.2   206  PRO206      0.2244
     56  O        -60.1490   -7.8840   -9.0400 O.2   206  PRO206     -0.2868
     57  CB       -61.0730   -8.7540  -12.0200 C.3   206  PRO206      0.0268
     58  CG       -61.6120   -7.4510  -12.4690 C.3   206  PRO206      0.0207
     59  CD       -62.4840   -6.8680  -11.4240 C.3   206  PRO206      0.0892
     60  N        -60.5220  -14.7920  -15.4200 N.3   229  ASN229     -0.1225
     61  CA       -61.3780  -13.6390  -15.6670 C.3   229  ASN229      0.1785
     62  C        -61.6380  -13.5020  -17.1630 C.2   229  ASN229      0.2597
     63  O        -60.9840  -14.1630  -17.9650 O.2   229  ASN229     -0.2718
     64  CB       -60.7810  -12.3550  -15.0760 C.3   229  ASN229      0.1169
     65  CG       -61.8220  -11.2650  -14.8930 C.2   229  ASN229      0.2627
     66  OD1      -62.9200  -11.5170  -14.4050 O.2   229  ASN229     -0.2716
     67  ND2      -61.4980  -10.0670  -15.3210 N.am  229  ASN229     -0.0877
     68  N        -62.5960  -12.6550  -17.5250 N.am  230  PHE230     -0.1976
     69  CA       -63.0760  -12.5550  -18.9020 C.3   230  PHE230      0.1639
     70  C        -62.7810  -11.1830  -19.4850 C.2   230  PHE230      0.2290
     71  O        -62.5390  -10.2210  -18.7620 O.2   230  PHE230     -0.2864
     72  CB       -64.5850  -12.8340  -18.9620 C.3   230  PHE230      0.0560
     73  CG       -65.3860  -11.9730  -18.0400 C.ar  230  PHE230     -0.0200
     74  CD1      -65.4930  -12.3020  -16.6850 C.ar  230  PHE230     -0.0042
     75  CD2      -66.0200  -10.8260  -18.5120 C.ar  230  PHE230     -0.0042
     76  CE1      -66.2030  -11.5020  -15.8280 C.ar  230  PHE230     -0.0003
     77  CE2      -66.7320  -10.0320  -17.6540 C.ar  230  PHE230     -0.0003
     78  CZ       -66.8170  -10.3680  -16.3140 C.ar  230  PHE230     -0.0000
     79  N        -62.8570   -7.5140  -21.1080 N.3   232  PRO232     -0.2116
     80  CA       -63.6940   -6.3300  -20.9060 C.3   232  PRO232      0.1372
     81  C        -64.5990   -6.0100  -22.1000 C.2   232  PRO232      0.2244
     82  O        -65.6150   -5.3240  -21.9320 O.2   232  PRO232     -0.2868
     83  CB       -62.6800   -5.1940  -20.6590 C.3   232  PRO232      0.0268
     84  CG       -61.3720   -5.7030  -21.1720 C.3   232  PRO232      0.0207
     85  CD       -61.4160   -7.2050  -21.0770 C.3   232  PRO232      0.0892
     86  N        -67.4270   -8.1720  -21.2650 N.3   235  CYS235     -0.1235
     87  CA       -68.0300   -7.5210  -20.0800 C.3   235  CYS235      0.1677
     88  C        -69.0200   -6.4430  -20.4870 C.2   235  CYS235      0.2270
     89  O        -70.1530   -6.4090  -19.9960 O.2   235  CYS235     -0.2867
     90  CB       -66.9670   -6.8640  -19.1930 C.3   235  CYS235      0.0956
     91  SG       -67.6410   -6.0600  -17.7070 S.3   235  CYS235     -0.0801
@<TRIPOS>BOND
     1    81    82    2
     2    81    80    1
     3    86    87    1
     4    84    85    1
     5    84    83    1
     6    79    85    1
     7    79    80    1
     8    80    83    1
     9    88    87    1
    10    88    89    2
    11    87    90    1
    12    70    69    1
    13    70    71    2
    14    90    91    1
    15    72    69    1
    16    72    73    1
    17    69    68    1
    18     1     7    1
    19     1     2    1
    20    75    73   ar
    21    75    77   ar
    22     7     6    1
    23     2     5    1
    24     2     3    1
    25    73    74   ar
    26     5     6    1
    27    63    62    2
    28    77    78   ar
    29    68    62   am
    30    62    61    1
    31     3     4    2
    32    74    76   ar
    33    78    76   ar
    34    48    45    1
    35    61    60    1
    36    61    64    1
    37    67    65   am
    38    47    46    2
    39    64    65    1
    40    45    46    1
    41    45    44    1
    42    65    66    2
    43    28    26   am
    44    14    16   ar
    45    14    13   ar
    46     8     9    1
    47    16    18   ar
    48    11    10    2
    49    44    38   am
    50    26    27    2
    51    26    25    1
    52    12    13    1
    53    12     9    1
    54    13    15   ar
    55    25    24    1
    56     9    10    1
    57    38    39    2
    58    38    37    1
    59    18    19    1
    60    18    17   ar
    61    58    57    1
    62    58    59    1
    63    36    37    1
    64    57    54    1
    65    15    17   ar
    66    37    40    1
    67    24    21    1
    68    59    53    1
    69    20    21    1
    70    52    51    2
    71    42    41   ar
    72    49    50    1
    73    21    22    1
    74    54    53    1
    75    54    55    1
    76    40    41    1
    77    41    43   ar
    78    51    50    1
    79    55    56    2
    80    22    23    2
    81    22    29   am
    82    35    29    1
    83    35    34    1
    84    29    30    1
    85    34    33    1
    86    30    33    1
    87    30    31    1
    88    31    32    2
