@<TRIPOS>MOLECULE
tmp/6g21B02.pdb
 102 96 0 0 0
SMALL
GASTEIGER

@<TRIPOS>ATOM
      1  N         15.7190   66.5110    1.5980 N.3    21  ASN21      -0.1240
      2  CA        15.4280   65.6190    2.7220 C.3    21  ASN21       0.1653
      3  C         16.3940   65.8690    3.8590 C.2    21  ASN21       0.2266
      4  O         15.9830   65.9450    4.9870 O.2    21  ASN21      -0.2867
      5  CB        15.5230   64.1420    2.3100 C.3    21  ASN21       0.1155
      6  CG        14.4340   63.7260    1.3430 C.2    21  ASN21       0.2627
      7  OD1       13.3590   64.3300    1.2960 O.2    21  ASN21      -0.2716
      8  ND2       14.7040   62.6810    0.5820 N.am   21  ASN21      -0.0877
      9  N         17.6150   52.8170    4.7890 N.3    36  ASP36      -0.1225
     10  CA        16.4740   52.8080    3.8670 C.3    36  ASP36       0.1805
     11  C         16.7260   52.0910    2.5690 C.2    36  ASP36       0.2598
     12  O         15.7990   51.9540    1.7750 O.2    36  ASP36      -0.2718
     13  CB        16.0520   54.2270    3.5520 C.3    36  ASP36       0.1424
     14  CG        15.8360   55.0450    4.8020 C.2    36  ASP36       0.3668
     15  OD1       14.9690   54.6660    5.6100 O.co2  36  ASP36      -0.2456
     16  OD2       16.5530   56.0360    5.0070 O.co2  36  ASP36      -0.2456
     17  N         17.9490   51.6190    2.3310 N.am   37  ASN37      -0.1961
     18  CA        18.2370   50.9900    1.0490 C.3    37  ASN37       0.1804
     19  C         17.4190   49.6860    0.9600 C.2    37  ASN37       0.2463
     20  O         17.3260   48.9780    1.9300 O.2    37  ASN37      -0.2730
     21  CB        19.7420   50.7090    0.8870 C.3    37  ASN37       0.1195
     22  CG        20.1980   50.7720   -0.5580 C.2    37  ASN37       0.2630
     23  OD1       19.6340   51.4940   -1.3690 O.2    37  ASN37      -0.2716
     24  ND2       21.2290   50.0280   -0.8790 N.am   37  ASN37      -0.0877
     25  N         16.7740   49.4230   -0.1840 N.am   38  PRO38      -0.2727
     26  CA        16.0350   48.1640   -0.3450 C.3    38  PRO38       0.1402
     27  C         16.8710   46.8760   -0.2850 C.2    38  PRO38       0.2269
     28  O         17.9290   46.7900   -0.8930 O.2    38  PRO38      -0.2865
     29  CB        15.3890   48.3490   -1.7370 C.3    38  PRO38       0.0296
     30  CG        15.0580   49.8230   -1.7340 C.3    38  PRO38       0.0237
     31  CD        16.3030   50.4510   -1.1560 C.3    38  PRO38       0.0939
     32  N          7.9120   60.4550   -8.2990 N.3    66  GLU66      -0.1245
     33  CA         9.1090   61.1460   -7.8410 C.3    66  GLU66       0.1567
     34  C         10.3160   60.2120   -7.8660 C.2    66  GLU66       0.2260
     35  O         10.1690   58.9880   -7.9410 O.2    66  GLU66      -0.2867
     36  CB         8.8770   61.7280   -6.4380 C.3    66  GLU66       0.0388
     37  CG         8.8320   60.6980   -5.3420 C.3    66  GLU66       0.1160
     38  CD         8.6060   61.3060   -3.9580 C.2    66  GLU66       0.3649
     39  OE1        8.8520   60.6180   -2.9710 O.co2  66  GLU66      -0.2457
     40  OE2        8.2560   62.4820   -3.8220 O.co2  66  GLU66      -0.2457
     41  N         14.0760   59.5600   -5.7280 N.3    68  THR68      -0.1218
     42  CA        15.0570   59.9380   -4.7200 C.3    68  THR68       0.1862
     43  C         16.3970   60.2400   -5.4340 C.2    68  THR68       0.2287
     44  O         16.8860   59.4380   -6.2320 O.2    68  THR68      -0.2866
     45  CB        15.2640   58.8100   -3.6790 C.3    68  THR68       0.1770
     46  OG1       14.0590   58.6290   -2.9500 O.3    68  THR68      -0.2211
     47  CG2       16.4110   59.1170   -2.7050 C.3    68  THR68       0.0375
     48  N         20.4540   61.6340   -4.8100 N.3    70  GLU70      -0.1245
     49  CA        21.5810   62.0410   -4.0250 C.3    70  GLU70       0.1567
     50  C         22.6110   62.8000   -4.8680 C.2    70  GLU70       0.2260
     51  O         22.8640   62.4670   -6.0370 O.2    70  GLU70      -0.2867
     52  CB        22.2120   60.8290   -3.3780 C.3    70  GLU70       0.0388
     53  CG        21.2210   60.1180   -2.4650 C.3    70  GLU70       0.1160
     54  CD        21.8030   59.7240   -1.1240 C.2    70  GLU70       0.3649
     55  OE1       22.9400   60.1240   -0.7750 O.co2  70  GLU70      -0.2457
     56  OE2       21.1210   58.9630   -0.4570 O.co2  70  GLU70      -0.2457
     57  N         20.1290   53.0880   -6.1380 N.3    93  ILE93      -0.1245
     58  CA        21.2020   54.0430   -6.2060 C.3    93  ILE93       0.1561
     59  C         22.5090   53.2800   -6.0210 C.2    93  ILE93       0.2260
     60  O         22.6220   52.4010   -5.1450 O.2    93  ILE93      -0.2867
     61  CB        21.0320   55.1120   -5.1360 C.3    93  ILE93       0.0252
     62  CG1       19.8380   56.0080   -5.5000 C.3    93  ILE93       0.0019
     63  CG2       22.2660   56.0270   -5.0860 C.3    93  ILE93       0.0019
     64  CD1       19.5050   57.0890   -4.4960 C.3    93  ILE93       0.0001
     65  N         25.6010   53.3830   -4.5290 N.3    95  TYR95      -0.1241
     66  CA        26.3650   54.0890   -3.5120 C.3    95  TYR95       0.1605
     67  C         27.8290   53.8180   -3.6670 C.2    95  TYR95       0.2264
     68  O         28.6380   54.7030   -3.3810 O.2    95  TYR95      -0.2867
     69  CB        25.8810   53.7410   -2.1120 C.3    95  TYR95       0.0534
     70  CG        24.5440   54.3990   -1.8180 C.ar   95  TYR95      -0.0201
     71  CD1       24.4860   55.7340   -1.4740 C.ar   95  TYR95      -0.0009
     72  CD2       23.3500   53.6930   -1.9220 C.ar   95  TYR95      -0.0009
     73  CE1       23.3050   56.3590   -1.2390 C.ar   95  TYR95       0.0417
     74  CE2       22.1270   54.3140   -1.6550 C.ar   95  TYR95       0.0417
     75  CZ        22.1290   55.6430   -1.3080 C.ar   95  TYR95       0.1957
     76  OH        20.9930   56.3290   -1.0580 O.3    95  TYR95      -0.2866
     77  N         17.2890   57.0040   -7.9110 N.3   112  ASN112     -0.1240
     78  CA        16.8140   55.6070   -7.6730 C.3   112  ASN112      0.1653
     79  C         16.0460   55.0740   -8.8550 C.2   112  ASN112      0.2266
     80  O         15.5220   53.9760   -8.7750 O.2   112  ASN112     -0.2867
     81  CB        15.9660   55.4630   -6.3880 C.3   112  ASN112      0.1155
     82  CG        14.6800   56.2430   -6.4640 C.2   112  ASN112      0.2627
     83  OD1       14.5060   57.1070   -7.3740 O.2   112  ASN112     -0.2716
     84  ND2       13.7190   55.9160   -5.5690 N.am  112  ASN112     -0.0877
     85  N         11.8610   54.3430   -8.3200 N.3   115  HIS115     -0.1226
     86  CA        11.2360   53.4060   -7.3880 C.3   115  HIS115      0.1752
     87  C         12.3130   52.7620   -6.5230 C.2   115  HIS115      0.2596
     88  O         13.5250   52.8330   -6.8260 O.2   115  HIS115     -0.2718
     89  CB        10.3920   52.2940   -8.0670 C.3   115  HIS115      0.0759
     90  CG        11.1980   51.3150   -8.8730 C.ar  115  HIS115      0.0818
     91  ND1       11.5970   51.5600  -10.1660 N.ar  115  HIS115     -0.2268
     92  CD2       11.6910   50.0880   -8.5650 C.ar  115  HIS115      0.1154
     93  CE1       12.2740   50.5230  -10.6400 C.ar  115  HIS115      0.1986
     94  NE2       12.3370   49.6060   -9.6900 N.ar  115  HIS115     -0.2212
     95  N         11.8580   52.0950   -5.4630 N.am  116  ASN116     -0.1974
     96  CA        12.7450   51.4270   -4.5240 C.3   116  ASN116      0.1688
     97  C         12.7590   49.9250   -4.7950 C.2   116  ASN116      0.2292
     98  O         11.6910   49.3110   -4.9280 O.2   116  ASN116     -0.2864
     99  CB        12.3180   51.7930   -3.1120 C.3   116  ASN116      0.1181
    100  CG        12.7630   53.2120   -2.7540 C.2   116  ASN116      0.2629
    101  OD1       13.5880   53.7940   -3.4700 O.2   116  ASN116     -0.2716
    102  ND2       12.2370   53.7730   -1.6660 N.am  116  ASN116     -0.0877
@<TRIPOS>BOND
     1    93    91   ar
     2    93    94   ar
     3    91    90   ar
     4    94    92   ar
     5    90    92   ar
     6    90    89    1
     7    79    80    2
     8    79    78    1
     9    85    86    1
    10    32    33    1
    11    89    86    1
    12    35    34    2
    13    77    78    1
    14    34    33    1
    15    33    36    1
    16    78    81    1
    17    86    87    1
    18    83    82    2
    19    88    87    2
    20    87    95   am
    21    82    81    1
    22    82    84   am
    23    36    37    1
    24    44    43    2
    25    58    57    1
    26    58    59    1
    27    58    61    1
    28    51    50    2
    29    59    60    2
    30    41    42    1
    31    62    61    1
    32    62    64    1
    33    95    96    1
    34    43    42    1
    35    37    38    1
    36    61    63    1
    37    98    97    2
    38    50    49    1
    39    48    49    1
    40    97    96    1
    41    42    45    1
    42    65    66    1
    43    96    99    1
    44    49    52    1
    45    38    40   ar
    46    38    39   ar
    47    45    46    1
    48    45    47    1
    49    67    66    1
    50    67    68    2
    51    66    69    1
    52   101   100    2
    53    52    53    1
    54    99   100    1
    55   100   102   am
    56    53    54    1
    57    69    70    1
    58    72    70   ar
    59    72    74   ar
    60    70    71   ar
    61    29    30    1
    62    29    26    1
    63    30    31    1
    64    74    75   ar
    65    71    73   ar
    66    23    22    2
    67    75    73   ar
    68    75    76    1
    69    31    25    1
    70    54    55   ar
    71    54    56   ar
    72    28    27    2
    73    24    22   am
    74    22    21    1
    75    26    27    1
    76    26    25    1
    77    25    19   am
    78     8     6   am
    79    21    18    1
    80    19    18    1
    81    19    20    2
    82    18    17    1
    83     7     6    2
    84     6     5    1
    85     1     2    1
    86    12    11    2
    87     5     2    1
    88    17    11   am
    89    11    10    1
    90     2     3    1
    91    13    10    1
    92    13    14    1
    93     3     4    2
    94    10     9    1
    95    14    16   ar
    96    14    15   ar
