@<TRIPOS>MOLECULE
tmp/6g21A02.pdb
 90 84 0 0 0
SMALL
GASTEIGER

@<TRIPOS>ATOM
      1  N          8.1550   11.2170    0.3350 N.3    19  ARG19      -0.1245
      2  CA         8.3640   11.3220   -1.1050 C.3    19  ARG19       0.1563
      3  C          8.8480   12.7280   -1.3770 C.2    19  ARG19       0.2260
      4  O          8.2090   13.6990   -0.9800 O.2    19  ARG19      -0.2867
      5  CB         7.0710   11.0010   -1.8730 C.3    19  ARG19       0.0307
      6  CG         7.1680   11.1000   -3.3950 C.3    19  ARG19       0.0489
      7  CD         5.7970   10.9090   -4.0630 C.3    19  ARG19       0.2205
      8  NE         4.9970   12.1350   -4.0640 N.pl3  19  ARG19      -0.0865
      9  CZ         3.6700   12.1750   -4.1160 C.cat  19  ARG19       0.5346
     10  NH1        2.9650   11.0610   -4.1610 N.pl3  19  ARG19       0.1354
     11  NH2        3.0460   13.3390   -4.1500 N.pl3  19  ARG19       0.1354
     12  N          9.1030   15.7220   -3.7130 N.3    21  ASN21      -0.1225
     13  CA         8.3810   16.2110   -4.8940 C.3    21  ASN21       0.1785
     14  C          9.3600   16.9410   -5.8200 C.2    21  ASN21       0.2597
     15  O          9.3410   16.7210   -7.0110 O.2    21  ASN21      -0.2718
     16  CB         7.2500   17.1650   -4.5020 C.3    21  ASN21       0.1169
     17  CG         6.1050   16.4440   -3.7540 C.2    21  ASN21       0.2627
     18  OD1        5.9070   15.2680   -3.9420 O.2    21  ASN21      -0.2716
     19  ND2        5.3900   17.1570   -2.8830 N.am   21  ASN21      -0.0877
     20  N         10.1830   17.8190   -5.2540 N.am   22  PHE22      -0.1976
     21  CA        11.2920   18.4260   -5.9560 C.3    22  PHE22       0.1639
     22  C         12.2640   19.0890   -4.9820 C.2    22  PHE22       0.2290
     23  O         11.9440   19.3090   -3.7980 O.2    22  PHE22      -0.2864
     24  CB        10.8020   19.4890   -6.9560 C.3    22  PHE22       0.0560
     25  CG         9.9240   20.5220   -6.3440 C.ar   22  PHE22      -0.0200
     26  CD1       10.4770   21.6470   -5.7320 C.ar   22  PHE22      -0.0042
     27  CD2        8.5450   20.3800   -6.3850 C.ar   22  PHE22      -0.0042
     28  CE1        9.6560   22.6040   -5.1660 C.ar   22  PHE22      -0.0003
     29  CE2        7.7220   21.3120   -5.7770 C.ar   22  PHE22      -0.0003
     30  CZ         8.2700   22.4270   -5.1890 C.ar   22  PHE22      -0.0000
     31  N          0.2490   25.6550   -6.9440 N.3    36  ASP36      -0.1239
     32  CA        -0.4570   24.6030   -6.2200 C.3    36  ASP36       0.1674
     33  C         -1.0060   24.9590   -4.8490 C.2    36  ASP36       0.2266
     34  O         -1.6490   24.1010   -4.2260 O.2    36  ASP36      -0.2867
     35  CB         0.4690   23.4150   -6.0290 C.3    36  ASP36       0.1410
     36  CG         0.7620   22.7460   -7.2840 C.2    36  ASP36       0.3668
     37  OD1       -0.2030   22.5560   -8.0270 O.co2  36  ASP36      -0.2456
     38  OD2        1.9310   22.3860   -7.5190 O.co2  36  ASP36      -0.2456
     39  N         15.4780   24.6510   -1.6590 N.3    54  ARG54      -0.1245
     40  CA        14.0760   24.3880   -1.3540 C.3    54  ARG54       0.1563
     41  C         13.7260   22.9370   -1.6090 C.2    54  ARG54       0.2260
     42  O         13.9060   22.4450   -2.7310 O.2    54  ARG54      -0.2867
     43  CB        13.1780   25.2660   -2.2190 C.3    54  ARG54       0.0307
     44  CG        11.7110   25.0330   -1.9620 C.3    54  ARG54       0.0489
     45  CD        10.8700   25.8630   -2.8990 C.3    54  ARG54       0.2205
     46  NE         9.4500   25.6550   -2.6540 N.pl3  54  ARG54      -0.0865
     47  CZ         8.4970   25.8350   -3.5540 C.cat  54  ARG54       0.5346
     48  NH1        8.8140   26.1930   -4.7830 N.pl3  54  ARG54       0.1354
     49  NH2        7.2230   25.6270   -3.2330 N.pl3  54  ARG54       0.1354
     50  N         10.6300   20.1440   -1.2570 N.3    56  ALA56      -0.1231
     51  CA         9.1640   19.9830   -1.0510 C.3    56  ALA56       0.1694
     52  C          8.8430   18.5170   -1.0550 C.2    56  ALA56       0.2591
     53  O          9.3250   17.7630   -1.9330 O.2    56  ALA56      -0.2718
     54  CB         8.3440   20.6780   -2.1540 C.3    56  ALA56       0.0304
     55  N          8.0530   18.0940   -0.0670 N.am   57  MET57      -0.1979
     56  CA         7.7910   16.6800    0.1500 C.3    57  MET57       0.1605
     57  C          6.3270   16.3990    0.5010 C.2    57  MET57       0.2287
     58  O          5.5960   17.2570    1.0050 O.2    57  MET57      -0.2864
     59  CB         8.6700   16.1700    1.3140 C.3    57  MET57       0.0413
     60  CG        10.1470   16.2300    1.0610 C.3    57  MET57       0.0598
     61  SD        11.0140   16.2580    2.6660 S.3    57  MET57      -0.1393
     62  CE        10.8930   17.9770    3.1240 C.3    57  MET57       0.0692
     63  N          1.9290   17.8720    3.4670 N.3    68  THR68      -0.1218
     64  CA         2.8860   18.5460    2.5970 C.3    68  THR68       0.1862
     65  C          3.9000   19.3010    3.4780 C.2    68  THR68       0.2287
     66  O          3.5080   20.0260    4.3760 O.2    68  THR68      -0.2866
     67  CB         2.2180   19.5030    1.6100 C.3    68  THR68       0.1770
     68  OG1        1.4640   18.7350    0.6850 O.3    68  THR68      -0.2211
     69  CG2        3.2620   20.2530    0.7860 C.3    68  THR68       0.0375
     70  N          7.5950   21.5780    3.5150 N.3    70  GLU70      -0.1245
     71  CA         8.6920   22.3220    2.9600 C.3    70  GLU70       0.1567
     72  C          9.8350   22.5600    3.9300 C.2    70  GLU70       0.2260
     73  O          9.6180   22.7960    5.1440 O.2    70  GLU70      -0.2867
     74  CB         8.1890   23.6350    2.3990 C.3    70  GLU70       0.0388
     75  CG         7.2270   23.3540    1.2480 C.3    70  GLU70       0.1160
     76  CD         7.4400   24.2050    0.0130 C.2    70  GLU70       0.3649
     77  OE1        8.4820   24.8760   -0.0980 O.co2  70  GLU70      -0.2457
     78  OE2        6.5170   24.2160   -0.8170 O.co2  70  GLU70      -0.2457
     79  N          4.3540   30.5490    4.1840 N.3    95  TYR95      -0.1241
     80  CA         5.4950   30.7880    3.3500 C.3    95  TYR95       0.1605
     81  C          6.1350   32.0830    3.7510 C.2    95  TYR95       0.2264
     82  O          7.3510   32.2360    3.6050 O.2    95  TYR95      -0.2867
     83  CB         5.1190   30.8080    1.8700 C.3    95  TYR95       0.0534
     84  CG         4.8520   29.4450    1.3230 C.ar   95  TYR95      -0.0201
     85  CD1        5.8950   28.6540    0.9330 C.ar   95  TYR95      -0.0009
     86  CD2        3.5560   28.9340    1.2260 C.ar   95  TYR95      -0.0009
     87  CE1        5.6910   27.3910    0.4090 C.ar   95  TYR95       0.0417
     88  CE2        3.3240   27.6520    0.7470 C.ar   95  TYR95       0.0417
     89  CZ         4.3900   26.8760    0.3420 C.ar   95  TYR95       0.1957
     90  OH         4.2070   25.5990   -0.1600 O.3    95  TYR95      -0.2866
@<TRIPOS>BOND
     1    37    36   ar
     2    38    36   ar
     3    36    35    1
     4    15    14    2
     5    24    25    1
     6    24    21    1
     7    31    32    1
     8    27    25   ar
     9    27    29   ar
    10    25    26   ar
    11    32    35    1
    12    32    33    1
    13    21    20    1
    14    21    22    1
    15    14    20   am
    16    14    13    1
    17    29    30   ar
    18    26    28   ar
    19    30    28   ar
    20    22    23    2
    21    13    16    1
    22    13    12    1
    23    33    34    2
    24    48    47    1
    25    16    17    1
    26    10     9    1
    27    11     9    1
    28     9     8    2
    29     8     7    1
    30     7     6    1
    31    18    17    2
    32    17    19   am
    33    47    49    1
    34    47    46    2
    35     6     5    1
    36    45    46    1
    37    45    44    1
    38    42    41    2
    39    43    44    1
    40    43    40    1
    41    54    51    1
    42    53    52    2
    43     5     2    1
    44    39    40    1
    45    41    40    1
    46     3     2    1
    47     3     4    2
    48    50    51    1
    49     2     1    1
    50    52    51    1
    51    52    55   am
    52    78    76   ar
    53    90    89    1
    54    77    76   ar
    55    55    56    1
    56    76    75    1
    57    56    57    1
    58    56    59    1
    59    89    87   ar
    60    89    88   ar
    61    87    85   ar
    62    57    58    2
    63    68    67    1
    64    88    86   ar
    65    69    67    1
    66    85    84   ar
    67    60    59    1
    68    60    61    1
    69    86    84   ar
    70    75    74    1
    71    84    83    1
    72    67    64    1
    73    83    80    1
    74    74    71    1
    75    64    63    1
    76    64    65    1
    77    61    62    1
    78    71    70    1
    79    71    72    1
    80    80    81    1
    81    80    79    1
    82    65    66    2
    83    82    81    2
    84    72    73    2
