@<TRIPOS>MOLECULE
tmp/6g28A00.pdb
 180 173 0 0 0
SMALL
GASTEIGER

@<TRIPOS>ATOM
      1  N         11.0990   11.5260  -12.1990 N.3    57  ASP57      -0.1225
      2  CA         9.8620   10.8380  -12.4220 C.3    57  ASP57       0.1805
      3  C          9.8890    9.4030  -11.8910 C.2    57  ASP57       0.2597
      4  O          8.8350    8.8590  -11.5440 O.2    57  ASP57      -0.2718
      5  CB         9.5200   10.8320  -13.9150 C.3    57  ASP57       0.1424
      6  CG        10.5240   10.0150  -14.7170 C.2    57  ASP57       0.3668
      7  OD1       11.7520   10.2690  -14.5690 O.co2  57  ASP57      -0.2456
      8  OD2       10.0820    9.1440  -15.4780 O.co2  57  ASP57      -0.2456
      9  N         11.0550    8.7550  -11.9100 N.am   58  ASP58      -0.1974
     10  CA        11.1170    7.3570  -11.4920 C.3    58  ASP58       0.1709
     11  C         10.6050    7.1920  -10.0580 C.2    58  ASP58       0.2293
     12  O          9.7820    6.3250   -9.7730 O.2    58  ASP58      -0.2864
     13  CB        12.5330    6.7940  -11.5900 C.3    58  ASP58       0.1436
     14  CG        13.1920    6.9430  -12.9480 C.2    58  ASP58       0.3671
     15  OD1       13.2630    8.1010  -13.4200 O.co2  58  ASP58      -0.2456
     16  OD2       13.6480    5.9260  -13.5390 O.co2  58  ASP58      -0.2456
     17  N         11.5700   15.4620  -15.8540 N.3   100  ALA100     -0.1231
     18  CA        11.7790   14.8140  -17.1750 C.3   100  ALA100      0.1679
     19  C         11.0350   13.4900  -17.2890 C.2   100  ALA100      0.2434
     20  O         11.6500   12.4530  -17.6050 O.2   100  ALA100     -0.2733
     21  CB        13.2560   14.6640  -17.4840 C.3   100  ALA100      0.0304
     22  N          9.7060   13.4560  -17.1230 N.am  101  PRO101     -0.2718
     23  CA         8.9580   12.2160  -17.3210 C.3   101  PRO101      0.1535
     24  C          8.9750   11.7580  -18.7860 C.2   101  PRO101      0.2599
     25  O          9.1880   12.5440  -19.6910 O.2   101  PRO101     -0.2715
     26  CB         7.5500   12.6050  -16.8750 C.3   101  PRO101      0.0310
     27  CG         7.4620   14.0420  -17.2210 C.3   101  PRO101      0.0237
     28  CD         8.8220   14.6060  -16.8420 C.3   101  PRO101      0.0939
     29  N          8.7440   10.4810  -19.0060 N.am  102  GLY102     -0.1941
     30  CA         8.8520    9.8450  -20.3080 C.3   102  GLY102      0.2014
     31  C          7.5650    9.9120  -21.1120 C.2   102  GLY102      0.2639
     32  O          6.4690   10.1430  -20.5970 O.2   102  GLY102     -0.2714
     33  N          7.6930    9.6290  -22.4070 N.am  103  GLY103     -0.1939
     34  CA         6.6150    9.7920  -23.3480 C.3   103  GLY103      0.2014
     35  C          5.4160    8.8870  -23.1030 C.2   103  GLY103      0.2639
     36  O          4.2820    9.3370  -23.0700 O.2   103  GLY103     -0.2714
     37  N          5.6450    7.5660  -23.0310 N.am  104  ALA104     -0.1963
     38  CA         4.5370    6.6350  -22.8510 C.3   104  ALA104      0.1728
     39  C          3.8720    6.8740  -21.4930 C.2   104  ALA104      0.2616
     40  O          2.6620    6.8370  -21.3590 O.2   104  ALA104     -0.2715
     41  CB         5.0100    5.2060  -22.9820 C.3   104  ALA104      0.0334
     42  N          4.7000    7.0920  -20.4610 N.am  105  SER105     -0.1950
     43  CA         4.1890    7.3170  -19.1240 C.3   105  SER105      0.1924
     44  C          3.1980    8.4830  -19.1020 C.2   105  SER105      0.2314
     45  O          2.1000    8.3800  -18.5480 O.2   105  SER105     -0.2863
     46  CB         5.3260    7.6050  -18.1770 C.3   105  SER105      0.2116
     47  OG         6.2290    6.5060  -18.0190 O.3   105  SER105     -0.2180
     48  N          3.4310   -0.6070  -30.3460 N.3   126  SER126     -0.1202
     49  CA         4.7790   -0.9720  -30.7040 C.3   126  SER126      0.2020
     50  C          5.8410   -0.0870  -30.0390 C.2   126  SER126      0.2618
     51  O          6.9610   -0.5040  -29.9230 O.2   126  SER126     -0.2717
     52  CB         4.9630   -0.9390  -32.2260 C.3   126  SER126      0.2103
     53  OG         4.6880    0.3550  -32.7410 O.3   126  SER126     -0.2182
     54  N          5.4890    1.1480  -29.6580 N.am  127  HIS127     -0.1975
     55  CA         6.4350    2.1530  -29.1310 C.3   127  HIS127      0.1656
     56  C          6.3830    2.2480  -27.6000 C.2   127  HIS127      0.2291
     57  O          6.9420    3.1880  -27.0450 O.2   127  HIS127     -0.2864
     58  CB         6.1160    3.5580  -29.7190 C.3   127  HIS127      0.0771
     59  CG         6.4070    3.8320  -31.1520 C.ar  127  HIS127      0.0820
     60  ND1        5.6200    4.7080  -31.8910 N.ar  127  HIS127     -0.2267
     61  CD2        7.4060    3.4260  -31.9700 C.ar  127  HIS127      0.1154
     62  CE1        6.1060    4.7970  -33.1120 C.ar  127  HIS127      0.1986
     63  NE2        7.2150    4.0230  -33.1900 N.ar  127  HIS127     -0.2212
     64  N          7.7300    0.2530  -25.2560 N.3   129  GLY129     -0.1210
     65  CA         8.7710   -0.5920  -24.6510 C.3   129  GLY129      0.1956
     66  C          9.7900    0.1260  -23.7880 C.2   129  GLY129      0.2612
     67  O         10.7820   -0.4880  -23.4120 O.2   129  GLY129     -0.2717
     68  N          9.5550    1.3950  -23.4410 N.am  130  GLY130     -0.1942
     69  CA        10.4340    2.1390  -22.5320 C.3   130  GLY130      0.2014
     70  C         10.4870    1.5310  -21.1490 C.2   130  GLY130      0.2639
     71  O          9.6970    0.6840  -20.7890 O.2   130  GLY130     -0.2714
     72  N         11.4090    2.0590  -20.3460 N.am  131  CYS131     -0.1953
     73  CA        11.6440    1.5420  -18.9960 C.3   131  CYS131      0.1843
     74  C         10.6850    2.1180  -17.9450 C.2   131  CYS131      0.2626
     75  O         10.8330    1.7860  -16.7640 O.2   131  CYS131     -0.2714
     76  CB        13.0700    1.8020  -18.5500 C.3   131  CYS131      0.0997
     77  SG        13.4740    3.5630  -18.3950 S.3   131  CYS131     -0.0797
     78  N          9.6850    2.9220  -18.3270 N.am  132  GLY132     -0.1954
     79  CA         8.8290    3.5870  -17.3490 C.3   132  GLY132      0.1869
     80  C          7.9860    2.6330  -16.5500 C.2   132  GLY132      0.2309
     81  O          7.5370    3.0090  -15.4480 O.2   132  GLY132     -0.2863
     82  N         10.6890    0.9800  -13.9500 N.3   135  MET135     -0.1245
     83  CA        11.3000    1.8710  -12.9480 C.3   135  MET135      0.1570
     84  C         10.4370    2.0220  -11.6920 C.2   135  MET135      0.2261
     85  O         10.9330    2.5190  -10.6720 O.2   135  MET135     -0.2867
     86  CB        11.5500    3.2460  -13.5790 C.3   135  MET135      0.0387
     87  CG        10.3070    4.1090  -13.7010 C.3   135  MET135      0.0595
     88  SD        10.5120    5.6010  -14.6360 S.3   135  MET135     -0.1393
     89  CE         8.8430    6.2360  -14.5480 C.3   135  MET135      0.0692
     90  N          2.4760    1.0050  -20.5770 N.3   165  HIS165     -0.1241
     91  CA         3.4550    0.3520  -21.4370 C.3   165  HIS165      0.1621
     92  C          2.8760   -0.9600  -21.9410 C.2   165  HIS165      0.2264
     93  O          3.2540   -2.0370  -21.3990 O.2   165  HIS165     -0.2867
     94  CB         4.7720    0.1460  -20.7010 C.3   165  HIS165      0.0745
     95  CG         5.5290    1.4100  -20.4860 C.ar  165  HIS165      0.0817
     96  ND1        5.0980    2.4080  -19.6240 N.ar  165  HIS165     -0.2268
     97  CD2        6.6790    1.8220  -21.0380 C.ar  165  HIS165      0.1154
     98  CE1        5.9940    3.3840  -19.6940 C.ar  165  HIS165      0.1986
     99  NE2        6.9600    3.0500  -20.5230 N.ar  165  HIS165     -0.2212
    100  N          3.2290   -3.3210  -24.1300 N.3   167  HIS167     -0.1241
    101  CA         4.1590   -3.9950  -25.0170 C.3   167  HIS167      0.1621
    102  C          4.9850   -4.8910  -24.1120 C.2   167  HIS167      0.2264
    103  O          5.4330   -4.4120  -23.0730 O.2   167  HIS167     -0.2867
    104  CB         5.0550   -2.9870  -25.7660 C.3   167  HIS167      0.0745
    105  CG         5.9260   -3.6170  -26.7900 C.ar  167  HIS167      0.0817
    106  ND1        7.0070   -4.4390  -26.5010 N.ar  167  HIS167     -0.2268
    107  CD2        5.8770   -3.5320  -28.1300 C.ar  167  HIS167      0.1154
    108  CE1        7.5560   -4.8450  -27.6320 C.ar  167  HIS167      0.1986
    109  NE2        6.8830   -4.3030  -28.6340 N.ar  167  HIS167     -0.2212
    110  N          8.0440   -5.7790  -24.0890 N.3   169  THR169     -0.1218
    111  CA         9.3450   -5.2540  -23.6990 C.3   169  THR169      0.1862
    112  C          9.1890   -4.2870  -22.5270 C.2   169  THR169      0.2287
    113  O         10.0570   -4.2110  -21.6720 O.2   169  THR169     -0.2866
    114  CB        10.0720   -4.6210  -24.8850 C.3   169  THR169      0.1770
    115  OG1       10.2190   -5.6590  -25.8550 O.3   169  THR169     -0.2211
    116  CG2       11.4110   -4.0260  -24.5050 C.3   169  THR169      0.0375
    117  N         11.6360  -10.3460  -28.2700 N.3   224  TYR224     -0.1241
    118  CA        12.7060   -9.3800  -28.0400 C.3   224  TYR224      0.1605
    119  C         13.2060   -9.4540  -26.5890 C.2   224  TYR224      0.2264
    120  O         14.3970   -9.6400  -26.3200 O.2   224  TYR224     -0.2867
    121  CB        12.2430   -7.9810  -28.3980 C.3   224  TYR224      0.0534
    122  CG        13.3360   -6.9570  -28.2530 C.ar  224  TYR224     -0.0201
    123  CD1       14.2730   -6.7610  -29.2580 C.ar  224  TYR224     -0.0009
    124  CD2       13.4600   -6.2010  -27.0990 C.ar  224  TYR224     -0.0009
    125  CE1       15.2760   -5.8060  -29.1380 C.ar  224  TYR224      0.0417
    126  CE2       14.4500   -5.2360  -26.9720 C.ar  224  TYR224      0.0417
    127  CZ        15.3750   -5.0610  -27.9820 C.ar  224  TYR224      0.1957
    128  OH        16.3480   -4.0970  -27.8510 O.3   224  TYR224     -0.2866
    129  N         18.0380   -0.5170  -27.2060 N.3   265  TYR265     -0.1227
    130  CA        17.1950   -0.4790  -28.3690 C.3   265  TYR265      0.1736
    131  C         17.5900    0.6660  -29.3100 C.2   265  TYR265      0.2596
    132  O         17.6620    0.4370  -30.5250 O.2   265  TYR265     -0.2718
    133  CB        15.7390   -0.3350  -27.9320 C.3   265  TYR265      0.0548
    134  CG        14.7680   -0.4540  -29.0730 C.ar  265  TYR265     -0.0200
    135  CD1       14.5740   -1.6660  -29.7090 C.ar  265  TYR265     -0.0009
    136  CD2       14.0340    0.6360  -29.4850 C.ar  265  TYR265     -0.0009
    137  CE1       13.6750   -1.7960  -30.7540 C.ar  265  TYR265      0.0417
    138  CE2       13.1210    0.5260  -30.5270 C.ar  265  TYR265      0.0417
    139  CZ        12.9340   -0.6970  -31.1460 C.ar  265  TYR265      0.1957
    140  OH        12.0900   -0.8620  -32.2160 O.3   265  TYR265     -0.2866
    141  N         17.7700    1.8900  -28.8190 N.am  266  SER266     -0.1952
    142  CA        17.9480    3.0420  -29.7090 C.3   266  SER266      0.1924
    143  C         19.2590    3.7980  -29.4560 C.2   266  SER266      0.2314
    144  O         19.4820    4.8470  -30.0740 O.2   266  SER266     -0.2863
    145  CB        16.7540    3.9360  -29.6400 C.3   266  SER266      0.2116
    146  OG        16.5550    4.3440  -28.3150 O.3   266  SER266     -0.2180
    147  N         17.2610    2.4430  -21.3610 N.3   271  SER271     -0.1202
    148  CA        16.0860    3.2790  -21.6780 C.3   271  SER271      0.2020
    149  C         14.8260    2.4520  -21.9280 C.2   271  SER271      0.2619
    150  O         13.7460    3.0330  -22.0290 O.2   271  SER271     -0.2717
    151  CB        16.3520    4.1470  -22.8510 C.3   271  SER271      0.2103
    152  OG        16.4800    3.3430  -23.9970 O.3   271  SER271     -0.2182
    153  N         14.9360    1.1220  -21.9260 N.am  272  SER272     -0.1951
    154  CA        13.8360    0.2480  -22.2550 C.3   272  SER272      0.1924
    155  C         13.5300   -0.7100  -21.1120 C.2   272  SER272      0.2314
    156  O         14.2830   -0.8740  -20.1580 O.2   272  SER272     -0.2863
    157  CB        14.1410   -0.5440  -23.4880 C.3   272  SER272      0.2116
    158  OG        14.5520    0.2770  -24.5620 O.3   272  SER272     -0.2180
    159  N         20.6770    5.6250  -19.6220 N.3   304  ASP304     -0.1239
    160  CA        19.5110    6.0780  -18.8410 C.3   304  ASP304      0.1674
    161  C         19.7800    5.7650  -17.3690 C.2   304  ASP304      0.2266
    162  O         19.2870    4.8250  -16.7890 O.2   304  ASP304     -0.2867
    163  CB        18.2640    5.3880  -19.3830 C.3   304  ASP304      0.1410
    164  CG        16.9790    6.0030  -18.8760 C.2   304  ASP304      0.3668
    165  OD1       17.0420    6.7290  -17.8650 O.co2 304  ASP304     -0.2456
    166  OD2       15.9140    5.6760  -19.4210 O.co2 304  ASP304     -0.2456
    167  N         19.4530    7.4350  -14.3450 N.3   306  ASP306     -0.1225
    168  CA        18.5650    7.5920  -13.1900 C.3   306  ASP306      0.1805
    169  C         17.6750    6.3540  -13.0460 C.2   306  ASP306      0.2598
    170  O         17.3330    5.9570  -11.9280 O.2   306  ASP306     -0.2718
    171  CB        17.7690    8.8930  -13.2690 C.3   306  ASP306      0.1424
    172  CG        16.7700    8.9640  -14.3980 C.2   306  ASP306      0.3668
    173  OD1       16.9700    8.2940  -15.4280 O.co2 306  ASP306     -0.2456
    174  OD2       15.7700    9.6730  -14.2560 O.co2 306  ASP306     -0.2456
    175  N         17.3430    5.7240  -14.1770 N.am  307  SER307     -0.1952
    176  CA        16.3620    4.6600  -14.2160 C.3   307  SER307      0.1924
    177  C         17.0030    3.3080  -13.8550 C.2   307  SER307      0.2314
    178  O         16.4530    2.5290  -13.0970 O.2   307  SER307     -0.2863
    179  CB        15.6550    4.6870  -15.5540 C.3   307  SER307      0.2116
    180  OG        15.0480    5.9800  -15.7520 O.3   307  SER307     -0.2180
@<TRIPOS>BOND
     1    63    62   ar
     2    63    61   ar
     3    62    60   ar
     4    53    52    1
     5    52    49    1
     6   140   139    1
     7    61    59   ar
     8    60    59   ar
     9    59    58    1
    10   139   137   ar
    11   139   138   ar
    12   137   135   ar
    13    49    48    1
    14    49    50    1
    15   138   136   ar
    16   132   131    2
    17   144   143    2
    18    50    51    2
    19    50    54   am
    20    58    55    1
    21   142   145    1
    22   142   143    1
    23   142   141    1
    24   135   134   ar
    25    54    55    1
    26   145   146    1
    27   136   134   ar
    28   131   141   am
    29   131   130    1
    30   123   125   ar
    31   123   122   ar
    32   125   127   ar
    33    55    56    1
    34   134   133    1
    35   109   107   ar
    36   109   108   ar
    37   121   122    1
    38   121   118    1
    39   130   133    1
    40   130   129    1
    41   117   118    1
    42   122   124   ar
    43   107   105   ar
    44   118   119    1
    45   127   128    1
    46   127   126   ar
    47   108   106   ar
    48    56    57    2
    49   124   126   ar
    50   105   106   ar
    51   105   104    1
    52   119   120    2
    53   115   114    1
    54   104   101    1
    55    64    65    1
    56   101   100    1
    57   101   102    1
    58   114   116    1
    59   114   111    1
    60    65    66    1
    61   158   157    1
    62   102   103    2
    63   110   111    1
    64   152   151    1
    65    66    68   am
    66    66    67    2
    67   111   112    1
    68   157   154    1
    69    68    69    1
    70    34    35    1
    71    34    33    1
    72    35    36    2
    73    35    37   am
    74    37    38    1
    75    41    38    1
    76    38    39    1
    77   151   148    1
    78    69    70    1
    79   112   113    2
    80    33    31   am
    81   154   153    1
    82   154   155    1
    83   150   149    2
    84    92    91    1
    85    92    93    2
    86   149   153   am
    87   149   148    1
    88   148   147    1
    89    39    40    2
    90    39    42   am
    91    91    94    1
    92    91    90    1
    93    70    71    2
    94    70    72   am
    95   155   156    2
    96    31    32    2
    97    31    30    1
    98    97    99   ar
    99    97    95   ar
   100    94    95    1
   101    99    98   ar
   102    95    96   ar
   103    42    43    1
   104    72    73    1
   105    30    29    1
   106    98    96   ar
   107    25    24    2
   108   159   160    1
   109   166   164   ar
   110   163   164    1
   111   163   160    1
   112    43    44    1
   113    43    46    1
   114    44    45    2
   115    29    24   am
   116    73    76    1
   117    73    74    1
   118   164   165   ar
   119   160   161    1
   120    24    23    1
   121    76    77    1
   122    78    74   am
   123    78    79    1
   124    46    47    1
   125    74    75    2
   126    20    19    2
   127    21    18    1
   128   161   162    2
   129    79    80    1
   130    23    22    1
   131    23    26    1
   132    19    18    1
   133    19    22   am
   134    27    26    1
   135    27    28    1
   136    18    17    1
   137    22    28    1
   138    80    81    2
   139   180   179    1
   140   179   176    1
   141     8     6   ar
   142   173   172   ar
   143     6     7   ar
   144     6     5    1
   145    88    89    1
   146    88    87    1
   147   172   174   ar
   148   172   171    1
   149   167   168    1
   150   176   175    1
   151   176   177    1
   152   175   169   am
   153    82    83    1
   154     5     2    1
   155   177   178    2
   156    87    86    1
   157    86    83    1
   158    16    14   ar
   159    15    14   ar
   160   171   168    1
   161   168   169    1
   162   169   170    2
   163    14    13    1
   164    83    84    1
   165     2     1    1
   166     2     3    1
   167     9     3   am
   168     9    10    1
   169     3     4    2
   170    84    85    2
   171    13    10    1
   172    10    11    1
   173    11    12    2
