@<TRIPOS>MOLECULE
tmp/6g2aA00.pdb
 183 174 0 0 0
SMALL
GASTEIGER

@<TRIPOS>ATOM
      1  N        -17.8390    8.7130   29.9310 N.3    59  ASP59      -0.1225
      2  CA       -16.4250    8.4840   29.7890 C.3    59  ASP59       0.1805
      3  C        -15.7960    9.5280   28.8320 C.2    59  ASP59       0.2597
      4  O        -14.6680    9.9230   29.0450 O.2    59  ASP59      -0.2718
      5  CB       -16.1490    7.0790   29.2710 C.3    59  ASP59       0.1424
      6  CG       -16.8050    6.8560   27.9240 C.2    59  ASP59       0.3668
      7  OD1      -17.9600    7.2620   27.8240 O.co2  59  ASP59      -0.2456
      8  OD2      -16.1260    6.3730   26.9710 O.co2  59  ASP59      -0.2456
      9  N        -16.5610    9.9880   27.8410 N.am   60  ASP60      -0.1974
     10  CA       -15.9680   10.9020   26.8080 C.3    60  ASP60       0.1709
     11  C        -15.4200   12.1460   27.5200 C.2    60  ASP60       0.2293
     12  O        -14.2510   12.5080   27.3450 O.2    60  ASP60      -0.2864
     13  CB       -16.9570   11.3010   25.7150 C.3    60  ASP60       0.1436
     14  CG       -17.5160   10.0910   24.9830 C.2    60  ASP60       0.3671
     15  OD1      -18.1290    9.2820   25.6370 O.co2  60  ASP60      -0.2456
     16  OD2      -17.3380    9.9870   23.7560 O.co2  60  ASP60      -0.2456
     17  N        -20.3030    4.1030   31.2750 N.3   102  ALA102     -0.1245
     18  CA       -20.2160    3.1610   30.1060 C.3   102  ALA102      0.1562
     19  C        -18.9380    3.4090   29.3210 C.2   102  ALA102      0.2260
     20  O        -18.9590    3.6670   28.1260 O.2   102  ALA102     -0.2867
     21  CB       -21.4610    3.2630   29.2570 C.3   102  ALA102      0.0290
     22  N        -15.3870    2.4240   27.3100 N.3   104  GLY104     -0.1210
     23  CA       -15.0850    1.4170   26.3270 C.3   104  GLY104      0.1956
     24  C        -14.0400    0.4350   26.8220 C.2   104  GLY104      0.2612
     25  O        -13.2850    0.7250   27.7500 O.2   104  GLY104     -0.2717
     26  N        -13.9760   -0.7040   26.1130 N.am  105  GLY105     -0.1942
     27  CA       -13.1390   -1.8180   26.4460 C.3   105  GLY105      0.2014
     28  C        -11.6680   -1.4810   26.3430 C.2   105  GLY105      0.2639
     29  O        -10.9300   -1.8400   27.2440 O.2   105  GLY105     -0.2714
     30  N        -11.2370   -0.8500   25.2330 N.am  106  ALA106     -0.1963
     31  CA        -9.8170   -0.5690   25.0400 C.3   106  ALA106      0.1728
     32  C         -9.3670    0.5280   26.0040 C.2   106  ALA106      0.2616
     33  O         -8.3110    0.3820   26.6570 O.2   106  ALA106     -0.2715
     34  CB        -9.5050   -0.2130   23.6160 C.3   106  ALA106      0.0334
     35  N        -10.1920    1.5790   26.1280 N.am  107  SER107     -0.1950
     36  CA        -9.9380    2.6820   27.0380 C.3   107  SER107      0.1924
     37  C         -9.5830    2.1560   28.4380 C.2   107  SER107      0.2314
     38  O         -8.4980    2.4060   28.9620 O.2   107  SER107     -0.2863
     39  CB       -11.1090    3.5820   27.0960 C.3   107  SER107      0.2116
     40  OG       -11.2490    4.2740   25.8620 O.3   107  SER107     -0.2180
     41  N         -5.3070   -5.5490   17.0280 N.3   128  SER128     -0.1202
     42  CA        -6.3680   -5.5480   15.9620 C.3   128  SER128      0.2020
     43  C         -7.7150   -4.9920   16.4360 C.2   128  SER128      0.2618
     44  O         -8.5300   -4.6200   15.6070 O.2   128  SER128     -0.2717
     45  CB        -6.6210   -6.9300   15.4180 C.3   128  SER128      0.2103
     46  OG        -5.4100   -7.6030   15.2410 O.3   128  SER128     -0.2182
     47  N         -7.9940   -5.0620   17.7410 N.am  129  HIS129     -0.1975
     48  CA        -9.2810   -4.6350   18.3050 C.3   129  HIS129      0.1656
     49  C         -9.2260   -3.2260   18.9000 C.2   129  HIS129      0.2291
     50  O        -10.1150   -2.8970   19.6850 O.2   129  HIS129     -0.2864
     51  CB        -9.7570   -5.6150   19.3930 C.3   129  HIS129      0.0771
     52  CG       -10.0270   -6.9920   18.8800 C.ar  129  HIS129      0.0820
     53  ND1       -9.0080   -7.8350   18.5020 N.ar  129  HIS129     -0.2267
     54  CD2      -11.1830   -7.6550   18.6680 C.ar  129  HIS129      0.1154
     55  CE1       -9.5170   -8.9820   18.0990 C.ar  129  HIS129      0.1986
     56  NE2      -10.8680   -8.8930   18.1780 N.ar  129  HIS129     -0.2212
     57  N         -9.2890   -0.1160   17.3590 N.3   131  GLY131     -0.1210
     58  CA        -9.7060    0.9070   16.4160 C.3   131  GLY131      0.1956
     59  C        -10.9840    1.6360   16.8250 C.2   131  GLY131      0.2612
     60  O        -11.5200    2.3800   16.0170 O.2   131  GLY131     -0.2717
     61  N        -11.4320    1.4830   18.0880 N.am  132  GLY132     -0.1942
     62  CA       -12.5740    2.2080   18.6220 C.3   132  GLY132      0.2014
     63  C        -12.3230    3.7070   18.7020 C.2   132  GLY132      0.2639
     64  O        -11.1860    4.1510   18.5640 O.2   132  GLY132     -0.2714
     65  N        -13.3690    4.4830   19.0170 N.am  133  CYS133     -0.1953
     66  CA       -13.3220    5.9500   19.0510 C.3   133  CYS133      0.1843
     67  C        -12.8500    6.5260   20.3940 C.2   133  CYS133      0.2626
     68  O        -12.8160    7.7200   20.5220 O.2   133  CYS133     -0.2714
     69  CB       -14.6620    6.6020   18.7050 C.3   133  CYS133      0.0997
     70  SG       -15.9820    6.3790   19.9290 S.3   133  CYS133     -0.0797
     71  N        -12.4200    5.6790   21.3360 N.am  134  GLY134     -0.1954
     72  CA       -11.9970    6.1300   22.6690 C.3   134  GLY134      0.1869
     73  C        -10.8140    7.0690   22.6420 C.2   134  GLY134      0.2309
     74  O        -10.7070    7.8390   23.5060 O.2   134  GLY134     -0.2863
     75  N        -12.3300   10.5910   20.9660 N.3   137  MET137     -0.1245
     76  CA       -13.3230   11.3080   21.7550 C.3   137  MET137      0.1570
     77  C        -12.6680   12.2460   22.7600 C.2   137  MET137      0.2261
     78  O        -13.3690   13.0890   23.3170 O.2   137  MET137     -0.2867
     79  CB       -14.2100   10.3320   22.5400 C.3   137  MET137      0.0387
     80  CG       -13.4960    9.6560   23.6540 C.3   137  MET137      0.0595
     81  SD       -14.5070    8.4190   24.5480 S.3   137  MET137     -0.1393
     82  CE       -13.3180    8.0590   25.8470 C.3   137  MET137      0.0692
     83  N         -5.1570    2.9220   22.2440 N.3   167  HIS167     -0.1241
     84  CA        -5.6980    2.5170   20.9570 C.3   167  HIS167      0.1621
     85  C         -4.5460    2.4040   19.9400 C.2   167  HIS167      0.2264
     86  O         -4.3960    3.3200   19.1420 O.2   167  HIS167     -0.2867
     87  CB        -6.7660    3.5350   20.5030 C.3   167  HIS167      0.0745
     88  CG        -8.0580    3.4070   21.2320 C.ar  167  HIS167      0.0817
     89  ND1       -8.1920    3.8030   22.5530 N.ar  167  HIS167     -0.2268
     90  CD2       -9.2770    2.9650   20.8460 C.ar  167  HIS167      0.1154
     91  CE1       -9.4300    3.5710   22.9480 C.ar  167  HIS167      0.1986
     92  NE2      -10.1010    3.0600   21.9430 N.ar  167  HIS167     -0.2212
     93  N         -3.7130    1.1490   17.1240 N.3   169  HIS169     -0.1241
     94  CA        -4.2380    0.7690   15.8290 C.3   169  HIS169      0.1621
     95  C         -4.5190    2.0520   15.0630 C.2   169  HIS169      0.2264
     96  O         -5.1060    2.9730   15.6070 O.2   169  HIS169     -0.2867
     97  CB        -5.5010   -0.0750   15.9740 C.3   169  HIS169      0.0745
     98  CG        -5.9330   -0.7340   14.7110 C.ar  169  HIS169      0.0817
     99  ND1       -6.4540   -0.0170   13.6530 N.ar  169  HIS169     -0.2268
    100  CD2       -5.9130   -2.0320   14.3190 C.ar  169  HIS169      0.1154
    101  CE1       -6.7850   -0.8450   12.6800 C.ar  169  HIS169      0.1986
    102  NE2       -6.4850   -2.0910   13.0670 N.ar  169  HIS169     -0.2212
    103  N         -6.5980    3.0510   12.9300 N.3   171  THR171     -0.1218
    104  CA        -8.0030    3.4310   12.8720 C.3   171  THR171      0.1862
    105  C         -8.3370    4.1780   14.1740 C.2   171  THR171      0.2287
    106  O         -9.0810    5.1800   14.1710 O.2   171  THR171     -0.2866
    107  CB        -8.9040    2.2130   12.6500 C.3   171  THR171      0.1770
    108  OG1       -8.6190    1.6270   11.3830 O.3   171  THR171     -0.2211
    109  CG2      -10.3820    2.5240   12.6920 C.3   171  THR171      0.0375
    110  N         -7.2120    1.4850    5.8290 N.3   226  TYR226     -0.1241
    111  CA        -8.6450    1.5180    6.1410 C.3   226  TYR226      0.1605
    112  C         -9.1360    2.9380    6.4680 C.2   226  TYR226      0.2264
    113  O        -10.1530    3.3800    5.9300 O.2   226  TYR226     -0.2867
    114  CB        -8.9980    0.6260    7.3280 C.3   226  TYR226      0.0534
    115  CG       -10.4640    0.6580    7.6750 C.ar  226  TYR226     -0.0201
    116  CD1      -11.3740   -0.1090    6.9610 C.ar  226  TYR226     -0.0009
    117  CD2      -10.9580    1.4860    8.6740 C.ar  226  TYR226     -0.0009
    118  CE1      -12.7270   -0.0840    7.2440 C.ar  226  TYR226      0.0417
    119  CE2      -12.3140    1.5170    8.9790 C.ar  226  TYR226      0.0417
    120  CZ       -13.2000    0.7300    8.2610 C.ar  226  TYR226      0.1957
    121  OH       -14.5340    0.7240    8.5410 O.3   226  TYR226     -0.2866
    122  N        -17.4990    0.6160   10.8070 N.3   267  TYR267     -0.1227
    123  CA       -16.6350   -0.5550   10.6970 C.3   267  TYR267      0.1736
    124  C        -17.4820   -1.8250   10.5870 C.2   267  TYR267      0.2596
    125  O        -17.2840   -2.6460    9.6790 O.2   267  TYR267     -0.2718
    126  CB       -15.7260   -0.6850   11.9200 C.3   267  TYR267      0.0548
    127  CG       -14.8590   -1.9160   11.9020 C.ar  267  TYR267     -0.0200
    128  CD1      -13.9770   -2.1230   10.8540 C.ar  267  TYR267     -0.0009
    129  CD2      -14.9200   -2.8680   12.9100 C.ar  267  TYR267     -0.0009
    130  CE1      -13.1790   -3.2530   10.7980 C.ar  267  TYR267      0.0417
    131  CE2      -14.1170   -3.9960   12.8770 C.ar  267  TYR267      0.0417
    132  CZ       -13.2500   -4.1890   11.8120 C.ar  267  TYR267      0.1957
    133  OH       -12.4770   -5.3050   11.7160 O.3   267  TYR267     -0.2866
    134  N        -18.3970   -2.0070   11.5430 N.am  268  SER268     -0.1952
    135  CA       -19.1420   -3.2500   11.5990 C.3   268  SER268      0.1924
    136  C        -20.6160   -3.0110   11.9260 C.2   268  SER268      0.2314
    137  O        -21.2440   -3.9020   12.4670 O.2   268  SER268     -0.2863
    138  CB       -18.5180   -4.1800   12.6050 C.3   268  SER268      0.2116
    139  OG       -18.5370   -3.5880   13.8920 O.3   268  SER268     -0.2180
    140  N        -18.7140    4.4970   16.3380 N.3   273  SER273     -0.1202
    141  CA       -18.1210    3.7090   17.4150 C.3   273  SER273      0.2020
    142  C        -16.6050    3.6160   17.2470 C.2   273  SER273      0.2619
    143  O        -15.9350    3.2240   18.1830 O.2   273  SER273     -0.2717
    144  CB       -18.6990    2.3170   17.4270 C.3   273  SER273      0.2103
    145  OG       -18.5390    1.6980   16.1540 O.3   273  SER273     -0.2182
    146  N        -16.0920    3.9220   16.0360 N.am  274  SER274     -0.1951
    147  CA       -14.6630    3.7170   15.7020 C.3   274  SER274      0.1924
    148  C        -13.9200    5.0520   15.5260 C.2   274  SER274      0.2314
    149  O        -14.5050    6.1230   15.3930 O.2   274  SER274     -0.2863
    150  CB       -14.5360    2.8620   14.4700 C.3   274  SER274      0.2116
    151  OG       -15.2150    1.6310   14.6460 O.3   274  SER274     -0.2180
    152  N        -12.3240    6.1560   12.9140 N.3   276  HIS276     -0.1241
    153  CA       -12.5550    6.8210   11.6270 C.3   276  HIS276      0.1621
    154  C        -13.9050    7.5500   11.5580 C.2   276  HIS276      0.2264
    155  O        -13.9380    8.6600   11.0090 O.2   276  HIS276     -0.2867
    156  CB       -12.4120    5.8500   10.4720 C.3   276  HIS276      0.0745
    157  CG       -13.5570    4.9020   10.3950 C.ar  276  HIS276      0.0817
    158  ND1      -13.8150    3.9790   11.4100 N.ar  276  HIS276     -0.2268
    159  CD2      -14.5070    4.7320    9.4450 C.ar  276  HIS276      0.1154
    160  CE1      -14.8690    3.2620   11.0640 C.ar  276  HIS276      0.1986
    161  NE2      -15.3020    3.6900    9.8480 N.ar  276  HIS276     -0.2212
    162  N        -23.0660    5.7070   18.3670 N.3   306  ASP306     -0.1239
    163  CA       -22.3380    6.1910   19.5250 C.3   306  ASP306      0.1674
    164  C        -22.3770    7.7190   19.5330 C.2   306  ASP306      0.2266
    165  O        -21.3570    8.4200   19.4050 O.2   306  ASP306     -0.2867
    166  CB       -20.9460    5.5670   19.6160 C.3   306  ASP306      0.1410
    167  CG       -21.0200    4.1380   20.1300 C.2   306  ASP306      0.3668
    168  OD1      -22.0720    3.7560   20.6910 O.co2 306  ASP306     -0.2456
    169  OD2      -20.0400    3.4170   19.9630 O.co2 306  ASP306     -0.2456
    170  N        -22.9310    9.8380   22.0240 N.3   308  ASP308     -0.1225
    171  CA       -22.1400   10.5140   23.0480 C.3   308  ASP308      0.1805
    172  C        -20.7780   10.9330   22.4540 C.2   308  ASP308      0.2598
    173  O        -20.3220   12.0620   22.7080 O.2   308  ASP308     -0.2718
    174  CB       -22.0050    9.6510   24.3060 C.3   308  ASP308      0.1424
    175  CG       -21.4990    8.2300   24.1090 C.2   308  ASP308      0.3668
    176  OD1      -21.7660    7.6060   23.0530 O.co2 308  ASP308     -0.2456
    177  OD2      -20.8470    7.7660   24.9960 O.co2 308  ASP308     -0.2456
    178  N        -20.1170   10.0220   21.7160 N.am  309  SER309     -0.1952
    179  CA       -18.7760   10.2870   21.2010 C.3   309  SER309      0.1924
    180  C        -18.7980   11.2690   20.0260 C.2   309  SER309      0.2314
    181  O        -17.9120   12.1370   19.9190 O.2   309  SER309     -0.2863
    182  CB       -18.1230    8.9800   20.8400 C.3   309  SER309      0.2116
    183  OG       -18.0470    8.1510   22.0180 O.3   309  SER309     -0.2180
@<TRIPOS>BOND
     1   110   111    1
     2   113   112    2
     3   111   112    1
     4   111   114    1
     5   116   118   ar
     6   116   115   ar
     7   118   120   ar
     8   114   115    1
     9   115   117   ar
    10   120   121    1
    11   120   119   ar
    12   117   119   ar
    13   159   161   ar
    14   159   157   ar
    15   125   124    2
    16   161   160   ar
    17   157   156    1
    18   157   158   ar
    19   156   153    1
    20   124   123    1
    21   124   134   am
    22   123   122    1
    23   123   126    1
    24   130   128   ar
    25   130   132   ar
    26   128   127   ar
    27   155   154    2
    28   160   158   ar
    29   108   107    1
    30   134   135    1
    31   154   153    1
    32   135   136    1
    33   135   138    1
    34   153   152    1
    35   133   132    1
    36   132   131   ar
    37   127   126    1
    38   127   129   ar
    39   136   137    2
    40   138   139    1
    41   107   109    1
    42   107   104    1
    43   101   102   ar
    44   101    99   ar
    45   104   103    1
    46   104   105    1
    47   131   129   ar
    48   102   100   ar
    49    99    98   ar
    50   106   105    2
    51   100    98   ar
    52   150   151    1
    53   150   147    1
    54    98    97    1
    55    95    96    2
    56    95    94    1
    57    46    45    1
    58   149   148    2
    59    45    42    1
    60   148   147    1
    61    44    43    2
    62   147   146    1
    63    94    97    1
    64    94    93    1
    65    42    43    1
    66    42    41    1
    67    60    59    2
    68   146   142   am
    69   145   144    1
    70   140   141    1
    71    58    59    1
    72    58    57    1
    73    43    47   am
    74    59    61   am
    75   142   141    1
    76   142   143    2
    77   141   144    1
    78    47    48    1
    79    61    62    1
    80    55    56   ar
    81    55    53   ar
    82    56    54   ar
    83    48    49    1
    84    48    51    1
    85   162   163    1
    86    53    52   ar
    87    64    63    2
    88    62    63    1
    89    54    52   ar
    90    63    65   am
    91    69    66    1
    92    69    70    1
    93    52    51    1
    94    49    50    2
    95    65    66    1
    96    66    67    1
    97    86    85    2
    98   165   164    2
    99   163   164    1
   100   163   166    1
   101   166   167    1
   102   181   180    2
   103    85    84    1
   104   169   167   ar
   105   180   179    1
   106   167   168   ar
   107    67    68    2
   108    67    71   am
   109    87    84    1
   110    87    88    1
   111   182   179    1
   112   182   183    1
   113    90    88   ar
   114    90    92   ar
   115    84    83    1
   116    75    76    1
   117   179   178    1
   118    88    89   ar
   119    71    72    1
   120   178   172   am
   121    76    79    1
   122    76    77    1
   123    92    91   ar
   124   170   171    1
   125   172   173    2
   126   172   171    1
   127    79    80    1
   128    89    91   ar
   129    73    72    1
   130    73    74    2
   131    77    78    2
   132   171   174    1
   133   176   175   ar
   134    34    31    1
   135    80    81    1
   136    16    14   ar
   137   175   174    1
   138   175   177   ar
   139    81    82    1
   140    14    15   ar
   141    14    13    1
   142    31    30    1
   143    31    32    1
   144    30    28   am
   145    13    10    1
   146    40    39    1
   147    32    35   am
   148    32    33    2
   149    26    27    1
   150    26    24   am
   151    35    36    1
   152    23    24    1
   153    23    22    1
   154    28    27    1
   155    28    29    2
   156    10    11    1
   157    10     9    1
   158    24    25    2
   159     8     6   ar
   160    36    39    1
   161    36    37    1
   162    12    11    2
   163     7     6   ar
   164     9     3   am
   165     6     5    1
   166    20    19    2
   167    37    38    2
   168     3     4    2
   169     3     2    1
   170    21    18    1
   171     5     2    1
   172    19    18    1
   173     2     1    1
   174    18    17    1
