@<TRIPOS>MOLECULE
tmp/6g2jJ00.pdb
 96 91 0 0 0
SMALL
GASTEIGER

@<TRIPOS>ATOM
      1  N        219.2650  267.0660  250.9670 N.3    16  LEU16      -0.1245
      2  CA       220.5670  267.4850  250.4580 C.3    16  LEU16       0.1561
      3  C        221.6630  266.5310  250.9140 C.2    16  LEU16       0.2260
      4  O        222.3450  265.9160  250.0890 O.2    16  LEU16      -0.2867
      5  CB       220.8740  268.9120  250.9120 C.3    16  LEU16       0.0270
      6  CG       222.1100  269.5860  250.3130 C.3    16  LEU16       0.0019
      7  CD1      221.8590  271.0680  250.1310 C.3    16  LEU16       0.0001
      8  CD2      223.3280  269.3960  251.1840 C.3    16  LEU16       0.0001
      9  N        221.5870  263.4690  249.3540 N.3    19  ALA19      -0.1231
     10  CA       222.1470  263.4340  248.0120 C.3    19  ALA19       0.1694
     11  C        223.6620  263.3420  248.0000 C.2    19  ALA19       0.2592
     12  O        224.2330  262.8080  247.0440 O.2    19  ALA19      -0.2718
     13  CB       221.7230  264.6790  247.2380 C.3    19  ALA19       0.0304
     14  N        224.3310  263.8410  249.0410 N.am   20  LEU20      -0.1966
     15  CA       225.7810  263.7160  249.1270 C.3    20  LEU20       0.1728
     16  C        226.2370  262.2700  249.2190 C.2    20  LEU20       0.2616
     17  O        227.4200  261.9930  249.0080 O.2    20  LEU20      -0.2715
     18  CB       226.3150  264.4740  250.3380 C.3    20  LEU20       0.0311
     19  CG       226.6070  265.9680  250.2260 C.3    20  LEU20       0.0022
     20  CD1      227.6720  266.2830  249.1910 C.3    20  LEU20       0.0001
     21  CD2      225.3530  266.7010  249.9170 C.3    20  LEU20       0.0001
     22  N        225.3350  261.3530  249.5400 N.am   21  LYS21      -0.1977
     23  CA       225.6100  259.9310  249.6440 C.3    21  LYS21       0.1596
     24  C        226.6680  259.6550  250.7000 C.2    21  LYS21       0.2287
     25  O        227.7980  259.2670  250.3780 O.2    21  LYS21      -0.2864
     26  CB       226.0220  259.3600  248.2900 C.3    21  LYS21       0.0298
     27  CG       224.8680  259.3000  247.3350 C.3    21  LYS21       0.0038
     28  CD       225.2630  258.7420  246.0060 C.3    21  LYS21       0.0206
     29  CE       224.0440  258.5740  245.1470 C.3    21  LYS21       0.1093
     30  NZ       224.3440  258.0790  243.7820 N.3    21  LYS21      -0.1314
     31  N        235.3640  266.9240  251.6330 N.3    86  LEU86      -0.1231
     32  CA       234.7130  267.0350  250.3330 C.3    86  LEU86       0.1693
     33  C        233.2030  267.1180  250.4920 C.2    86  LEU86       0.2591
     34  O        232.5320  267.8340  249.7400 O.2    86  LEU86      -0.2718
     35  CB       235.1080  265.8410  249.4590 C.3    86  LEU86       0.0284
     36  CG       234.7590  265.7880  247.9640 C.3    86  LEU86       0.0019
     37  CD1      233.3000  265.4210  247.7030 C.3    86  LEU86       0.0001
     38  CD2      235.0970  267.0980  247.2860 C.3    86  LEU86       0.0001
     39  N        232.6560  266.4030  251.4700 N.am   87  ILE87      -0.1980
     40  CA       231.2240  266.4420  251.7460 C.3    87  ILE87       0.1595
     41  C        230.8710  267.6190  252.6400 C.2    87  ILE87       0.2287
     42  O        229.8240  268.2460  252.4660 O.2    87  ILE87      -0.2864
     43  CB       230.7710  265.1120  252.3800 C.3    87  ILE87       0.0276
     44  CG1      230.8730  263.9680  251.3680 C.3    87  ILE87       0.0022
     45  CG2      229.3580  265.2440  252.9400 C.3    87  ILE87       0.0022
     46  CD1      230.7380  262.5890  251.9810 C.3    87  ILE87       0.0001
     47  N        230.5100  270.9660  250.6140 N.3    90  PHE90      -0.1241
     48  CA       229.2760  270.9620  249.8450 C.3    90  PHE90       0.1605
     49  C        228.0720  270.4970  250.6600 C.2    90  PHE90       0.2264
     50  O        227.0290  270.1780  250.0770 O.2    90  PHE90      -0.2867
     51  CB       229.4570  270.0820  248.6030 C.3    90  PHE90       0.0534
     52  CG       230.5060  270.5800  247.6260 C.ar   90  PHE90      -0.0203
     53  CD1      230.9010  271.9100  247.5820 C.ar   90  PHE90      -0.0042
     54  CD2      231.1180  269.6930  246.7670 C.ar   90  PHE90      -0.0042
     55  CE1      231.8580  272.3360  246.6870 C.ar   90  PHE90      -0.0003
     56  CE2      232.0810  270.1190  245.8710 C.ar   90  PHE90      -0.0003
     57  CZ       232.4500  271.4400  245.8340 C.ar   90  PHE90      -0.0000
     58  N        228.2900  274.7380  251.9800 N.3    93  LEU93      -0.1231
     59  CA       228.1220  275.6390  250.8490 C.3    93  LEU93       0.1693
     60  C        226.8590  275.3450  250.0540 C.2    93  LEU93       0.2592
     61  O        226.5140  276.1260  249.1600 O.2    93  LEU93      -0.2718
     62  CB       229.3380  275.5620  249.9220 C.3    93  LEU93       0.0284
     63  CG       230.5720  276.4060  250.2800 C.3    93  LEU93       0.0019
     64  CD1      230.2610  277.8950  250.1810 C.3    93  LEU93       0.0001
     65  CD2      231.1370  276.0760  251.6670 C.3    93  LEU93       0.0001
     66  N        226.1710  274.2470  250.3480 N.am   94  GLY94      -0.1957
     67  CA       224.8360  274.0340  249.8350 C.3    94  GLY94       0.1869
     68  C        223.8340  274.8540  250.6160 C.2    94  GLY94       0.2309
     69  O        222.8740  275.3860  250.0530 O.2    94  GLY94      -0.2863
     70  N        224.6300  277.6390  252.4450 N.3    96  ILE96      -0.1231
     71  CA       224.8840  279.0450  252.1560 C.3    96  ILE96       0.1692
     72  C        224.3660  279.3940  250.7690 C.2    96  ILE96       0.2591
     73  O        223.9120  280.5190  250.5260 O.2    96  ILE96      -0.2718
     74  CB       226.3820  279.3660  252.3050 C.3    96  ILE96       0.0266
     75  CG1      226.8180  279.2030  253.7670 C.3    96  ILE96       0.0019
     76  CG2      226.6560  280.7750  251.8030 C.3    96  ILE96       0.0020
     77  CD1      228.3150  279.1740  253.9760 C.3    96  ILE96       0.0001
     78  N        224.4260  278.4430  249.8360 N.am   97  MET97      -0.1979
     79  CA       223.7860  278.6410  248.5420 C.3    97  MET97       0.1605
     80  C        222.2810  278.7790  248.6990 C.2    97  MET97       0.2287
     81  O        221.6330  279.5100  247.9410 O.2    97  MET97      -0.2864
     82  CB       224.1240  277.4820  247.6100 C.3    97  MET97       0.0413
     83  CG       223.5530  277.6110  246.2000 C.3    97  MET97       0.0598
     84  SD       221.8860  276.9490  245.9810 S.3    97  MET97      -0.1393
     85  CE       222.1980  275.1870  246.0210 C.3    97  MET97       0.0692
     86  N        221.6720  282.1490  250.2240 N.3   100  PHE100     -0.1241
     87  CA       221.9320  283.0180  249.0840 C.3   100  PHE100      0.1605
     88  C        220.7250  283.0590  248.1570 C.2   100  PHE100      0.2264
     89  O        220.0650  284.0940  248.0210 O.2   100  PHE100     -0.2867
     90  CB       223.1740  282.5290  248.3370 C.3   100  PHE100      0.0534
     91  CG       223.5540  283.3790  247.1610 C.ar  100  PHE100     -0.0203
     92  CD1      224.1950  284.5910  247.3410 C.ar  100  PHE100     -0.0042
     93  CD2      223.2790  282.9580  245.8730 C.ar  100  PHE100     -0.0042
     94  CE1      224.5480  285.3680  246.2590 C.ar  100  PHE100     -0.0003
     95  CE2      223.6320  283.7320  244.7850 C.ar  100  PHE100     -0.0003
     96  CZ       224.2640  284.9360  244.9780 C.ar  100  PHE100     -0.0000
@<TRIPOS>BOND
     1    30    29    1
     2    95    96   ar
     3    95    93   ar
     4    96    94   ar
     5    29    28    1
     6    57    56   ar
     7    57    55   ar
     8    56    54   ar
     9    93    91   ar
    10    84    85    1
    11    84    83    1
    12    28    27    1
    13    83    82    1
    14    94    92   ar
    15    55    53   ar
    16    54    52   ar
    17    12    11    2
    18    91    92   ar
    19    91    90    1
    20    13    10    1
    21    38    36    1
    22    27    26    1
    23    53    52   ar
    24    82    79    1
    25    52    51    1
    26    37    36    1
    27    81    80    2
    28    36    35    1
    29    11    10    1
    30    11    14   am
    31    10     9    1
    32    89    88    2
    33    88    87    1
    34    26    23    1
    35    90    87    1
    36    79    80    1
    37    79    78    1
    38    51    48    1
    39    17    16    2
    40    14    15    1
    41    87    86    1
    42    15    16    1
    43    15    18    1
    44    61    60    2
    45    20    19    1
    46    16    22   am
    47    35    32    1
    48    22    23    1
    49    23    24    1
    50    34    33    2
    51    67    66    1
    52    67    68    1
    53    78    72   am
    54    48    47    1
    55    48    49    1
    56    21    19    1
    57    62    63    1
    58    62    59    1
    59    69    68    2
    60    60    66   am
    61    60    59    1
    62    50    49    2
    63     4     3    2
    64     7     6    1
    65    64    63    1
    66    19    18    1
    67    63    65    1
    68     6     5    1
    69     6     8    1
    70    32    33    1
    71    32    31    1
    72    25    24    2
    73     2     5    1
    74     2     3    1
    75     2     1    1
    76    33    39   am
    77    73    72    2
    78    72    71    1
    79    59    58    1
    80    44    46    1
    81    44    43    1
    82    39    40    1
    83    40    43    1
    84    40    41    1
    85    76    74    1
    86    71    74    1
    87    71    70    1
    88    74    75    1
    89    43    45    1
    90    42    41    2
    91    75    77    1
