@<TRIPOS>MOLECULE
tmp/6g2jL01.pdb
 160 147 0 0 0
SMALL
GASTEIGER

@<TRIPOS>ATOM
      1  N        235.5340  242.9480  144.9440 N.3    15  LEU15      -0.1245
      2  CA       234.8330  242.2940  146.0370 C.3    15  LEU15       0.1561
      3  C        234.5800  240.8190  145.7720 C.2    15  LEU15       0.2260
      4  O        233.9590  240.1540  146.6040 O.2    15  LEU15      -0.2867
      5  CB       233.4950  242.9820  146.3110 C.3    15  LEU15       0.0270
      6  CG       233.5060  244.3980  146.8750 C.3    15  LEU15       0.0019
      7  CD1      232.0780  244.9200  146.9430 C.3    15  LEU15       0.0001
      8  CD2      234.1650  244.4320  148.2250 C.3    15  LEU15       0.0001
      9  N        237.2720  238.6850  147.7950 N.3    18  ILE18      -0.1245
     10  CA       237.2080  238.9290  149.2290 C.3    18  ILE18       0.1561
     11  C        235.9710  238.2470  149.7970 C.2    18  ILE18       0.2260
     12  O        235.9520  237.8510  150.9670 O.2    18  ILE18      -0.2867
     13  CB       237.2100  240.4380  149.5260 C.3    18  ILE18       0.0252
     14  CG1      237.5590  240.7000  150.9840 C.3    18  ILE18       0.0019
     15  CG2      235.8670  241.0450  149.2150 C.3    18  ILE18       0.0019
     16  CD1      237.8040  242.1600  151.2750 C.3    18  ILE18       0.0001
     17  N        236.6710  234.3850  149.5450 N.3    21  SER21      -0.1202
     18  CA       237.5990  233.9190  150.5650 C.3    21  SER21       0.2020
     19  C        236.9020  233.4270  151.8170 C.2    21  SER21       0.2619
     20  O        237.5380  232.7330  152.6180 O.2    21  SER21      -0.2717
     21  CB       238.5820  235.0050  150.9620 C.3    21  SER21       0.2103
     22  OG       239.4630  234.4980  151.9480 O.3    21  SER21      -0.2182
     23  N        235.6380  233.7820  152.0190 N.am   22  MET22      -0.1965
     24  CA       234.8030  233.1510  153.0300 C.3    22  MET22       0.1736
     25  C        233.7600  232.3190  152.2900 C.2    22  MET22       0.2617
     26  O        232.5850  232.6790  152.2000 O.2    22  MET22      -0.2715
     27  CB       234.1950  234.2360  153.9470 C.3    22  MET22       0.0427
     28  CG       233.3960  235.3510  153.2830 C.3    22  MET22       0.0599
     29  SD       232.8000  236.5200  154.5240 S.3    22  MET22      -0.1393
     30  CE       231.7590  237.6020  153.5460 C.3    22  MET22       0.0692
     31  N        234.2060  231.1720  151.7720 N.am   23  SER23      -0.1936
     32  CA       233.3170  230.2620  151.0640 C.3    23  SER23       0.2055
     33  C        233.6800  228.7890  151.1830 C.2    23  SER23       0.2643
     34  O        232.9760  227.9660  150.5940 O.2    23  SER23      -0.2714
     35  CB       233.2840  230.6570  149.5940 C.3    23  SER23       0.2130
     36  OG       234.5750  230.5440  149.0360 O.3    23  SER23      -0.2179
     37  N        234.7330  228.4190  151.9110 N.am   24  ASN24      -0.1971
     38  CA       235.2280  227.0420  151.9250 C.3    24  ASN24       0.1688
     39  C        235.5980  226.5820  150.5170 C.2    24  ASN24       0.2292
     40  O        235.3950  225.4180  150.1650 O.2    24  ASN24      -0.2864
     41  CB       234.1940  226.0870  152.5410 C.3    24  ASN24       0.1181
     42  CG       234.8040  224.8280  153.1820 C.2    24  ASN24       0.2629
     43  OD1      234.1400  224.1900  153.9980 O.2    24  ASN24      -0.2716
     44  ND2      236.0290  224.4550  152.8170 N.am   24  ASN24      -0.0877
     45  N        226.8380  257.8290  150.2390 N.3    77  MET77      -0.1245
     46  CA       227.9730  257.4460  149.4250 C.3    77  MET77       0.1570
     47  C        228.0020  258.3220  148.1860 C.2    77  MET77       0.2261
     48  O        226.9690  258.8140  147.7260 O.2    77  MET77      -0.2867
     49  CB       227.8730  255.9750  149.0460 C.3    77  MET77       0.0387
     50  CG       229.0910  255.4100  148.3720 C.3    77  MET77       0.0595
     51  SD       228.9040  253.6750  147.9610 S.3    77  MET77      -0.1393
     52  CE       229.0330  252.9590  149.5890 C.3    77  MET77       0.0692
     53  N        245.8790  234.9100  152.4920 N.3   115  ARG115     -0.1245
     54  CA       245.6980  235.9840  153.4560 C.3   115  ARG115      0.1563
     55  C        246.5130  237.2200  153.0980 C.2   115  ARG115      0.2260
     56  O        246.2300  238.3040  153.6140 O.2   115  ARG115     -0.2867
     57  CB       246.0750  235.4770  154.8490 C.3   115  ARG115      0.0307
     58  CG       245.8020  236.4330  155.9880 C.3   115  ARG115      0.0489
     59  CD       246.0920  235.7890  157.3390 C.3   115  ARG115      0.2205
     60  NE       247.5100  235.5090  157.5630 N.pl3 115  ARG115     -0.0865
     61  CZ       248.4040  236.3870  158.0210 C.cat 115  ARG115      0.5346
     62  NH1      249.6650  236.0150  158.1860 N.pl3 115  ARG115      0.1354
     63  NH2      248.0630  237.6360  158.3210 N.pl3 115  ARG115      0.1354
     64  N        244.5670  238.6030  149.7230 N.3   118  LYS118     -0.1231
     65  CA       243.3390  239.2240  150.1950 C.3   118  LYS118      0.1693
     66  C        243.6040  240.6110  150.7570 C.2   118  LYS118      0.2592
     67  O        242.9290  241.5800  150.3930 O.2   118  LYS118     -0.2718
     68  CB       242.6940  238.3250  151.2410 C.3   118  LYS118      0.0285
     69  CG       241.4280  238.8650  151.8570 C.3   118  LYS118      0.0035
     70  CD       240.7470  237.8140  152.7030 C.3   118  LYS118      0.0206
     71  CE       241.5040  237.5300  153.9810 C.3   118  LYS118      0.1093
     72  NZ       240.8160  236.5220  154.8190 N.3   118  LYS118     -0.1314
     73  N        244.6070  240.7340  151.6280 N.am  119  TYR119     -0.1976
     74  CA       244.8670  242.0200  152.2590 C.3   119  TYR119      0.1639
     75  C        245.3280  243.0620  151.2500 C.2   119  TYR119      0.2290
     76  O        245.1620  244.2620  151.4870 O.2   119  TYR119     -0.2864
     77  CB       245.9130  241.8890  153.3630 C.3   119  TYR119      0.0560
     78  CG       245.5300  241.0790  154.5820 C.ar  119  TYR119     -0.0198
     79  CD1      244.2650  240.5370  154.7360 C.ar  119  TYR119     -0.0009
     80  CD2      246.4360  240.9020  155.6070 C.ar  119  TYR119     -0.0009
     81  CE1      243.9360  239.8120  155.8550 C.ar  119  TYR119      0.0417
     82  CE2      246.1140  240.1890  156.7260 C.ar  119  TYR119      0.0417
     83  CZ       244.8660  239.6450  156.8480 C.ar  119  TYR119      0.1957
     84  OH       244.5580  238.9320  157.9770 O.3   119  TYR119     -0.2866
     85  N        242.1450  244.2820  150.0930 N.3   122  LEU122     -0.1245
     86  CA       241.5790  245.1720  151.1000 C.3   122  LEU122      0.1561
     87  C        242.1220  246.5820  150.9400 C.2   122  LEU122      0.2260
     88  O        241.3690  247.5580  150.9790 O.2   122  LEU122     -0.2867
     89  CB       241.8890  244.6710  152.5060 C.3   122  LEU122      0.0270
     90  CG       240.9770  243.6730  153.2120 C.3   122  LEU122      0.0019
     91  CD1      239.6050  244.2530  153.4060 C.3   122  LEU122      0.0001
     92  CD2      240.8980  242.3870  152.4660 C.3   122  LEU122      0.0001
     93  N        240.9990  248.2400  147.4750 N.3   125  ILE125     -0.1231
     94  CA       239.6180  248.6850  147.5760 C.3   125  ILE125      0.1692
     95  C        239.5360  249.9460  148.4180 C.2   125  ILE125      0.2592
     96  O        238.8260  250.8970  148.0730 O.2   125  ILE125     -0.2718
     97  CB       238.7520  247.5550  148.1540 C.3   125  ILE125      0.0266
     98  CG1      238.6590  246.4020  147.1570 C.3   125  ILE125      0.0019
     99  CG2      237.3740  248.0710  148.5310 C.3   125  ILE125      0.0020
    100  CD1      238.1990  245.1210  147.7510 C.3   125  ILE125      0.0001
    101  N        240.2660  249.9790  149.5260 N.am  126  THR126     -0.1953
    102  CA       240.2030  251.0850  150.4650 C.3   126  THR126      0.1897
    103  C        241.0640  252.2670  150.0500 C.2   126  THR126      0.2313
    104  O        241.1240  253.2530  150.7860 O.2   126  THR126     -0.2863
    105  CB       240.6140  250.6090  151.8560 C.3   126  THR126      0.1794
    106  OG1      241.9160  250.0260  151.7910 O.3   126  THR126     -0.2208
    107  CG2      239.6180  249.5940  152.4020 C.3   126  THR126      0.0378
    108  N        238.5540  254.1180  147.1880 N.3   129  ILE129     -0.1245
    109  CA       237.5970  254.9020  147.9570 C.3   129  ILE129      0.1561
    110  C        238.1960  256.2550  148.3090 C.2   129  ILE129      0.2260
    111  O        237.5970  257.3030  148.0480 O.2   129  ILE129     -0.2867
    112  CB       237.1620  254.1270  149.2120 C.3   129  ILE129      0.0252
    113  CG1      236.3380  252.9020  148.8200 C.3   129  ILE129      0.0019
    114  CG2      236.3880  255.0250  150.1330 C.3   129  ILE129      0.0019
    115  CD1      236.1550  251.9010  149.9250 C.3   129  ILE129      0.0001
    116  N        233.3820  259.6040  153.4260 N.3   138  GLN138     -0.1245
    117  CA       233.6830  258.4390  152.6000 C.3   138  GLN138      0.1566
    118  C        235.1520  258.4070  152.2240 C.2   138  GLN138      0.2260
    119  O        235.7720  257.3390  152.2100 O.2   138  GLN138     -0.2867
    120  CB       232.8220  258.4460  151.3370 C.3   138  GLN138      0.0367
    121  CG       233.0470  257.2760  150.4100 C.3   138  GLN138      0.0905
    122  CD       232.1250  257.2910  149.2250 C.2   138  GLN138      0.2608
    123  OE1      231.2570  258.1530  149.1050 O.2   138  GLN138     -0.2717
    124  NE2      232.3310  256.3540  148.3170 N.am  138  GLN138     -0.0878
    125  N        237.1190  256.9360  155.1440 N.3   141  ILE141     -0.1245
    126  CA       237.1650  255.4870  155.2880 C.3   141  ILE141      0.1561
    127  C        238.4690  254.9560  154.7200 C.2   141  ILE141      0.2260
    128  O        239.1630  254.1540  155.3530 O.2   141  ILE141     -0.2867
    129  CB       235.9550  254.8410  154.5920 C.3   141  ILE141      0.0252
    130  CG1      234.6430  255.2800  155.2470 C.3   141  ILE141      0.0019
    131  CG2      236.1020  253.3290  154.6040 C.3   141  ILE141      0.0019
    132  CD1      233.4440  255.0260  154.4110 C.3   141  ILE141      0.0001
    133  N        241.2700  253.4000  156.8360 N.3   145  GLY145     -0.1225
    134  CA       241.1660  252.0320  156.3620 C.3   145  GLY145      0.1811
    135  C        242.3830  251.5960  155.5720 C.2   145  GLY145      0.2280
    136  O        242.5690  250.4070  155.3060 O.2   145  GLY145     -0.2866
    137  N        245.7600  251.2950  158.2310 N.3   148  ILE148     -0.1231
    138  CA       245.8300  250.0060  158.9050 C.3   148  ILE148      0.1692
    139  C        246.3850  248.9000  158.0210 C.2   148  ILE148      0.2591
    140  O        247.1170  248.0360  158.5240 O.2   148  ILE148     -0.2718
    141  CB       244.4500  249.5880  159.4470 C.3   148  ILE148      0.0266
    142  CG1      244.5880  248.3210  160.2800 C.3   148  ILE148      0.0019
    143  CG2      243.4440  249.3590  158.3380 C.3   148  ILE148      0.0020
    144  CD1      243.4060  248.0220  161.0700 C.3   148  ILE148      0.0001
    145  N        246.0580  248.8810  156.7300 N.am  149  MET149     -0.1979
    146  CA       246.6480  247.9010  155.8290 C.3   149  MET149      0.1605
    147  C        248.1640  247.9740  155.8020 C.2   149  MET149      0.2287
    148  O        248.8150  246.9680  155.5040 O.2   149  MET149     -0.2864
    149  CB       246.1070  248.0820  154.4130 C.3   149  MET149      0.0413
    150  CG       244.6530  247.7040  154.2540 C.3   149  MET149      0.0598
    151  SD       244.3250  245.9620  154.5170 S.3   149  MET149     -0.1393
    152  CE       243.5530  246.0780  156.1140 C.3   149  MET149      0.0692
    153  N        249.0890  245.5920  158.8230 N.3   152  LEU152     -0.1245
    154  CA       248.9400  244.1600  158.6180 C.3   152  LEU152      0.1561
    155  C        249.8500  243.6160  157.5360 C.2   152  LEU152      0.2260
    156  O        250.0310  242.3970  157.4600 O.2   152  LEU152     -0.2867
    157  CB       247.4950  243.8200  158.2590 C.3   152  LEU152      0.0270
    158  CG       246.4970  243.7890  159.4090 C.3   152  LEU152      0.0019
    159  CD1      246.1510  245.1710  159.8500 C.3   152  LEU152      0.0001
    160  CD2      245.2550  243.0650  158.9970 C.3   152  LEU152      0.0001
@<TRIPOS>BOND
     1     1     2    1
     2     3     2    1
     3     3     4    2
     4     2     5    1
     5     5     6    1
     6     6     7    1
     7     6     8    1
     8    98   100    1
     9    98    97    1
    10   108   109    1
    11    93    94    1
    12    94    97    1
    13    94    95    1
    14    48    47    2
    15     9    10    1
    16   109   110    1
    17   109   112    1
    18    51    50    1
    19    51    52    1
    20   111   110    2
    21    96    95    2
    22    97    99    1
    23    47    46    1
    24   124   122   am
    25    50    49    1
    26    95   101   am
    27   113   112    1
    28   113   115    1
    29    36    35    1
    30    49    46    1
    31   123   122    2
    32   112   114    1
    33    15    13    1
    34   122   121    1
    35    10    13    1
    36    10    11    1
    37    46    45    1
    38   101   102    1
    39    13    14    1
    40    17    18    1
    41    35    32    1
    42    64    65    1
    43    11    12    2
    44   103   102    1
    45   103   104    2
    46    85    86    1
    47    40    39    2
    48    65    66    1
    49    65    68    1
    50    67    66    2
    51   121   120    1
    52   102   105    1
    53    39    38    1
    54    18    21    1
    55    18    19    1
    56    34    33    2
    57    66    73   am
    58    87    88    2
    59    87    86    1
    60    21    22    1
    61    14    16    1
    62    32    33    1
    63    32    31    1
    64    86    89    1
    65    33    37   am
    66    68    69    1
    67    75    76    2
    68    75    74    1
    69   120   117    1
    70    73    74    1
    71    31    25   am
    72   106   105    1
    73    19    23   am
    74    19    20    2
    75   105   107    1
    76    69    70    1
    77    37    38    1
    78    38    41    1
    79    23    24    1
    80    26    25    2
    81   119   118    2
    82   118   117    1
    83    74    77    1
    84    25    24    1
    85    92    90    1
    86    53    54    1
    87    89    90    1
    88    41    42    1
    89   117   116    1
    90    70    71    1
    91    44    42   am
    92    24    27    1
    93    55    54    1
    94    55    56    2
    95    42    43    2
    96    90    91    1
    97    28    27    1
    98    28    29    1
    99    77    78    1
   100    54    57    1
   101    30    29    1
   102    71    72    1
   103   150   149    1
   104   150   151    1
   105   132   130    1
   106   149   146    1
   107   151   152    1
   108    78    79   ar
   109    78    80   ar
   110   129   131    1
   111   129   130    1
   112   129   126    1
   113   127   126    1
   114   127   128    2
   115    79    81   ar
   116    57    58    1
   117   125   126    1
   118   136   135    2
   119   148   147    2
   120   135   134    1
   121    80    82   ar
   122   147   146    1
   123   146   145    1
   124    81    83   ar
   125    58    59    1
   126   134   133    1
   127    82    83   ar
   128   145   139   am
   129    83    84    1
   130    59    60    1
   131   156   155    2
   132   155   154    1
   133    60    61    2
   134   139   140    2
   135   139   138    1
   136    61    62    1
   137    61    63    1
   138   137   138    1
   139   157   154    1
   140   157   158    1
   141   143   141    1
   142   154   153    1
   143   138   141    1
   144   160   158    1
   145   158   159    1
   146   141   142    1
   147   142   144    1
