@<TRIPOS>MOLECULE
tmp/6g2jL03.pdb
 91 87 0 0 0
SMALL
GASTEIGER

@<TRIPOS>ATOM
      1  N        231.2790  251.5340  138.9910 N.3     8  LEU8       -0.1245
      2  CA       230.8370  250.7220  140.1130 C.3     8  LEU8        0.1561
      3  C        231.3110  249.2830  140.0340 C.2     8  LEU8        0.2260
      4  O        231.5400  248.6680  141.0800 O.2     8  LEU8       -0.2867
      5  CB       229.3120  250.7380  140.2060 C.3     8  LEU8        0.0270
      6  CG       228.6890  251.8960  140.9850 C.3     8  LEU8        0.0019
      7  CD1      228.8390  253.2110  140.2750 C.3     8  LEU8        0.0001
      8  CD2      227.2290  251.6140  141.2240 C.3     8  LEU8        0.0001
      9  N        234.7700  247.7670  141.7020 N.3    11  PHE11      -0.1227
     10  CA       234.7270  247.2470  143.0600 C.3    11  PHE11       0.1736
     11  C        234.0570  245.8820  143.0960 C.2    11  PHE11       0.2595
     12  O        234.4510  245.0140  143.8800 O.2    11  PHE11      -0.2718
     13  CB       233.9850  248.2280  143.9710 C.3    11  PHE11       0.0547
     14  CG       234.6500  249.5820  144.1130 C.ar   11  PHE11      -0.0202
     15  CD1      236.0030  249.7590  143.8850 C.ar   11  PHE11      -0.0042
     16  CD2      233.8970  250.6870  144.4510 C.ar   11  PHE11      -0.0042
     17  CE1      236.5830  250.9980  144.0160 C.ar   11  PHE11      -0.0003
     18  CE2      234.4750  251.9240  144.5780 C.ar   11  PHE11      -0.0003
     19  CZ       235.8170  252.0820  144.3590 C.ar   11  PHE11      -0.0000
     20  N        233.0570  245.6740  142.2410 N.am   12  ILE12      -0.1980
     21  CA       232.3670  244.3910  142.1920 C.3    12  ILE12       0.1595
     22  C        233.3370  243.2900  141.7910 C.2    12  ILE12       0.2287
     23  O        233.2590  242.1600  142.2870 O.2    12  ILE12      -0.2864
     24  CB       231.1680  244.4650  141.2270 C.3    12  ILE12       0.0276
     25  CG1      230.1950  245.5850  141.6180 C.3    12  ILE12       0.0022
     26  CG2      230.4560  243.1340  141.1670 C.3    12  ILE12       0.0022
     27  CD1      229.5880  245.4770  142.9910 C.3    12  ILE12       0.0001
     28  N        235.5340  242.9480  144.9440 N.3    15  LEU15      -0.1245
     29  CA       234.8330  242.2940  146.0370 C.3    15  LEU15       0.1561
     30  C        234.5800  240.8190  145.7720 C.2    15  LEU15       0.2260
     31  O        233.9590  240.1540  146.6040 O.2    15  LEU15      -0.2867
     32  CB       233.4950  242.9820  146.3110 C.3    15  LEU15       0.0270
     33  CG       233.5060  244.3980  146.8750 C.3    15  LEU15       0.0019
     34  CD1      232.0780  244.9200  146.9430 C.3    15  LEU15       0.0001
     35  CD2      234.1650  244.4320  148.2250 C.3    15  LEU15       0.0001
     36  N        225.2440  256.2940  144.3450 N.3    64  THR64      -0.1203
     37  CA       225.2450  254.8460  144.5600 C.3    64  THR64       0.1994
     38  C        224.5070  254.3940  145.8190 C.2    64  THR64       0.2617
     39  O        224.1730  253.2120  145.9410 O.2    64  THR64      -0.2717
     40  CB       226.6930  254.3200  144.6180 C.3    64  THR64       0.1784
     41  OG1      227.3920  254.6870  143.4230 O.3    64  THR64      -0.2211
     42  CG2      226.7450  252.8150  144.7630 C.3    64  THR64       0.0376
     43  N        224.1560  255.3090  146.7160 N.am   65  TRP65      -0.1975
     44  CA       223.5960  254.9010  147.9990 C.3    65  TRP65       0.1640
     45  C        223.2400  256.1370  148.8020 C.2    65  TRP65       0.2290
     46  O        223.7950  257.2160  148.5850 O.2    65  TRP65      -0.2864
     47  CB       224.5790  254.0240  148.7940 C.3    65  TRP65       0.0576
     48  CG       224.0590  253.4930  150.0930 C.ar   65  TRP65       0.0006
     49  CD1      224.4570  253.8550  151.3440 C.ar   65  TRP65       0.0946
     50  CD2      223.0260  252.5210  150.2690 C.ar   65  TRP65       0.0152
     51  NE1      223.7490  253.1560  152.2870 N.ar   65  TRP65      -0.2442
     52  CE2      222.8620  252.3320  151.6510 C.ar   65  TRP65       0.0810
     53  CE3      222.2290  251.7880  149.3910 C.ar   65  TRP65       0.0012
     54  CZ2      221.9370  251.4460  152.1730 C.ar   65  TRP65       0.0191
     55  CZ3      221.3140  250.9080  149.9120 C.ar   65  TRP65       0.0001
     56  CH2      221.1730  250.7430  151.2900 C.ar   65  TRP65       0.0015
     57  N        226.8380  257.8290  150.2390 N.3    77  MET77      -0.1245
     58  CA       227.9730  257.4460  149.4250 C.3    77  MET77       0.1570
     59  C        228.0020  258.3220  148.1860 C.2    77  MET77       0.2261
     60  O        226.9690  258.8140  147.7260 O.2    77  MET77      -0.2867
     61  CB       227.8730  255.9750  149.0460 C.3    77  MET77       0.0387
     62  CG       229.0910  255.4100  148.3720 C.3    77  MET77       0.0595
     63  SD       228.9040  253.6750  147.9610 S.3    77  MET77      -0.1393
     64  CE       229.0330  252.9590  149.5890 C.3    77  MET77       0.0692
     65  N        230.7820  259.4050  144.6450 N.3    79  PHE79      -0.1241
     66  CA       232.0150  259.1880  143.8940 C.3    79  PHE79       0.1605
     67  C        232.2360  260.3430  142.9250 C.2    79  PHE79       0.2264
     68  O        231.6720  260.3590  141.8290 O.2    79  PHE79      -0.2867
     69  CB       231.9570  257.8670  143.1560 C.3    79  PHE79       0.0534
     70  CG       231.9210  256.6740  144.0530 C.ar   79  PHE79      -0.0203
     71  CD1      233.0720  256.2170  144.6570 C.ar   79  PHE79      -0.0042
     72  CD2      230.7400  256.0020  144.2830 C.ar   79  PHE79      -0.0042
     73  CE1      233.0430  255.1210  145.4780 C.ar   79  PHE79      -0.0003
     74  CE2      230.7080  254.9070  145.1030 C.ar   79  PHE79      -0.0003
     75  CZ       231.8600  254.4640  145.7000 C.ar   79  PHE79      -0.0000
     76  N        240.9990  248.2400  147.4750 N.3   125  ILE125     -0.1245
     77  CA       239.6180  248.6850  147.5760 C.3   125  ILE125      0.1561
     78  C        239.5360  249.9460  148.4180 C.2   125  ILE125      0.2260
     79  O        238.8260  250.8970  148.0730 O.2   125  ILE125     -0.2867
     80  CB       238.7520  247.5550  148.1540 C.3   125  ILE125      0.0252
     81  CG1      238.6590  246.4020  147.1570 C.3   125  ILE125      0.0019
     82  CG2      237.3740  248.0710  148.5310 C.3   125  ILE125      0.0019
     83  CD1      238.1990  245.1210  147.7510 C.3   125  ILE125      0.0001
     84  N        238.5540  254.1180  147.1880 N.3   129  ILE129     -0.1245
     85  CA       237.5970  254.9020  147.9570 C.3   129  ILE129      0.1561
     86  C        238.1960  256.2550  148.3090 C.2   129  ILE129      0.2260
     87  O        237.5970  257.3030  148.0480 O.2   129  ILE129     -0.2867
     88  CB       237.1620  254.1270  149.2120 C.3   129  ILE129      0.0252
     89  CG1      236.3380  252.9020  148.8200 C.3   129  ILE129      0.0019
     90  CG2      236.3880  255.0250  150.1330 C.3   129  ILE129      0.0019
     91  CD1      236.1550  251.9010  149.9250 C.3   129  ILE129      0.0001
@<TRIPOS>BOND
     1     1     2    1
     2     3     2    1
     3     3     4    2
     4     2     5    1
     5     5     6    1
     6     7     6    1
     7     6     8    1
     8    26    24    1
     9    24    25    1
    10    24    21    1
    11    25    27    1
    12     9    10    1
    13    22    21    1
    14    22    23    2
    15    68    67    2
    16    21    20    1
    17    20    11   am
    18    67    66    1
    19    10    11    1
    20    10    13    1
    21    11    12    2
    22    69    66    1
    23    69    70    1
    24    41    40    1
    25    15    17   ar
    26    15    14   ar
    27    66    65    1
    28    13    14    1
    29    17    19   ar
    30    70    72   ar
    31    70    71   ar
    32    14    16   ar
    33    72    74   ar
    34    36    37    1
    35    19    18   ar
    36    16    18   ar
    37    37    40    1
    38    37    38    1
    39    40    42    1
    40    71    73   ar
    41    28    29    1
    42    74    75   ar
    43    73    75   ar
    44    30    29    1
    45    30    31    2
    46    38    39    2
    47    38    43   am
    48    29    32    1
    49    32    33    1
    50    43    44    1
    51    33    34    1
    52    33    35    1
    53    81    83    1
    54    81    80    1
    55    84    85    1
    56    76    77    1
    57    77    80    1
    58    77    78    1
    59    60    59    2
    60    85    86    1
    61    85    88    1
    62    63    62    1
    63    63    64    1
    64    44    47    1
    65    44    45    1
    66    87    86    2
    67    79    78    2
    68    80    82    1
    69    59    58    1
    70    62    61    1
    71    46    45    2
    72    47    48    1
    73    89    88    1
    74    89    91    1
    75    61    58    1
    76    88    90    1
    77    53    55   ar
    78    53    50   ar
    79    58    57    1
    80    55    56   ar
    81    48    50   ar
    82    48    49   ar
    83    50    52   ar
    84    56    54   ar
    85    49    51   ar
    86    52    54   ar
    87    52    51   ar
