@<TRIPOS>MOLECULE
tmp/6g2jM01.pdb
 108 103 0 0 0
SMALL
GASTEIGER

@<TRIPOS>ATOM
      1  N        247.9900  234.0220  167.9550 N.3   348  GLN348     -0.1245
      2  CA       247.7240  234.0640  166.5210 C.3   348  GLN348      0.1566
      3  C        248.5140  232.9800  165.7780 C.2   348  GLN348      0.2260
      4  O        248.2500  232.7520  164.5980 O.2   348  GLN348     -0.2867
      5  CB       248.0150  235.4410  165.8890 C.3   348  GLN348      0.0367
      6  CG       247.5470  235.6450  164.4760 C.3   348  GLN348      0.0905
      7  CD       247.7220  237.0760  164.0220 C.2   348  GLN348      0.2608
      8  OE1      248.1770  237.9280  164.7810 O.2   348  GLN348     -0.2717
      9  NE2      247.3730  237.3470  162.7750 N.am  348  GLN348     -0.0878
     10  N        244.1400  231.4300  165.7110 N.3   352  PRO352     -0.2102
     11  CA       244.1910  232.2740  164.5080 C.3   352  PRO352      0.1504
     12  C        242.9250  233.0680  164.2670 C.2   352  PRO352      0.2575
     13  O        242.9990  234.2400  163.8800 O.2   352  PRO352     -0.2718
     14  CB       244.4380  231.2590  163.3910 C.3   352  PRO352      0.0282
     15  CG       243.8670  230.0010  163.9100 C.3   352  PRO352      0.0208
     16  CD       244.1430  230.0010  165.3700 C.3   352  PRO352      0.0893
     17  N        241.7610  232.4620  164.4840 N.am  353  LEU353     -0.1980
     18  CA       240.5010  233.1270  164.1830 C.3   353  LEU353      0.1596
     19  C        240.1020  234.0910  165.2880 C.2   353  LEU353      0.2287
     20  O        239.4640  235.1110  165.0130 O.2   353  LEU353     -0.2864
     21  CB       239.4180  232.0730  163.9490 C.3   353  LEU353      0.0297
     22  CG       238.0550  232.3930  163.3210 C.3   353  LEU353      0.0022
     23  CD1      237.1040  233.0240  164.2900 C.3   353  LEU353      0.0001
     24  CD2      238.1970  233.2750  162.1060 C.3   353  LEU353      0.0001
     25  N        241.3490  237.5650  164.7530 N.3   356  THR356     -0.1203
     26  CA       240.4740  238.4140  163.9630 C.3   356  THR356      0.1994
     27  C        239.4220  239.1030  164.8140 C.2   356  THR356      0.2617
     28  O        238.9280  240.1610  164.4160 O.2   356  THR356     -0.2717
     29  CB       239.7760  237.6160  162.8720 C.3   356  THR356      0.1784
     30  OG1      238.9720  236.5950  163.4640 O.3   356  THR356     -0.2211
     31  CG2      240.7790  236.9900  161.9440 C.3   356  THR356      0.0376
     32  N        239.0640  238.5370  165.9660 N.am  357  TRP357     -0.1975
     33  CA       238.1130  239.1980  166.8480 C.3   357  TRP357      0.1640
     34  C        238.7810  240.2160  167.7610 C.2   357  TRP357      0.2290
     35  O        238.1550  241.2200  168.1130 O.2   357  TRP357     -0.2864
     36  CB       237.3520  238.1790  167.6960 C.3   357  TRP357      0.0576
     37  CG       236.4700  237.2550  166.9150 C.ar  357  TRP357      0.0006
     38  CD1      236.6160  235.9110  166.7840 C.ar  357  TRP357      0.0946
     39  CD2      235.3380  237.6150  166.1170 C.ar  357  TRP357      0.0152
     40  NE1      235.6280  235.4020  165.9810 N.ar  357  TRP357     -0.2442
     41  CE2      234.8350  236.4310  165.5530 C.ar  357  TRP357      0.0810
     42  CE3      234.6990  238.8200  165.8310 C.ar  357  TRP357      0.0012
     43  CZ2      233.7230  236.4160  164.7250 C.ar  357  TRP357      0.0191
     44  CZ3      233.5930  238.8050  165.0070 C.ar  357  TRP357      0.0001
     45  CH2      233.1160  237.6100  164.4640 C.ar  357  TRP357      0.0015
     46  N        241.2710  241.9340  166.6250 N.3   359  LEU359     -0.1231
     47  CA       241.5520  242.9850  165.6650 C.3   359  LEU359      0.1693
     48  C        240.3200  243.8440  165.4390 C.2   359  LEU359      0.2591
     49  O        240.3310  245.0430  165.7310 O.2   359  LEU359     -0.2718
     50  CB       242.0500  242.3480  164.3710 C.3   359  LEU359      0.0284
     51  CG       242.6270  243.1520  163.2070 C.3   359  LEU359      0.0019
     52  CD1      241.5430  243.7850  162.3820 C.3   359  LEU359      0.0001
     53  CD2      243.5860  244.2000  163.6910 C.3   359  LEU359      0.0001
     54  N        239.2260  243.2380  164.9740 N.am  360  MET360     -0.1979
     55  CA       237.9950  243.9780  164.7240 C.3   360  MET360      0.1605
     56  C        237.4380  244.6510  165.9740 C.2   360  MET360      0.2287
     57  O        236.6290  245.5750  165.8470 O.2   360  MET360     -0.2864
     58  CB       236.9300  243.0480  164.1370 C.3   360  MET360      0.0413
     59  CG       237.2610  242.4410  162.7840 C.3   360  MET360      0.0598
     60  SD       237.6140  243.6270  161.4600 S.3   360  MET360     -0.1393
     61  CE       236.0120  244.3730  161.1700 C.3   360  MET360      0.0692
     62  N        239.6690  247.8960  166.6550 N.3   363  LEU363     -0.1245
     63  CA       239.2980  248.9420  165.7180 C.3   363  LEU363      0.1561
     64  C        237.9600  249.5560  166.0790 C.2   363  LEU363      0.2260
     65  O        237.6720  250.6930  165.6910 O.2   363  LEU363     -0.2867
     66  CB       239.2680  248.3730  164.3150 C.3   363  LEU363      0.0270
     67  CG       240.5680  247.7300  163.8530 C.3   363  LEU363      0.0019
     68  CD1      240.3440  247.1450  162.4960 C.3   363  LEU363      0.0001
     69  CD2      241.7510  248.6700  163.8550 C.3   363  LEU363      0.0001
     70  N        237.5670  253.5020  163.8660 N.3   368  LEU368     -0.1245
     71  CA       237.7100  252.9810  162.5140 C.3   368  LEU368      0.1561
     72  C        236.4840  253.4110  161.7190 C.2   368  LEU368      0.2260
     73  O        235.3870  252.9100  162.0030 O.2   368  LEU368     -0.2867
     74  CB       237.8400  251.4630  162.5510 C.3   368  LEU368      0.0270
     75  CG       238.3010  250.6290  161.3440 C.3   368  LEU368      0.0019
     76  CD1      237.2070  250.4240  160.3450 C.3   368  LEU368      0.0001
     77  CD2      239.5080  251.2520  160.6760 C.3   368  LEU368      0.0001
     78  N        234.0740  253.8340  159.0830 N.3   370  PRO370     -0.2116
     79  CA       232.7320  253.3860  158.6990 C.3   370  PRO370      0.1372
     80  C        232.1430  252.5080  159.7820 C.2   370  PRO370      0.2244
     81  O        232.1090  251.2790  159.6820 O.2   370  PRO370     -0.2868
     82  CB       232.9730  252.6210  157.4010 C.3   370  PRO370      0.0268
     83  CG       234.3040  252.0830  157.5610 C.3   370  PRO370      0.0207
     84  CD       235.0950  253.0890  158.3390 C.3   370  PRO370      0.0892
     85  N        228.6470  241.5200  164.6030 N.3   441  ILE441     -0.1245
     86  CA       227.6070  241.4780  163.5740 C.3   441  ILE441      0.1561
     87  C        226.5150  242.4880  163.9150 C.2   441  ILE441      0.2260
     88  O        225.9640  243.1210  163.0060 O.2   441  ILE441     -0.2867
     89  CB       227.0550  240.0480  163.3950 C.3   441  ILE441      0.0252
     90  CG1      228.0970  239.1490  162.7170 C.3   441  ILE441      0.0019
     91  CG2      225.7810  239.9890  162.5460 C.3   441  ILE441      0.0019
     92  CD1      228.9010  238.3390  163.6330 C.3   441  ILE441      0.0001
     93  N        228.2710  245.4760  162.7540 N.3   444  ILE444     -0.1231
     94  CA       228.2690  245.4260  161.2960 C.3   444  ILE444      0.1692
     95  C        226.9190  245.8610  160.7530 C.2   444  ILE444      0.2591
     96  O        226.8360  246.4560  159.6730 O.2   444  ILE444     -0.2718
     97  CB       228.6230  244.0100  160.7930 C.3   444  ILE444      0.0266
     98  CG1      229.9750  243.5260  161.3370 C.3   444  ILE444      0.0019
     99  CG2      228.5860  243.9620  159.2770 C.3   444  ILE444      0.0020
    100  CD1      231.1490  244.3910  161.0240 C.3   444  ILE444      0.0001
    101  N        225.8490  245.5790  161.4900 N.am  445  LEU445     -0.1980
    102  CA       224.4900  245.8620  161.0570 C.3   445  LEU445      0.1596
    103  C        223.9940  247.1970  161.5840 C.2   445  LEU445      0.2287
    104  O        223.2790  247.9180  160.8820 O.2   445  LEU445     -0.2864
    105  CB       223.5540  244.7440  161.5200 C.3   445  LEU445      0.0297
    106  CG       223.3410  243.5110  160.6410 C.3   445  LEU445      0.0022
    107  CD1      222.7060  243.9000  159.3350 C.3   445  LEU445      0.0001
    108  CD2      224.6050  242.7390  160.3640 C.3   445  LEU445      0.0001
@<TRIPOS>BOND
     1    82    83    1
     2    82    79    1
     3    83    84    1
     4    84    78    1
     5    79    78    1
     6    79    80    1
     7    99    97    1
     8   107   106    1
     9    96    95    2
    10    81    80    2
    11    76    75    1
    12   108   106    1
    13   106   105    1
    14    77    75    1
    15    95    94    1
    16    95   101   am
    17    97    94    1
    18    97    98    1
    19   104   103    2
    20   100    98    1
    21   102   101    1
    22   102   105    1
    23   102   103    1
    24    61    60    1
    25    94    93    1
    26    75    74    1
    27    60    59    1
    28    72    73    2
    29    72    71    1
    30    31    29    1
    31    24    22    1
    32    52    51    1
    33    68    67    1
    34    71    74    1
    35    71    70    1
    36    91    89    1
    37    90    89    1
    38    90    92    1
    39     9     7   am
    40    59    58    1
    41    29    30    1
    42    29    26    1
    43    88    87    2
    44    51    53    1
    45    51    50    1
    46    22    21    1
    47    22    23    1
    48    14    15    1
    49    14    11    1
    50    89    86    1
    51    86    87    1
    52    86    85    1
    53    67    69    1
    54    67    66    1
    55    13    12    2
    56    15    16    1
    57    21    18    1
    58    26    25    1
    59    26    27    1
    60     7     6    1
    61     7     8    2
    62    58    55    1
    63    18    17    1
    64    18    19    1
    65    12    17   am
    66    12    11    1
    67    66    63    1
    68    50    47    1
    69    28    27    2
    70    45    43   ar
    71    45    44   ar
    72     6     5    1
    73    11    10    1
    74     4     3    2
    75    55    54    1
    76    55    56    1
    77    43    41   ar
    78    27    32   am
    79    54    48   am
    80    44    42   ar
    81    20    19    2
    82    16    10    1
    83    48    47    1
    84    48    49    2
    85    41    40   ar
    86    41    39   ar
    87    47    46    1
    88    65    64    2
    89    63    64    1
    90    63    62    1
    91     3     2    1
    92    42    39   ar
    93    57    56    2
    94     5     2    1
    95    32    33    1
    96    40    38   ar
    97    39    37   ar
    98     2     1    1
    99    38    37   ar
   100    33    36    1
   101    33    34    1
   102    37    36    1
   103    34    35    2
