@<TRIPOS>MOLECULE
tmp/6g2jM04.pdb
 91 84 0 0 0
SMALL
GASTEIGER

@<TRIPOS>ATOM
      1  N        226.7780  257.8600  197.7630 N.3   154  ILE154     -0.1231
      2  CA       227.1210  259.1950  198.2380 C.3   154  ILE154      0.1692
      3  C        226.6920  260.2450  197.2300 C.2   154  ILE154      0.2592
      4  O        226.3940  261.3860  197.5990 O.2   154  ILE154     -0.2718
      5  CB       228.6300  259.2860  198.5240 C.3   154  ILE154      0.0266
      6  CG1      229.0640  258.2910  199.6050 C.3   154  ILE154      0.0019
      7  CG2      228.9970  260.6800  198.9400 C.3   154  ILE154      0.0020
      8  CD1      228.5710  258.5680  200.9880 C.3   154  ILE154      0.0001
      9  N        226.6560  259.8860  195.9540 N.am  155  GLY155     -0.1957
     10  CA       226.1530  260.7690  194.9250 C.3   155  GLY155      0.1869
     11  C        224.6620  260.6210  194.7160 C.2   155  GLY155      0.2309
     12  O        224.0010  261.5590  194.2630 O.2   155  GLY155     -0.2863
     13  N        221.9140  262.5430  197.6620 N.3   158  PRO158     -0.2116
     14  CA       221.4510  263.9070  197.3670 C.3   158  PRO158      0.1372
     15  C        220.5070  263.9590  196.1870 C.2   158  PRO158      0.2244
     16  O        219.6170  264.8170  196.1410 O.2   158  PRO158     -0.2868
     17  CB       222.7500  264.6670  197.0710 C.3   158  PRO158      0.0268
     18  CG       223.7790  263.8950  197.6760 C.3   158  PRO158      0.0207
     19  CD       223.3740  262.4920  197.4830 C.3   158  PRO158      0.0892
     20  N        217.2150  263.7560  197.2820 N.3   161  ILE161     -0.1231
     21  CA       216.7870  264.9270  198.0310 C.3   161  ILE161      0.1692
     22  C        216.3130  265.9960  197.0580 C.2   161  ILE161      0.2591
     23  O        215.4650  266.8270  197.3990 O.2   161  ILE161     -0.2718
     24  CB       217.9280  265.4320  198.9280 C.3   161  ILE161      0.0266
     25  CG1      218.1780  264.4110  200.0370 C.3   161  ILE161      0.0019
     26  CG2      217.6150  266.8040  199.4810 C.3   161  ILE161      0.0020
     27  CD1      219.4320  264.6150  200.8060 C.3   161  ILE161      0.0001
     28  N        216.8610  265.9850  195.8420 N.am  162  ALA162     -0.1980
     29  CA       216.4410  266.9380  194.8250 C.3   162  ALA162      0.1597
     30  C        215.1880  266.4700  194.1040 C.2   162  ALA162      0.2287
     31  O        214.3130  267.2830  193.7870 O.2   162  ALA162     -0.2864
     32  CB       217.5690  267.1650  193.8290 C.3   162  ALA162      0.0319
     33  N        212.3250  267.3270  196.1260 N.3   165  LEU165     -0.1245
     34  CA       212.0420  268.7520  196.1810 C.3   165  LEU165      0.1561
     35  C        211.3130  269.2180  194.9320 C.2   165  LEU165      0.2260
     36  O        210.4140  270.0630  195.0100 O.2   165  LEU165     -0.2867
     37  CB       213.3370  269.5270  196.3590 C.3   165  LEU165      0.0270
     38  CG       213.1920  271.0400  196.4660 C.3   165  LEU165      0.0019
     39  CD1      212.3540  271.4450  197.6670 C.3   165  LEU165      0.0001
     40  CD2      214.5590  271.6180  196.5510 C.3   165  LEU165      0.0001
     41  N        221.1910  278.6760  196.5030 N.3   190  SER190     -0.1202
     42  CA       220.1850  277.6730  196.8280 C.3   190  SER190      0.2020
     43  C        219.7870  276.8660  195.6040 C.2   190  SER190      0.2618
     44  O        219.6120  275.6470  195.6810 O.2   190  SER190     -0.2717
     45  CB       218.9550  278.3550  197.4220 C.3   190  SER190      0.2103
     46  OG       217.8560  277.4700  197.4680 O.3   190  SER190     -0.2182
     47  N        219.6310  277.5360  194.4700 N.am  191  ASN191     -0.1974
     48  CA       219.1790  276.9370  193.2250 C.3   191  ASN191      0.1688
     49  C        220.3370  276.4050  192.3890 C.2   191  ASN191      0.2292
     50  O        220.1610  276.1350  191.1950 O.2   191  ASN191     -0.2864
     51  CB       218.3880  277.9830  192.4440 C.3   191  ASN191      0.1181
     52  CG       217.4390  277.3840  191.4500 C.2   191  ASN191      0.2629
     53  OD1      217.3650  276.1740  191.2860 O.2   191  ASN191     -0.2716
     54  ND2      216.6740  278.2470  190.7970 N.am  191  ASN191     -0.0877
     55  N        223.3160  274.4540  194.1160 N.3   193  LEU193     -0.1231
     56  CA       223.6960  273.1350  194.6090 C.3   193  LEU193      0.1693
     57  C        222.7740  272.0510  194.0880 C.2   193  LEU193      0.2591
     58  O        223.1470  270.8730  194.1040 O.2   193  LEU193     -0.2718
     59  CB       223.6700  273.1050  196.1290 C.3   193  LEU193      0.0284
     60  CG       224.6470  273.9870  196.8930 C.3   193  LEU193      0.0019
     61  CD1      224.2970  273.9040  198.3530 C.3   193  LEU193      0.0001
     62  CD2      226.0880  273.5600  196.6690 C.3   193  LEU193      0.0001
     63  N        221.5620  272.4190  193.6690 N.am  194  LEU194     -0.1980
     64  CA       220.6450  271.4500  193.0870 C.3   194  LEU194      0.1596
     65  C        221.2440  270.7790  191.8660 C.2   194  LEU194      0.2287
     66  O        220.9350  269.6150  191.5920 O.2   194  LEU194     -0.2864
     67  CB       219.3270  272.1340  192.7370 C.3   194  LEU194      0.0297
     68  CG       218.1610  271.2360  192.3340 C.3   194  LEU194      0.0022
     69  CD1      216.8920  271.8390  192.8370 C.3   194  LEU194      0.0001
     70  CD2      218.0620  271.0700  190.8360 C.3   194  LEU194      0.0001
     71  N        224.4520  269.8840  191.5810 N.3   196  LEU196     -0.1231
     72  CA       225.2930  268.8020  192.0940 C.3   196  LEU196      0.1693
     73  C        224.4460  267.6520  192.6110 C.2   196  LEU196      0.2591
     74  O        224.8390  266.4870  192.5260 O.2   196  LEU196     -0.2718
     75  CB       226.1940  269.3110  193.2150 C.3   196  LEU196      0.0284
     76  CG       227.5220  270.0280  192.9480 C.3   196  LEU196      0.0019
     77  CD1      228.4510  269.2350  192.0370 C.3   196  LEU196      0.0001
     78  CD2      227.2760  271.3910  192.4220 C.3   196  LEU196      0.0001
     79  N        223.2890  267.9670  193.1810 N.am  197  ALA197     -0.1980
     80  CA       222.3940  266.9340  193.6740 C.3   197  ALA197      0.1597
     81  C        221.9220  266.0630  192.5240 C.2   197  ALA197      0.2287
     82  O        222.0410  264.8350  192.5790 O.2   197  ALA197     -0.2864
     83  CB       221.2000  267.5510  194.3910 C.3   197  ALA197      0.0319
     84  N        225.3130  264.4960  190.0470 N.3   200  MET200     -0.1245
     85  CA       226.5590  263.8410  190.4230 C.3   200  MET200      0.1570
     86  C        226.4230  262.3320  190.5060 C.2   200  MET200      0.2261
     87  O        227.3370  261.6250  190.0730 O.2   200  MET200     -0.2867
     88  CB       227.0800  264.3970  191.7450 C.3   200  MET200      0.0387
     89  CG       227.6530  265.8000  191.6420 C.3   200  MET200      0.0595
     90  SD       229.0750  265.9870  190.5440 S.3   200  MET200     -0.1393
     91  CE       230.3300  265.0840  191.4330 C.3   200  MET200      0.0692
@<TRIPOS>BOND
     1    84    85    1
     2    87    86    2
     3    85    86    1
     4    85    88    1
     5    90    91    1
     6    90    89    1
     7    54    52   am
     8    70    68    1
     9    50    49    2
    10    53    52    2
    11    52    51    1
    12    71    72    1
    13    66    65    2
    14    89    88    1
    15    65    64    1
    16    77    76    1
    17    72    73    1
    18    72    75    1
    19    68    67    1
    20    68    69    1
    21    49    48    1
    22    78    76    1
    23    51    48    1
    24    81    82    2
    25    81    80    1
    26    74    73    2
    27    73    79   am
    28    67    64    1
    29    76    75    1
    30    64    63    1
    31    79    80    1
    32    48    47    1
    33    63    57   am
    34    80    83    1
    35    31    30    2
    36    32    29    1
    37    57    58    2
    38    57    56    1
    39    30    29    1
    40    55    56    1
    41    12    11    2
    42    47    43   am
    43    56    59    1
    44    11    10    1
    45    29    28    1
    46    10     9    1
    47    35    36    2
    48    35    34    1
    49    43    44    2
    50    43    42    1
    51    28    22   am
    52     9     3   am
    53    33    34    1
    54    59    60    1
    55    16    15    2
    56    34    37    1
    57    15    14    1
    58    37    38    1
    59    38    40    1
    60    38    39    1
    61    41    42    1
    62    62    60    1
    63    42    45    1
    64    60    61    1
    65    22    23    2
    66    22    21    1
    67    17    14    1
    68    17    18    1
    69     3     4    2
    70     3     2    1
    71    20    21    1
    72    14    13    1
    73    45    46    1
    74    19    13    1
    75    19    18    1
    76     1     2    1
    77    21    24    1
    78     2     5    1
    79     5     7    1
    80     5     6    1
    81    24    26    1
    82    24    25    1
    83     6     8    1
    84    25    27    1
