@<TRIPOS>MOLECULE
tmp/6g2jJ02.pdb
 112 105 0 0 0
SMALL
GASTEIGER

@<TRIPOS>ATOM
      1  N        212.4670  274.0880  254.2590 N.3     9  SER9       -0.1202
      2  CA       213.9130  274.1880  254.1440 C.3     9  SER9        0.2020
      3  C        214.6360  273.1180  254.9490 C.2     9  SER9        0.2618
      4  O        215.7380  272.7160  254.5650 O.2     9  SER9       -0.2717
      5  CB       214.3680  275.5770  254.5820 C.3     9  SER9        0.2103
      6  OG       215.7770  275.7010  254.5080 O.3     9  SER9       -0.2182
      7  N        214.0440  272.6410  256.0410 N.am   10  LEU10      -0.1979
      8  CA       214.5920  271.4970  256.7530 C.3    10  LEU10       0.1596
      9  C        214.3540  270.1890  256.0180 C.2    10  LEU10       0.2287
     10  O        214.9760  269.1780  256.3600 O.2    10  LEU10      -0.2864
     11  CB       213.9900  271.4050  258.1520 C.3    10  LEU10       0.0297
     12  CG       214.3290  272.5320  259.1220 C.3    10  LEU10       0.0022
     13  CD1      213.5530  272.3540  260.4030 C.3    10  LEU10       0.0001
     14  CD2      215.8130  272.5920  259.4070 C.3    10  LEU10       0.0001
     15  N        217.1260  270.2620  253.1610 N.3    13  VAL13      -0.1245
     16  CA       218.3780  269.8580  253.7840 C.3    13  VAL13       0.1561
     17  C        218.3760  268.3670  254.0770 C.2    13  VAL13       0.2260
     18  O        219.3810  267.6820  253.8600 O.2    13  VAL13      -0.2867
     19  CB       218.6110  270.6950  255.0510 C.3    13  VAL13       0.0252
     20  CG1      219.7330  270.1280  255.8750 C.3    13  VAL13       0.0019
     21  CG2      218.9150  272.1210  254.6680 C.3    13  VAL13       0.0019
     22  N        223.3230  256.8690  257.4790 N.3    26  TYR26      -0.1241
     23  CA       223.1230  258.3000  257.6230 C.3    26  TYR26       0.1605
     24  C        222.4790  258.9330  256.4000 C.2    26  TYR26       0.2264
     25  O        222.2390  260.1440  256.4070 O.2    26  TYR26      -0.2867
     26  CB       224.4620  258.9760  257.9220 C.3    26  TYR26       0.0534
     27  CG       225.1060  258.5980  259.2460 C.ar   26  TYR26      -0.0201
     28  CD1      224.4030  257.9410  260.2410 C.ar   26  TYR26      -0.0009
     29  CD2      226.4240  258.9120  259.4960 C.ar   26  TYR26      -0.0009
     30  CE1      224.9950  257.6070  261.4280 C.ar   26  TYR26       0.0417
     31  CE2      227.0240  258.5800  260.6880 C.ar   26  TYR26       0.0417
     32  CZ       226.3040  257.9310  261.6510 C.ar   26  TYR26       0.1957
     33  OH       226.8960  257.5970  262.8450 O.3    26  TYR26      -0.2866
     34  N        218.8770  257.6250  257.8160 N.3    29  LEU29      -0.1245
     35  CA       218.5310  258.6180  258.8220 C.3    29  LEU29       0.1561
     36  C        218.1180  259.9260  258.1670 C.2    29  LEU29       0.2260
     37  O        217.1940  260.6000  258.6340 O.2    29  LEU29      -0.2867
     38  CB       219.7170  258.8340  259.7550 C.3    29  LEU29       0.0270
     39  CG       219.5200  259.6830  261.0070 C.3    29  LEU29       0.0019
     40  CD1      220.5050  259.2220  262.0510 C.3    29  LEU29       0.0001
     41  CD2      219.7070  261.1640  260.7370 C.3    29  LEU29       0.0001
     42  N        214.0540  261.4040  258.7390 N.3    33  VAL33      -0.1245
     43  CA       213.8100  262.7910  259.1130 C.3    33  VAL33       0.1561
     44  C        212.9410  263.4730  258.0670 C.2    33  VAL33       0.2260
     45  O        211.8470  263.9670  258.3640 O.2    33  VAL33      -0.2867
     46  CB       215.1370  263.5420  259.3010 C.3    33  VAL33       0.0252
     47  CG1      214.8810  265.0230  259.4620 C.3    33  VAL33       0.0019
     48  CG2      215.8850  262.9970  260.4880 C.3    33  VAL33       0.0019
     49  N        231.3610  259.1720  256.6820 N.3    80  THR80      -0.1203
     50  CA       230.0930  259.7570  256.2570 C.3    80  THR80       0.1994
     51  C        230.0290  261.2770  256.1020 C.2    80  THR80       0.2618
     52  O        229.9500  261.7840  254.9780 O.2    80  THR80      -0.2717
     53  CB       229.0490  259.3640  257.2840 C.3    80  THR80       0.1784
     54  OG1      229.4120  259.9630  258.5350 O.3    80  THR80      -0.2211
     55  CG2      229.0380  257.8620  257.4300 C.3    80  THR80       0.0376
     56  N        230.0570  262.0070  257.2240 N.am   81  TRP81      -0.1961
     57  CA       229.9080  263.4640  257.2350 C.3    81  TRP81       0.1771
     58  C        231.0690  264.1580  257.9290 C.2    81  TRP81       0.2620
     59  O        231.6890  265.0620  257.3630 O.2    81  TRP81      -0.2715
     60  CB       228.6030  263.8640  257.9340 C.3    81  TRP81       0.0590
     61  CG       227.3290  263.6790  257.1290 C.ar   81  TRP81       0.0006
     62  CD1      227.2180  263.5350  255.7800 C.ar   81  TRP81       0.0946
     63  CD2      225.9930  263.5990  257.6470 C.ar   81  TRP81       0.0152
     64  NE1      225.9020  263.3870  255.4240 N.ar   81  TRP81      -0.2442
     65  CE2      225.1300  263.4200  256.5530 C.ar   81  TRP81       0.0810
     66  CE3      225.4450  263.6650  258.9310 C.ar   81  TRP81       0.0012
     67  CZ2      223.7530  263.3050  256.7000 C.ar   81  TRP81       0.0191
     68  CZ3      224.0760  263.5530  259.0740 C.ar   81  TRP81       0.0001
     69  CH2      223.2460  263.3740  257.9640 C.ar   81  TRP81       0.0015
     70  N        231.3740  263.7280  259.1520 N.am   82  GLY82      -0.1954
     71  CA       232.4530  264.3020  259.9320 C.3    82  GLY82       0.1869
     72  C        233.7180  263.5000  259.7340 C.2    82  GLY82       0.2309
     73  O        234.4610  263.2350  260.6850 O.2    82  GLY82      -0.2863
     74  N        231.7260  267.9270  253.6110 N.3    88  LEU88      -0.1245
     75  CA       231.3880  268.9530  254.5820 C.3    88  LEU88       0.1561
     76  C        231.4810  270.3520  253.9950 C.2    88  LEU88       0.2260
     77  O        230.9340  271.2910  254.5790 O.2    88  LEU88      -0.2867
     78  CB       232.2920  268.8180  255.8020 C.3    88  LEU88       0.0270
     79  CG       232.0510  269.7720  256.9630 C.3    88  LEU88       0.0019
     80  CD1      230.6460  269.6270  257.4910 C.3    88  LEU88       0.0001
     81  CD2      233.0480  269.4850  258.0520 C.3    88  LEU88       0.0001
     82  N        228.2100  270.4330  251.9840 N.3    91  LEU91      -0.1231
     83  CA       227.0810  270.4170  252.9020 C.3    91  LEU91       0.1693
     84  C        226.8840  271.7550  253.5930 C.2    91  LEU91       0.2591
     85  O        225.7800  272.0300  254.0730 O.2    91  LEU91      -0.2718
     86  CB       227.2710  269.3250  253.9610 C.3    91  LEU91       0.0284
     87  CG       226.1960  269.1800  255.0400 C.3    91  LEU91       0.0019
     88  CD1      224.8560  268.8750  254.4250 C.3    91  LEU91       0.0001
     89  CD2      226.6010  268.0980  256.0060 C.3    91  LEU91       0.0001
     90  N        227.9250  272.5810  253.6500 N.am   92  VAL92      -0.1980
     91  CA       227.8480  273.9110  254.2350 C.3    92  VAL92       0.1595
     92  C        227.7170  274.9810  253.1600 C.2    92  VAL92       0.2287
     93  O        227.1000  276.0210  253.3930 O.2    92  VAL92      -0.2864
     94  CB       229.0790  274.1680  255.1290 C.3    92  VAL92       0.0276
     95  CG1      229.0780  275.5960  255.6200 C.3    92  VAL92       0.0022
     96  CG2      229.0910  273.2050  256.3070 C.3    92  VAL92       0.0022
     97  N        224.0620  274.9700  251.9230 N.3    95  VAL95      -0.1245
     98  CA       223.1520  275.7180  252.7790 C.3    95  VAL95       0.1561
     99  C        223.3820  277.2140  252.6340 C.2    95  VAL95       0.2260
    100  O        222.4320  278.0000  252.6980 O.2    95  VAL95      -0.2867
    101  CB       223.3080  275.2630  254.2370 C.3    95  VAL95       0.0252
    102  CG1      222.4320  276.0970  255.1460 C.3    95  VAL95       0.0019
    103  CG2      222.9710  273.7900  254.3640 C.3    95  VAL95       0.0019
    104  N        221.7020  278.0710  249.6680 N.3    98  GLU98      -0.1245
    105  CA       220.2710  278.1920  249.9180 C.3    98  GLU98       0.1567
    106  C        219.9380  279.5900  250.4160 C.2    98  GLU98       0.2260
    107  O        219.1200  280.2990  249.8210 O.2    98  GLU98      -0.2867
    108  CB       219.8210  277.1330  250.9270 C.3    98  GLU98       0.0388
    109  CG       218.3330  277.1330  251.2260 C.3    98  GLU98       0.1160
    110  CD       217.9400  276.0530  252.2030 C.2    98  GLU98       0.3649
    111  OE1      218.8300  275.3000  252.6460 O.co2  98  GLU98      -0.2457
    112  OE2      216.7420  275.9650  252.5400 O.co2  98  GLU98      -0.2457
@<TRIPOS>BOND
     1   104   105    1
     2   107   106    2
     3   105   106    1
     4   105   108    1
     5   108   109    1
     6   109   110    1
     7    97    98    1
     8    82    83    1
     9   110   112   ar
    10   110   111   ar
    11    99   100    2
    12    99    98    1
    13    98   101    1
    14    83    84    1
    15    83    86    1
    16    92    93    2
    17    92    91    1
    18    15    16    1
    19    84    90   am
    20    84    85    2
    21    74    75    1
    22    90    91    1
    23    16    17    1
    24    16    19    1
    25    18    17    2
    26    86    87    1
    27    76    77    2
    28    76    75    1
    29     2     1    1
    30     2     5    1
    31     2     3    1
    32    91    94    1
    33   101   103    1
    34   101   102    1
    35    88    87    1
    36     6     5    1
    37     4     3    2
    38    75    78    1
    39    21    19    1
    40     3     7   am
    41    52    51    2
    42    87    89    1
    43    19    20    1
    44    94    95    1
    45    94    96    1
    46    64    62   ar
    47    64    65   ar
    48    62    61   ar
    49    78    79    1
    50     9    10    2
    51     9     8    1
    52     7     8    1
    53    51    50    1
    54    51    56   am
    55    50    49    1
    56    50    53    1
    57    24    25    2
    58    24    23    1
    59    65    67   ar
    60    65    63   ar
    61    67    69   ar
    62     8    11    1
    63    79    80    1
    64    79    81    1
    65    61    63   ar
    66    61    60    1
    67    56    57    1
    68    57    58    1
    69    57    60    1
    70    53    55    1
    71    53    54    1
    72    59    58    2
    73    22    23    1
    74    23    26    1
    75    63    66   ar
    76    34    35    1
    77    26    27    1
    78    58    70   am
    79    69    68   ar
    80    44    45    2
    81    44    43    1
    82    11    12    1
    83    36    37    2
    84    36    35    1
    85    42    43    1
    86    35    38    1
    87    66    68   ar
    88    43    46    1
    89    12    14    1
    90    12    13    1
    91    70    71    1
    92    27    29   ar
    93    27    28   ar
    94    46    47    1
    95    46    48    1
    96    29    31   ar
    97    72    71    1
    98    72    73    2
    99    38    39    1
   100    28    30   ar
   101    31    32   ar
   102    41    39    1
   103    39    40    1
   104    30    32   ar
   105    32    33    1
