@<TRIPOS>MOLECULE
tmp/6g2jI01.pdb
 101 97 0 0 0
SMALL
GASTEIGER

@<TRIPOS>ATOM
      1  N        190.1740  217.9190  270.2570 N.3    21  ASP21      -0.1239
      2  CA       191.0700  217.6680  271.3780 C.3    21  ASP21       0.1674
      3  C        192.4980  218.0910  271.0430 C.2    21  ASP21       0.2266
      4  O        193.2240  218.5820  271.9120 O.2    21  ASP21      -0.2867
      5  CB       190.9710  216.1810  271.7390 C.3    21  ASP21       0.1410
      6  CG       191.7270  215.8070  272.9990 C.2    21  ASP21       0.3668
      7  OD1      192.4200  216.6580  273.5840 O.co2  21  ASP21      -0.2456
      8  OD2      191.6150  214.6350  273.4170 O.co2  21  ASP21      -0.2456
      9  N        192.0490  222.1630  269.5440 N.3    24  ALA24      -0.1231
     10  CA       191.8040  223.1620  270.5630 C.3    24  ALA24       0.1694
     11  C        192.9590  223.2760  271.5310 C.2    24  ALA24       0.2591
     12  O        193.0840  224.3090  272.1970 O.2    24  ALA24      -0.2718
     13  CB       190.5230  222.8460  271.3400 C.3    24  ALA24       0.0304
     14  N        193.8040  222.2500  271.6350 N.am   25  ARG25      -0.1980
     15  CA       195.1420  222.4790  272.1530 C.3    25  ARG25       0.1597
     16  C        195.8110  223.5790  271.3510 C.2    25  ARG25       0.2287
     17  O        196.2820  224.5690  271.9120 O.2    25  ARG25      -0.2864
     18  CB       195.9690  221.1950  272.1090 C.3    25  ARG25       0.0334
     19  CG       197.2810  221.3290  272.8480 C.3    25  ARG25       0.0492
     20  CD       198.0650  220.0500  272.8940 C.3    25  ARG25       0.2205
     21  NE       198.5510  219.6850  271.5640 N.pl3  25  ARG25      -0.0865
     22  CZ       198.2020  218.6090  270.8610 C.cat  25  ARG25       0.5346
     23  NH1      198.7390  218.4350  269.6650 N.pl3  25  ARG25       0.1354
     24  NH2      197.3360  217.7090  271.3150 N.pl3  25  ARG25       0.1354
     25  N        193.9210  227.5430  270.9250 N.3    28  MET28      -0.1230
     26  CA       193.7990  228.1310  272.2480 C.3    28  MET28       0.1702
     27  C        195.0300  227.8550  273.0910 C.2    28  MET28       0.2592
     28  O        195.0570  228.2640  274.2540 O.2    28  MET28      -0.2718
     29  CB       192.5410  227.6060  272.9350 C.3    28  MET28       0.0401
     30  CG       191.2840  228.0500  272.2260 C.3    28  MET28       0.0596
     31  SD       189.7570  227.5460  273.0000 S.3    28  MET28      -0.1393
     32  CE       188.6230  228.1770  271.7730 C.3    28  MET28       0.0692
     33  N        196.0540  227.1900  272.5310 N.am   29  TRP29      -0.1962
     34  CA       197.3990  227.0100  273.0710 C.3    29  TRP29       0.1771
     35  C        197.3750  226.6550  274.5580 C.2    29  TRP29       0.2620
     36  O        198.2970  226.9650  275.3120 O.2    29  TRP29      -0.2715
     37  CB       198.2540  228.2440  272.7130 C.3    29  TRP29       0.0590
     38  CG       197.7240  229.5680  273.0970 C.ar   29  TRP29       0.0006
     39  CD1      196.9560  230.4120  272.3520 C.ar   29  TRP29       0.0946
     40  CD2      197.9310  230.2010  274.3380 C.ar   29  TRP29       0.0152
     41  NE1      196.6700  231.5400  273.0780 N.ar   29  TRP29      -0.2442
     42  CE2      197.2640  231.4300  274.3080 C.ar   29  TRP29       0.0810
     43  CE3      198.6270  229.8440  275.4770 C.ar   29  TRP29       0.0012
     44  CZ2      197.2770  232.2860  275.3880 C.ar   29  TRP29       0.0191
     45  CZ3      198.6320  230.6700  276.5310 C.ar   29  TRP29       0.0001
     46  CH2      197.9790  231.8730  276.4850 C.ar   29  TRP29       0.0015
     47  N        196.3690  225.8720  274.9400 N.am   30  THR30      -0.1937
     48  CA       195.9950  225.6330  276.3260 C.3    30  THR30       0.2028
     49  C        197.0210  224.8590  277.1420 C.2    30  THR30       0.2642
     50  O        197.0330  224.9620  278.3720 O.2    30  THR30      -0.2714
     51  CB       194.6750  224.8800  276.3620 C.3    30  THR30       0.1808
     52  OG1      194.1800  224.8530  277.7010 O.3    30  THR30      -0.2208
     53  CG2      194.8720  223.4650  275.8810 C.3    30  THR30       0.0379
     54  N        197.8720  224.0720  276.4870 N.am   31  GLU31      -0.1976
     55  CA       198.9400  223.3600  277.1820 C.3    31  GLU31       0.1602
     56  C        199.8470  224.3220  277.9400 C.2    31  GLU31       0.2287
     57  O        200.4730  223.9530  278.9390 O.2    31  GLU31      -0.2864
     58  CB       199.7540  222.5230  276.1920 C.3    31  GLU31       0.0415
     59  CG       200.5840  223.2900  275.1500 C.3    31  GLU31       0.1163
     60  CD       199.7830  223.6960  273.9380 C.2    31  GLU31       0.3649
     61  OE1      198.5420  223.7530  274.0360 O.co2  31  GLU31      -0.2457
     62  OE2      200.3950  223.9440  272.8810 O.co2  31  GLU31      -0.2457
     63  N        198.6170  227.3130  279.1630 N.3    33  ILE33      -0.1231
     64  CA       197.7860  227.7800  280.2730 C.3    33  ILE33       0.1692
     65  C        197.9700  226.8830  281.4850 C.2    33  ILE33       0.2591
     66  O        197.9150  227.3440  282.6300 O.2    33  ILE33      -0.2718
     67  CB       196.3030  227.8340  279.8630 C.3    33  ILE33       0.0266
     68  CG1      196.0580  228.7840  278.6860 C.3    33  ILE33       0.0019
     69  CG2      195.4600  228.2210  281.0460 C.3    33  ILE33       0.0020
     70  CD1      196.3700  230.2200  278.9330 C.3    33  ILE33       0.0001
     71  N        198.2000  225.5950  281.2500 N.am   34  ARG34      -0.1980
     72  CA       198.5120  224.6430  282.3030 C.3    34  ARG34       0.1597
     73  C        199.8620  224.9320  282.9480 C.2    34  ARG34       0.2287
     74  O        200.1620  224.3700  284.0050 O.2    34  ARG34      -0.2864
     75  CB       198.4630  223.2500  281.6860 C.3    34  ARG34       0.0334
     76  CG       198.4830  222.0770  282.6070 C.3    34  ARG34       0.0492
     77  CD       198.2100  220.8300  281.7720 C.3    34  ARG34       0.2205
     78  NE       198.3990  219.5710  282.4890 N.pl3  34  ARG34      -0.0865
     79  CZ       197.4790  218.9670  283.2360 C.cat  34  ARG34       0.5346
     80  NH1      196.2780  219.4910  283.4050 N.pl3  34  ARG34       0.1354
     81  NH2      197.7630  217.8200  283.8380 N.pl3  34  ARG34       0.1354
     82  N        200.7830  228.4900  283.1270 N.3    36  LEU36      -0.1231
     83  CA       200.5310  229.7620  283.7990 C.3    36  LEU36       0.1693
     84  C        199.8290  229.5450  285.1250 C.2    36  LEU36       0.2592
     85  O        200.1620  230.1890  286.1250 O.2    36  LEU36      -0.2718
     86  CB       199.6970  230.6940  282.9240 C.3    36  LEU36       0.0284
     87  CG       200.3290  231.2690  281.6640 C.3    36  LEU36       0.0019
     88  CD1      199.3720  232.1560  280.9420 C.3    36  LEU36       0.0001
     89  CD2      201.5540  232.0360  281.9960 C.3    36  LEU36       0.0001
     90  N        198.8490  228.6470  285.1510 N.am   37  GLY37      -0.1957
     91  CA       198.2700  228.2430  286.4140 C.3    37  GLY37       0.1869
     92  C        199.2680  227.5400  287.3060 C.2    37  GLY37       0.2309
     93  O        199.0940  227.4950  288.5250 O.2    37  GLY37      -0.2863
     94  N        201.0660  230.4070  288.9240 N.3    40  LEU40      -0.1245
     95  CA       200.1060  231.0150  289.8290 C.3    40  LEU40       0.1561
     96  C        199.9460  230.2060  291.1050 C.2    40  LEU40       0.2260
     97  O        199.4820  230.7420  292.1150 O.2    40  LEU40      -0.2867
     98  CB       198.7570  231.1640  289.1290 C.3    40  LEU40       0.0270
     99  CG       197.6290  231.8210  289.9170 C.3    40  LEU40       0.0019
    100  CD1      198.0060  233.2250  290.2790 C.3    40  LEU40       0.0001
    101  CD2      196.3570  231.8090  289.1160 C.3    40  LEU40       0.0001
@<TRIPOS>BOND
     1     9    10    1
     2    23    22    1
     3     1     2    1
     4    10    13    1
     5    10    11    1
     6    22    24    1
     7    22    21    2
     8    25    26    1
     9     3     2    1
    10     3     4    2
    11    16    17    2
    12    16    15    1
    13     2     5    1
    14    11    14   am
    15    11    12    2
    16    21    20    1
    17    14    15    1
    18     5     6    1
    19    32    31    1
    20    18    15    1
    21    18    19    1
    22    30    29    1
    23    30    31    1
    24    26    29    1
    25    26    27    1
    26    39    41   ar
    27    39    38   ar
    28    33    34    1
    29    33    27   am
    30    37    34    1
    31    37    38    1
    32    19    20    1
    33    62    60   ar
    34     6     8   ar
    35     6     7   ar
    36    34    35    1
    37    41    42   ar
    38    27    28    2
    39    38    40   ar
    40    60    61   ar
    41    60    59    1
    42    42    40   ar
    43    42    44   ar
    44    40    43   ar
    45    35    47   am
    46    35    36    2
    47    47    48    1
    48    59    58    1
    49    44    46   ar
    50    43    45   ar
    51    53    51    1
    52    58    55    1
    53    48    51    1
    54    48    49    1
    55    51    52    1
    56    46    45   ar
    57    54    49   am
    58    54    55    1
    59    49    50    2
    60    55    56    1
    61    56    57    2
    62    68    70    1
    63    68    67    1
    64    63    64    1
    65    67    64    1
    66    67    69    1
    67    64    65    1
    68    88    87    1
    69    71    65   am
    70    71    72    1
    71    65    66    2
    72    87    89    1
    73    87    86    1
    74    75    72    1
    75    75    76    1
    76    77    78    1
    77    77    76    1
    78    72    73    1
    79    78    79    2
    80    86    83    1
    81    73    74    2
    82    82    83    1
    83    79    80    1
    84    79    81    1
    85    83    84    1
    86    84    90   am
    87    84    85    2
    88    90    91    1
    89    91    92    1
    90    92    93    2
    91    94    95    1
    92   101    99    1
    93    98    95    1
    94    98    99    1
    95    95    96    1
    96    99   100    1
    97    96    97    2
