@<TRIPOS>MOLECULE
tmp/6g2jM08.pdb
 110 101 0 0 0
SMALL
GASTEIGER

@<TRIPOS>ATOM
      1  N        205.3760  245.9220  179.2740 N.3     1  LEU1       -0.1245
      2  CA       205.1010  244.8820  180.2480 C.3     1  LEU1        0.1561
      3  C        205.2260  243.5360  179.5490 C.2     1  LEU1        0.2260
      4  O        205.6710  242.5480  180.1270 O.2     1  LEU1       -0.2867
      5  CB       203.7100  245.0980  180.8440 C.3     1  LEU1        0.0270
      6  CG       203.2380  244.3990  182.1170 C.3     1  LEU1        0.0019
      7  CD1      202.8450  242.9700  181.8720 C.3     1  LEU1        0.0001
      8  CD2      204.2780  244.4600  183.1890 C.3     1  LEU1        0.0001
      9  N        209.1080  242.6670  179.8690 N.3     4  ILE4       -0.1231
     10  CA       209.7050  242.3160  181.1530 C.3     4  ILE4        0.1692
     11  C        208.9750  241.1540  181.8100 C.2     4  ILE4        0.2591
     12  O        209.5970  240.3490  182.5080 O.2     4  ILE4       -0.2718
     13  CB       209.7470  243.5360  182.0920 C.3     4  ILE4        0.0266
     14  CG1      208.3510  244.0130  182.4970 C.3     4  ILE4        0.0019
     15  CG2      210.4800  244.6650  181.4460 C.3     4  ILE4        0.0020
     16  CD1      207.8780  243.4790  183.8230 C.3     4  ILE4        0.0001
     17  N        207.6730  241.0540  181.6160 N.am    5  LEU5       -0.1980
     18  CA       206.8830  240.0280  182.2760 C.3     5  LEU5        0.1596
     19  C        207.3200  238.6370  181.8200 C.2     5  LEU5        0.2287
     20  O        207.3050  237.7020  182.6300 O.2     5  LEU5       -0.2864
     21  CB       205.3960  240.2800  182.0230 C.3     5  LEU5        0.0297
     22  CG       204.3070  239.5150  182.7820 C.3     5  LEU5        0.0022
     23  CD1      204.1800  238.0980  182.2960 C.3     5  LEU5        0.0001
     24  CD2      204.5460  239.5350  184.2750 C.3     5  LEU5        0.0001
     25  N        210.4350  238.1470  183.8320 N.3     8  LEU8       -0.1231
     26  CA       210.0580  237.6260  185.1400 C.3     8  LEU8        0.1693
     27  C        209.8970  236.1160  185.0880 C.2     8  LEU8        0.2591
     28  O        210.2680  235.4100  186.0320 O.2     8  LEU8       -0.2718
     29  CB       208.7570  238.2650  185.6200 C.3     8  LEU8        0.0284
     30  CG       208.7250  239.5950  186.3710 C.3     8  LEU8        0.0019
     31  CD1      209.4490  239.5180  187.6980 C.3     8  LEU8        0.0001
     32  CD2      209.2780  240.6950  185.5170 C.3     8  LEU8        0.0001
     33  N        209.3470  235.6040  183.9880 N.am    9  MET9       -0.1979
     34  CA       209.0270  234.1910  183.8660 C.3     9  MET9        0.1605
     35  C        210.1910  233.3400  183.3740 C.2     9  MET9        0.2287
     36  O        210.0320  232.1210  183.2690 O.2     9  MET9       -0.2864
     37  CB       207.8360  234.0130  182.9330 C.3     9  MET9        0.0413
     38  CG       206.5150  234.5310  183.4790 C.3     9  MET9        0.0598
     39  SD       205.8990  233.7020  184.9640 S.3     9  MET9       -0.1393
     40  CE       206.1810  234.9420  186.2350 C.3     9  MET9        0.0692
     41  N        202.0550  252.9780  179.0640 N.3    52  SER52      -0.1217
     42  CA       201.3760  253.0260  180.3460 C.3    52  SER52       0.1889
     43  C        201.7070  254.3230  181.0620 C.2    52  SER52       0.2288
     44  O        202.5490  255.1120  180.6280 O.2    52  SER52      -0.2866
     45  CB       201.7650  251.8260  181.2140 C.3    52  SER52       0.2089
     46  OG       201.3460  250.6140  180.6140 O.3    52  SER52      -0.2183
     47  N        203.1890  254.6700  183.8260 N.3    54  MET54      -0.1230
     48  CA       204.5150  254.5970  184.4290 C.3    54  MET54       0.1702
     49  C        205.6100  254.3030  183.4170 C.2    54  MET54       0.2592
     50  O        206.7050  254.8620  183.5170 O.2    54  MET54      -0.2718
     51  CB       204.5370  253.5300  185.5290 C.3    54  MET54       0.0401
     52  CG       204.2840  252.1130  185.0730 C.3    54  MET54       0.0596
     53  SD       204.2200  250.9730  186.4640 S.3    54  MET54      -0.1393
     54  CE       202.6500  251.4410  187.1720 C.3    54  MET54       0.0692
     55  N        205.3360  253.4410  182.4480 N.am   55  PHE55      -0.1976
     56  CA       206.2930  253.0680  181.4220 C.3    55  PHE55       0.1639
     57  C        206.1660  253.9680  180.2010 C.2    55  PHE55       0.2290
     58  O        205.1880  254.6970  180.0270 O.2    55  PHE55      -0.2864
     59  CB       206.0840  251.6150  180.9990 C.3    55  PHE55       0.0560
     60  CG       206.4420  250.5880  182.0510 C.ar   55  PHE55      -0.0200
     61  CD1      207.3260  250.8590  183.0850 C.ar   55  PHE55      -0.0042
     62  CD2      205.8670  249.3390  182.0010 C.ar   55  PHE55      -0.0042
     63  CE1      207.6310  249.9060  184.0180 C.ar   55  PHE55      -0.0003
     64  CE2      206.1680  248.3860  182.9390 C.ar   55  PHE55      -0.0003
     65  CZ       207.0490  248.6710  183.9480 C.ar   55  PHE55      -0.0000
     66  N        215.1590  244.8250  185.8320 N.3   104  LEU104     -0.1245
     67  CA       215.2670  246.1180  186.4870 C.3   104  LEU104      0.1561
     68  C        215.7020  247.1870  185.5030 C.2   104  LEU104      0.2260
     69  O        215.1240  248.2770  185.4500 O.2   104  LEU104     -0.2867
     70  CB       216.2610  246.0180  187.6360 C.3   104  LEU104      0.0270
     71  CG       215.8970  245.0880  188.7840 C.3   104  LEU104      0.0019
     72  CD1      217.1110  244.9430  189.6390 C.3   104  LEU104      0.0001
     73  CD2      214.7430  245.6060  189.5950 C.3   104  LEU104      0.0001
     74  N        213.1460  248.2830  183.1830 N.3   107  MET107     -0.1245
     75  CA       212.2150  249.1550  183.8830 C.3   107  MET107      0.1570
     76  C        212.7810  250.5480  184.1130 C.2   107  MET107      0.2261
     77  O        212.0080  251.4790  184.3570 O.2   107  MET107     -0.2867
     78  CB       211.8320  248.5620  185.2280 C.3   107  MET107      0.0387
     79  CG       210.9430  247.3690  185.2010 C.3   107  MET107      0.0595
     80  SD       210.7320  246.7920  186.8870 S.3   107  MET107     -0.1393
     81  CE       209.7320  245.3530  186.6110 C.3   107  MET107      0.0692
     82  N        210.8970  255.9440  190.2340 N.3   116  MET116     -0.1245
     83  CA       210.8980  254.5710  189.7460 C.3   116  MET116      0.1570
     84  C        212.2260  254.2580  189.0830 C.2   116  MET116      0.2261
     85  O        212.7620  253.1550  189.2220 O.2   116  MET116     -0.2867
     86  CB       209.7400  254.3470  188.7790 C.3   116  MET116      0.0387
     87  CG       209.5820  252.9060  188.3230 C.3   116  MET116      0.0595
     88  SD       208.0940  252.6460  187.3530 S.3   116  MET116     -0.1393
     89  CE       208.5380  253.4960  185.8520 C.3   116  MET116      0.0692
     90  N        214.6640  254.0850  192.3900 N.3   119  ILE119     -0.1231
     91  CA       214.6550  252.8330  193.1300 C.3   119  ILE119      0.1692
     92  C        215.1900  251.6990  192.2760 C.2   119  ILE119      0.2591
     93  O        215.6220  250.6760  192.8100 O.2   119  ILE119     -0.2718
     94  CB       213.2410  252.5220  193.6650 C.3   119  ILE119      0.0266
     95  CG1      212.2500  252.2880  192.5280 C.3   119  ILE119      0.0019
     96  CG2      212.7480  253.6560  194.5300 C.3   119  ILE119      0.0020
     97  CD1      210.8770  251.9410  192.9980 C.3   119  ILE119      0.0001
     98  N        215.1630  251.8570  190.9560 N.am  120  LEU120     -0.1980
     99  CA       215.7690  250.9160  190.0330 C.3   120  LEU120      0.1596
    100  C        217.1700  251.3350  189.6080 C.2   120  LEU120      0.2287
    101  O        217.9240  250.5000  189.0960 O.2   120  LEU120     -0.2864
    102  CB       214.8690  250.7690  188.8110 C.3   120  LEU120      0.0297
    103  CG       213.4710  250.2250  189.0900 C.3   120  LEU120      0.0022
    104  CD1      212.6420  250.3560  187.8510 C.3   120  LEU120      0.0001
    105  CD2      213.5180  248.7870  189.5450 C.3   120  LEU120      0.0001
    106  N        218.3590  249.4510  192.7410 N.3   123  ALA123     -0.1245
    107  CA       217.9880  248.0460  192.8290 C.3   123  ALA123      0.1562
    108  C        218.7310  247.1910  191.8240 C.2   123  ALA123      0.2260
    109  O        218.7340  245.9650  191.9630 O.2   123  ALA123     -0.2867
    110  CB       216.4910  247.8720  192.6240 C.3   123  ALA123      0.0290
@<TRIPOS>BOND
     1    41    42    1
     2     1     2    1
     3     3     4    2
     4     3     2    1
     5     9    10    1
     6    58    57    2
     7    57    56    1
     8     2     5    1
     9    42    43    1
    10    42    45    1
    11    46    45    1
    12    44    43    2
    13     5     6    1
    14    59    56    1
    15    59    60    1
    16    10    11    1
    17    10    13    1
    18    56    55    1
    19    15    13    1
    20    17    11   am
    21    17    18    1
    22    11    12    2
    23    19    18    1
    24    19    20    2
    25     7     6    1
    26    62    60   ar
    27    62    64   ar
    28    21    18    1
    29    21    22    1
    30    60    61   ar
    31    13    14    1
    32     6     8    1
    33    23    22    1
    34    55    49   am
    35    14    16    1
    36    22    24    1
    37    37    38    1
    38    37    34    1
    39    64    65   ar
    40    61    63   ar
    41    74    75    1
    42    36    35    2
    43    35    34    1
    44    49    50    2
    45    49    48    1
    46    38    39    1
    47    47    48    1
    48    25    26    1
    49    34    33    1
    50    75    76    1
    51    75    78    1
    52    65    63   ar
    53    33    27   am
    54    76    77    2
    55    48    51    1
    56    39    40    1
    57    52    51    1
    58    52    53    1
    59    27    26    1
    60    27    28    2
    61    26    29    1
    62    79    78    1
    63    79    80    1
    64    69    68    2
    65    68    67    1
    66    32    30    1
    67    29    30    1
    68    66    67    1
    69    89    88    1
    70    30    31    1
    71    53    54    1
    72    67    70    1
    73    81    80    1
    74    88    87    1
    75    70    71    1
    76   104   103    1
    77    87    86    1
    78    86    83    1
    79    71    73    1
    80    71    72    1
    81   102   103    1
    82   102    99    1
    83    84    85    2
    84    84    83    1
    85   103   105    1
    86   101   100    2
    87   100    99    1
    88    83    82    1
    89    99    98    1
    90    98    92   am
    91   108   109    2
    92   108   107    1
    93    92    93    2
    94    92    91    1
    95    90    91    1
    96    95    97    1
    97    95    94    1
    98   110   107    1
    99   106   107    1
   100    91    94    1
   101    94    96    1
