@<TRIPOS>MOLECULE
tmp/6g2jP01.pdb
 238 232 0 0 0
SMALL
GASTEIGER

@<TRIPOS>ATOM
      1  N        254.8030  259.5430  299.8360 N.3    24  PHE24      -0.1227
      2  CA       253.6320  260.2460  300.3460 C.3    24  PHE24       0.1736
      3  C        252.6000  260.4920  299.2570 C.2    24  PHE24       0.2596
      4  O        251.4010  260.2700  299.4640 O.2    24  PHE24      -0.2718
      5  CB       254.0620  261.5560  300.9850 C.3    24  PHE24       0.0547
      6  CG       254.8000  261.3810  302.2670 C.ar   24  PHE24      -0.0202
      7  CD1      254.1170  261.2280  303.4510 C.ar   24  PHE24      -0.0042
      8  CD2      256.1720  261.3480  302.2870 C.ar   24  PHE24      -0.0042
      9  CE1      254.7870  261.0600  304.6300 C.ar   24  PHE24      -0.0003
     10  CE2      256.8470  261.1780  303.4680 C.ar   24  PHE24      -0.0003
     11  CZ       256.1530  261.0340  304.6390 C.ar   24  PHE24      -0.0000
     12  N        253.0380  260.9470  298.0920 N.am   25  GLY25      -0.1957
     13  CA       252.1170  261.2490  297.0150 C.3    25  GLY25       0.1869
     14  C        251.7400  260.0510  296.1720 C.2    25  GLY25       0.2309
     15  O        251.6230  260.1650  294.9490 O.2    25  GLY25      -0.2863
     16  N        249.0190  258.4470  295.4950 N.3    27  THR27      -0.1203
     17  CA       247.6060  258.3440  295.1670 C.3    27  THR27       0.1994
     18  C        247.3030  258.9250  293.7970 C.2    27  THR27       0.2618
     19  O        246.1470  258.8630  293.3660 O.2    27  THR27      -0.2717
     20  CB       246.7310  259.0720  296.2060 C.3    27  THR27       0.1784
     21  OG1      246.9730  260.4800  296.1460 O.3    27  THR27      -0.2211
     22  CG2      247.0220  258.6020  297.6080 C.3    27  THR27       0.0376
     23  N        248.2980  259.4700  293.1000 N.am   28  GLY28      -0.1942
     24  CA       248.0650  260.2870  291.9320 C.3    28  GLY28       0.2014
     25  C        248.5610  259.6760  290.6440 C.2    28  GLY28       0.2639
     26  O        247.9770  258.7210  290.1230 O.2    28  GLY28      -0.2714
     27  N        249.6550  260.2300  290.1340 N.am   29  PHE29      -0.1959
     28  CA       250.1760  259.9110  288.8130 C.3    29  PHE29       0.1771
     29  C        251.5550  259.2840  288.8550 C.2    29  PHE29       0.2619
     30  O        251.7760  258.2420  288.2310 O.2    29  PHE29      -0.2715
     31  CB       250.2230  261.1810  287.9670 C.3    29  PHE29       0.0574
     32  CG       250.8970  260.9930  286.6590 C.ar   29  PHE29      -0.0200
     33  CD1      250.3150  260.2320  285.6730 C.ar   29  PHE29      -0.0042
     34  CD2      252.1080  261.5910  286.4070 C.ar   29  PHE29      -0.0042
     35  CE1      250.9420  260.0610  284.4720 C.ar   29  PHE29      -0.0003
     36  CE2      252.7290  261.4250  285.2050 C.ar   29  PHE29      -0.0003
     37  CZ       252.1380  260.6680  284.2320 C.ar   29  PHE29      -0.0000
     38  N        252.4890  259.8950  289.5670 N.am   30  LEU30      -0.1977
     39  CA       253.8560  259.4070  289.5980 C.3    30  LEU30       0.1596
     40  C        254.0510  258.3220  290.6420 C.2    30  LEU30       0.2287
     41  O        254.8040  257.3710  290.4130 O.2    30  LEU30      -0.2864
     42  CB       254.8090  260.5730  289.8580 C.3    30  LEU30       0.0297
     43  CG       256.3000  260.2680  289.8990 C.3    30  LEU30       0.0022
     44  CD1      256.7380  259.6480  288.6030 C.3    30  LEU30       0.0001
     45  CD2      257.0740  261.5310  290.1590 C.3    30  LEU30       0.0001
     46  N        245.6060  260.3830  302.4140 N.3    50  ARG50      -0.1231
     47  CA       244.7060  261.3470  303.0370 C.3    50  ARG50       0.1694
     48  C        243.3060  261.2610  302.4630 C.2    50  ARG50       0.2592
     49  O        242.4830  262.1440  302.7220 O.2    50  ARG50      -0.2718
     50  CB       245.2370  262.7760  302.8700 C.3    50  ARG50       0.0321
     51  CG       245.3590  263.2920  301.4310 C.3    50  ARG50       0.0489
     52  CD       244.1300  264.0510  300.9570 C.3    50  ARG50       0.2205
     53  NE       244.3080  264.6520  299.6340 N.pl3  50  ARG50      -0.0865
     54  CZ       244.6420  265.9170  299.3920 C.cat  50  ARG50       0.5346
     55  NH1      244.7620  266.3210  298.1370 N.pl3  50  ARG50       0.1354
     56  NH2      244.8510  266.7870  300.3670 N.pl3  50  ARG50       0.1354
     57  N        243.0060  260.1960  301.7280 N.am   51  CYS51      -0.1970
     58  CA       241.9850  260.2430  300.6970 C.3    51  CYS51       0.1712
     59  C        241.0500  259.0510  300.7840 C.2    51  CYS51       0.2296
     60  O        241.0330  258.3290  301.7850 O.2    51  CYS51      -0.2864
     61  CB       242.6530  260.2830  299.3250 C.3    51  CYS51       0.0983
     62  SG       243.4940  258.7580  298.8830 S.3    51  CYS51      -0.0798
     63  N        240.1720  255.0750  296.1140 N.3    55  ASP55      -0.1239
     64  CA       241.1580  255.5720  295.1670 C.3    55  ASP55       0.1674
     65  C        242.5270  254.9330  295.3570 C.2    55  ASP55       0.2266
     66  O        243.4030  255.1310  294.5100 O.2    55  ASP55      -0.2867
     67  CB       241.2760  257.0890  295.3020 C.3    55  ASP55       0.1410
     68  CG       241.9260  257.7430  294.0980 C.2    55  ASP55       0.3668
     69  OD1      242.2700  257.0370  293.1280 O.co2  55  ASP55      -0.2456
     70  OD2      242.0900  258.9810  294.1240 O.co2  55  ASP55      -0.2456
     71  N        246.3620  260.0630  307.5010 N.3    73  TRP73      -0.1241
     72  CA       247.1070  261.2490  307.9000 C.3    73  TRP73       0.1605
     73  C        246.4320  262.4640  307.2900 C.2    73  TRP73       0.2264
     74  O        245.5260  262.3470  306.4620 O.2    73  TRP73      -0.2867
     75  CB       248.5590  261.1810  307.4290 C.3    73  TRP73       0.0550
     76  CG       248.6700  261.3100  305.9550 C.ar   73  TRP73       0.0003
     77  CD1      248.2340  260.4170  305.0380 C.ar   73  TRP73       0.0946
     78  CD2      249.3210  262.3530  305.2230 C.ar   73  TRP73       0.0152
     79  NE1      248.5320  260.8480  303.7740 N.ar   73  TRP73      -0.2442
     80  CE2      249.2040  262.0350  303.8610 C.ar   73  TRP73       0.0810
     81  CE3      249.9780  263.5300  305.5830 C.ar   73  TRP73       0.0012
     82  CZ2      249.7140  262.8480  302.8600 C.ar   73  TRP73       0.0191
     83  CZ3      250.4840  264.3360  304.5870 C.ar   73  TRP73       0.0001
     84  CH2      250.3500  263.9930  303.2440 C.ar   73  TRP73       0.0015
     85  N        248.0450  266.7240  306.3780 N.3    75  ALA75      -0.1245
     86  CA       249.1960  267.6060  306.5080 C.3    75  ALA75       0.1562
     87  C        249.0870  268.5040  307.7250 C.2    75  ALA75       0.2260
     88  O        250.1000  268.8160  308.3600 O.2    75  ALA75      -0.2867
     89  CB       249.3390  268.4550  305.2570 C.3    75  ALA75       0.0290
     90  N        256.5940  263.2980  296.8720 N.3    94  LEU94      -0.1231
     91  CA       255.9470  263.4230  295.5730 C.3    94  LEU94       0.1693
     92  C        254.7480  264.3640  295.6290 C.2    94  LEU94       0.2592
     93  O        254.0250  264.4910  294.6390 O.2    94  LEU94      -0.2718
     94  CB       255.5100  262.0490  295.0630 C.3    94  LEU94       0.0284
     95  CG       256.6170  261.0010  294.9160 C.3    94  LEU94       0.0019
     96  CD1      256.0550  259.6530  294.5540 C.3    94  LEU94       0.0001
     97  CD2      257.6520  261.3980  293.8990 C.3    94  LEU94       0.0001
     98  N        254.5160  265.0210  296.7680 N.am   95  ILE95      -0.1966
     99  CA       253.3700  265.9060  296.9110 C.3    95  ILE95       0.1727
    100  C        253.4760  267.0640  295.9230 C.2    95  ILE95       0.2617
    101  O        254.5680  267.4480  295.4850 O.2    95  ILE95      -0.2715
    102  CB       253.2660  266.4040  298.3680 C.3    95  ILE95       0.0290
    103  CG1      252.9750  265.2430  299.3200 C.3    95  ILE95       0.0022
    104  CG2      252.2090  267.4690  298.5580 C.3    95  ILE95       0.0023
    105  CD1      254.1290  264.8010  300.1060 C.3    95  ILE95       0.0001
    106  N        252.3190  267.6160  295.5650 N.am   96  GLY96      -0.1940
    107  CA       252.1960  268.8040  294.7470 C.3    96  GLY96       0.2014
    108  C        251.0580  268.6230  293.7770 C.2    96  GLY96       0.2639
    109  O        251.0810  267.6870  292.9740 O.2    96  GLY96      -0.2714
    110  N        250.0600  269.5050  293.8200 N.am   97  ARG97      -0.1963
    111  CA       248.8150  269.1370  293.1720 C.3    97  ARG97       0.1729
    112  C        248.8110  269.5260  291.6960 C.2    97  ARG97       0.2616
    113  O        249.2580  268.7400  290.8540 O.2    97  ARG97      -0.2715
    114  CB       247.6920  269.8100  293.9650 C.3    97  ARG97       0.0348
    115  CG       246.2790  269.4870  293.5490 C.3    97  ARG97       0.0492
    116  CD       245.8900  268.0650  293.8920 C.3    97  ARG97       0.2205
    117  NE       246.2010  267.1480  292.8080 N.pl3  97  ARG97      -0.0865
    118  CZ       246.0460  265.8300  292.8660 C.cat  97  ARG97       0.5346
    119  NH1      245.5750  265.2450  293.9620 N.pl3  97  ARG97       0.1354
    120  NH2      246.3590  265.0960  291.8100 N.pl3  97  ARG97       0.1354
    121  N        248.3380  270.7260  291.3620 N.am   98  GLU98      -0.1977
    122  CA       248.8670  271.5740  290.2970 C.3    98  GLU98       0.1602
    123  C        248.4750  273.0400  290.5320 C.2    98  GLU98       0.2287
    124  O        248.8670  273.9180  289.7580 O.2    98  GLU98      -0.2864
    125  CB       248.3790  271.0550  288.9390 C.3    98  GLU98       0.0415
    126  CG       248.9500  271.7030  287.6840 C.3    98  GLU98       0.1163
    127  CD       250.4180  271.4020  287.4650 C.2    98  GLU98       0.3649
    128  OE1      250.9080  270.3770  287.9860 O.co2  98  GLU98      -0.2457
    129  OE2      251.0760  272.1810  286.7430 O.co2  98  GLU98      -0.2457
    130  N        244.8320  274.3210  301.0300 N.3   104  PHE104     -0.1241
    131  CA       246.2540  274.1410  300.7650 C.3   104  PHE104      0.1605
    132  C        246.6240  274.9170  299.5100 C.2   104  PHE104      0.2264
    133  O        246.0980  274.6400  298.4270 O.2   104  PHE104     -0.2867
    134  CB       246.5990  272.6630  300.6040 C.3   104  PHE104      0.0534
    135  CG       246.4010  271.8590  301.8490 C.ar  104  PHE104     -0.0203
    136  CD1      247.3010  271.9400  302.8890 C.ar  104  PHE104     -0.0042
    137  CD2      245.3330  270.9960  301.9650 C.ar  104  PHE104     -0.0042
    138  CE1      247.1230  271.1950  304.0300 C.ar  104  PHE104     -0.0003
    139  CE2      245.1530  270.2480  303.1030 C.ar  104  PHE104     -0.0003
    140  CZ       246.0470  270.3470  304.1350 C.ar  104  PHE104     -0.0000
    141  N        251.9290  273.5190  300.3050 N.3   109  VAL109     -0.1231
    142  CA       252.0650  272.1980  299.7130 C.3   109  VAL109      0.1692
    143  C        253.4850  271.9080  299.2380 C.2   109  VAL109      0.2592
    144  O        253.9250  270.7560  299.3240 O.2   109  VAL109     -0.2718
    145  CB       251.0520  272.0120  298.5610 C.3   109  VAL109      0.0266
    146  CG1      251.3860  272.8780  297.3790 C.3   109  VAL109      0.0020
    147  CG2      250.9830  270.5780  298.1320 C.3   109  VAL109      0.0020
    148  N        254.2190  272.9110  298.7500 N.am  110  PHE110     -0.1976
    149  CA       255.5660  272.7080  298.2280 C.3   110  PHE110      0.1639
    150  C        256.6690  273.1340  299.1810 C.2   110  PHE110      0.2290
    151  O        257.8400  272.8640  298.8940 O.2   110  PHE110     -0.2864
    152  CB       255.7640  273.4690  296.9150 C.3   110  PHE110      0.0560
    153  CG       254.9290  272.9590  295.7930 C.ar  110  PHE110     -0.0200
    154  CD1      255.1890  271.7310  295.2420 C.ar  110  PHE110     -0.0042
    155  CD2      253.9200  273.7250  295.2550 C.ar  110  PHE110     -0.0042
    156  CE1      254.4400  271.2600  294.2040 C.ar  110  PHE110     -0.0003
    157  CE2      253.1580  273.2420  294.2150 C.ar  110  PHE110     -0.0003
    158  CZ       253.4210  272.0100  293.6930 C.ar  110  PHE110     -0.0000
    159  N        255.0970  271.0850  303.5180 N.3   113  ILE113     -0.1245
    160  CA       254.9590  269.6320  303.5930 C.3   113  ILE113      0.1561
    161  C        256.3440  268.9950  303.6390 C.2   113  ILE113      0.2260
    162  O        256.5840  268.1520  304.5130 O.2   113  ILE113     -0.2867
    163  CB       254.1210  269.0610  302.4360 C.3   113  ILE113      0.0252
    164  CG1      252.7440  269.7100  302.3690 C.3   113  ILE113      0.0019
    165  CG2      254.0090  267.5650  302.5650 C.3   113  ILE113      0.0019
    166  CD1      251.8980  269.5590  303.5780 C.3   113  ILE113      0.0001
    167  N        261.2240  265.7520  295.1330 N.3   132  VAL132     -0.1231
    168  CA       260.9160  266.0290  293.7390 C.3   132  VAL132      0.1692
    169  C        260.4470  267.4730  293.6510 C.2   132  VAL132      0.2593
    170  O        259.2760  267.7780  293.9060 O.2   132  VAL132     -0.2718
    171  CB       259.8670  265.0710  293.1770 C.3   132  VAL132      0.0266
    172  CG1      259.5360  265.4500  291.7570 C.3   132  VAL132      0.0020
    173  CG2      260.3680  263.6560  293.2560 C.3   132  VAL132      0.0020
    174  N        261.3660  268.3650  293.2860 N.am  133  SER133     -0.1938
    175  CA       261.0350  269.7080  292.8350 C.3   133  SER133      0.2055
    176  C        260.6080  269.6020  291.3780 C.2   133  SER133      0.2643
    177  O        260.2570  268.5110  290.9220 O.2   133  SER133     -0.2714
    178  CB       262.2250  270.6520  293.0070 C.3   133  SER133      0.2130
    179  OG       262.5890  270.7800  294.3670 O.3   133  SER133     -0.2179
    180  N        260.5720  270.7170  290.6550 N.am  134  HIS134     -0.1973
    181  CA       260.3430  270.7040  289.2180 C.3   134  HIS134      0.1656
    182  C        261.3840  271.5550  288.5190 C.2   134  HIS134      0.2291
    183  O        261.7030  272.6620  288.9580 O.2   134  HIS134     -0.2864
    184  CB       258.9440  271.1910  288.8650 C.3   134  HIS134      0.0771
    185  CG       258.6950  271.3290  287.3980 C.ar  134  HIS134      0.0820
    186  ND1      258.7510  270.2650  286.5290 N.ar  134  HIS134     -0.2267
    187  CD2      258.3130  272.3960  286.6590 C.ar  134  HIS134      0.1154
    188  CE1      258.4640  270.6800  285.3080 C.ar  134  HIS134      0.1986
    189  NE2      258.1940  271.9700  285.3600 N.ar  134  HIS134     -0.2212
    190  N        258.6770  276.2610  294.7330 N.3   149  LYS149     -0.1245
    191  CA       259.2710  274.9330  294.7090 C.3   149  LYS149      0.1561
    192  C        260.7820  274.9590  294.8630 C.2   149  LYS149      0.2260
    193  O        261.3760  273.9050  295.1090 O.2   149  LYS149     -0.2867
    194  CB       258.8770  274.2240  293.4180 C.3   149  LYS149      0.0271
    195  CG       257.4320  273.7950  293.4340 C.3   149  LYS149      0.0035
    196  CD       256.9170  273.2860  292.1000 C.3   149  LYS149      0.0206
    197  CE       257.4870  271.9580  291.7060 C.3   149  LYS149      0.1093
    198  NZ       257.0990  270.8200  292.5630 N.3   149  LYS149     -0.1314
    199  N        262.7560  266.9810  287.7020 N.3   168  PRO168     -0.2102
    200  CA       262.3870  266.4330  286.4010 C.3   168  PRO168      0.1504
    201  C        261.7720  267.4860  285.4970 C.2   168  PRO168      0.2576
    202  O        261.3250  268.5450  285.9370 O.2   168  PRO168     -0.2718
    203  CB       261.3540  265.3660  286.7600 C.3   168  PRO168      0.0282
    204  CG       260.7250  265.8820  287.9480 C.3   168  PRO168      0.0208
    205  CD       261.7660  266.6160  288.7210 C.3   168  PRO168      0.0893
    206  N        261.7370  267.1580  284.2130 N.am  169  SER169     -0.1938
    207  CA       261.0680  268.0000  283.2370 C.3   169  SER169      0.2055
    208  C        259.5830  267.6690  283.2670 C.2   169  SER169      0.2643
    209  O        259.0930  266.9540  284.1450 O.2   169  SER169     -0.2714
    210  CB       261.6750  267.8050  281.8570 C.3   169  SER169      0.2130
    211  OG       261.3970  266.5190  281.3510 O.3   169  SER169     -0.2179
    212  N        258.8440  268.1880  282.2950 N.am  170  ASP170     -0.1957
    213  CA       257.4080  267.9790  282.2740 C.3   170  ASP170      0.1840
    214  C        257.1120  266.5780  281.7560 C.2   170  ASP170      0.2621
    215  O        257.4940  266.2150  280.6400 O.2   170  ASP170     -0.2715
    216  CB       256.7470  269.0450  281.4090 C.3   170  ASP170      0.1450
    217  CG       255.2750  269.2380  281.7290 C.2   170  ASP170      0.3671
    218  OD1      254.7110  268.4400  282.5120 O.co2 170  ASP170     -0.2456
    219  OD2      254.6950  270.2290  281.2380 O.co2 170  ASP170     -0.2456
    220  N        256.4320  265.7900  282.5820 N.am  171  ILE171     -0.1977
    221  CA       256.3620  264.3410  282.4350 C.3   171  ILE171      0.1596
    222  C        255.1580  263.9750  281.5790 C.2   171  ILE171      0.2287
    223  O        254.1560  264.6980  281.5400 O.2   171  ILE171     -0.2864
    224  CB       256.2970  263.6520  283.8180 C.3   171  ILE171      0.0276
    225  CG1      257.5760  263.9050  284.6090 C.3   171  ILE171      0.0022
    226  CG2      256.1280  262.1600  283.6680 C.3   171  ILE171      0.0022
    227  CD1      257.4360  263.6850  286.0850 C.3   171  ILE171      0.0001
    228  N        249.0210  264.7150  282.7770 N.3   177  ARG177     -0.1245
    229  CA       248.4480  266.0520  282.6940 C.3   177  ARG177      0.1563
    230  C        249.1610  266.8910  281.6410 C.2   177  ARG177      0.2260
    231  O        248.9780  268.1120  281.6030 O.2   177  ARG177     -0.2867
    232  CB       248.5180  266.7500  284.0550 C.3   177  ARG177      0.0307
    233  CG       247.4360  266.3430  285.0470 C.3   177  ARG177      0.0489
    234  CD       247.7590  265.0710  285.8190 C.3   177  ARG177      0.2205
    235  NE       249.0000  265.1450  286.5890 N.pl3 177  ARG177     -0.0865
    236  CZ       249.1350  265.7240  287.7780 C.cat 177  ARG177      0.5346
    237  NH1      248.1160  266.3290  288.3740 N.pl3 177  ARG177      0.1354
    238  NH2      250.3180  265.7120  288.3750 N.pl3 177  ARG177      0.1354
@<TRIPOS>BOND
     1   215   214    2
     2   219   217   ar
     3   211   210    1
     4   216   217    1
     5   216   213    1
     6   223   222    2
     7   222   221    1
     8   231   230    2
     9   230   229    1
    10   217   218   ar
    11   214   213    1
    12   214   220   am
    13   210   207    1
    14   213   212    1
    15   212   208   am
    16   221   220    1
    17   221   224    1
    18   229   228    1
    19   229   232    1
    20   207   208    1
    21   207   206    1
    22   208   209    2
    23   226   224    1
    24   224   225    1
    25   232   233    1
    26   206   201   am
    27    37    35   ar
    28    37    36   ar
    29    35    33   ar
    30   225   227    1
    31   233   234    1
    32    36    34   ar
    33   188   189   ar
    34   188   186   ar
    35   189   187   ar
    36   201   202    2
    37   201   200    1
    38    33    32   ar
    39   234   235    1
    40   200   203    1
    41   200   199    1
    42    34    32   ar
    43   186   185   ar
    44   235   236    2
    45    32    31    1
    46   187   185   ar
    47   129   127   ar
    48   203   204    1
    49   185   184    1
    50   127   126    1
    51   127   128   ar
    52   126   125    1
    53   199   205    1
    54   236   237    1
    55   236   238    1
    56   204   205    1
    57    31    28    1
    58    30    29    2
    59   182   183    2
    60   182   181    1
    61    44    43    1
    62    28    29    1
    63    28    27    1
    64    29    38   am
    65   184   181    1
    66   125   122    1
    67   181   180    1
    68    38    39    1
    69    39    42    1
    70    39    40    1
    71   124   123    2
    72    42    43    1
    73    43    45    1
    74    26    25    2
    75    27    25   am
    76   122   123    1
    77   122   121    1
    78    41    40    2
    79    25    24    1
    80   180   176   am
    81   113   112    2
    82   177   176    2
    83   121   112   am
    84   176   175    1
    85   112   111    1
    86   197   196    1
    87   197   198    1
    88   172   171    1
    89   120   118    1
    90    24    23    1
    91   196   195    1
    92   117   118    2
    93   117   116    1
    94   175   178    1
    95   175   174    1
    96   118   119    1
    97   109   108    2
    98   178   179    1
    99    23    18   am
   100    69    68   ar
   101   111   110    1
   102   111   114    1
   103   171   173    1
   104   171   168    1
   105   174   169   am
   106    19    18    2
   107   194   195    1
   108   194   191    1
   109   115   116    1
   110   115   114    1
   111   169   168    1
   112   169   170    2
   113   158   156   ar
   114   158   157   ar
   115   168   167    1
   116   108   110   am
   117   108   107    1
   118    18    17    1
   119    97    95    1
   120    68    70   ar
   121    68    67    1
   122   156   154   ar
   123   157   155   ar
   124    66    65    2
   125    96    95    1
   126    93    92    2
   127   191   190    1
   128   191   192    1
   129   107   106    1
   130   192   193    2
   131    95    94    1
   132    15    14    2
   133    94    91    1
   134    17    16    1
   135    17    20    1
   136    64    67    1
   137    64    65    1
   138    64    63    1
   139   154   153   ar
   140   155   153   ar
   141   101   100    2
   142   106   100   am
   143    91    92    1
   144    91    90    1
   145    92    98   am
   146   153   152    1
   147   100    99    1
   148    21    20    1
   149    14    13    1
   150    20    22    1
   151    98    99    1
   152    99   102    1
   153   152   149    1
   154    13    12    1
   155   146   145    1
   156    12     3   am
   157   147   145    1
   158    55    54    1
   159   149   148    1
   160   149   150    1
   161   102   104    1
   162   102   103    1
   163   133   132    2
   164   145   142    1
   165   148   143   am
   166    62    61    1
   167   151   150    2
   168   143   144    2
   169   143   142    1
   170     3     4    2
   171     3     2    1
   172   103   105    1
   173    61    58    1
   174    54    53    2
   175    54    56    1
   176   132   131    1
   177    53    52    1
   178   142   141    1
   179     1     2    1
   180     2     5    1
   181   134   131    1
   182   134   135    1
   183    58    59    1
   184    58    57    1
   185   131   130    1
   186    59    60    2
   187    52    51    1
   188     5     6    1
   189    51    50    1
   190    57    48   am
   191   135   137   ar
   192   135   136   ar
   193   137   139   ar
   194     6     8   ar
   195     6     7   ar
   196     8    10   ar
   197   164   163    1
   198   164   166    1
   199    46    47    1
   200   163   165    1
   201   163   160    1
   202    48    49    2
   203    48    47    1
   204    82    84   ar
   205    82    80   ar
   206    50    47    1
   207   136   138   ar
   208   139   140   ar
   209    84    83   ar
   210     7     9   ar
   211    10    11   ar
   212   159   160    1
   213   160   161    1
   214   161   162    2
   215    79    80   ar
   216    79    77   ar
   217    80    78   ar
   218   138   140   ar
   219    83    81   ar
   220     9    11   ar
   221    77    76   ar
   222    78    81   ar
   223    78    76   ar
   224    89    86    1
   225    76    75    1
   226    85    86    1
   227    74    73    2
   228    86    87    1
   229    73    72    1
   230    75    72    1
   231    71    72    1
   232    87    88    2
