@<TRIPOS>MOLECULE
tmp/6g2lA00.pdb
 123 123 0 0 0
SMALL
GASTEIGER

@<TRIPOS>ATOM
      1  N         -4.9340   27.3010   17.8650 N.3    20  PHE20      -0.1241
      2  CA        -5.0910   27.9210   19.1920 C.3    20  PHE20       0.1605
      3  C         -4.3300   29.2470   19.2620 C.2    20  PHE20       0.2264
      4  O         -4.8740   30.2470   19.7540 O.2    20  PHE20      -0.2867
      5  CB        -4.5880   26.9370   20.2630 C.3    20  PHE20       0.0534
      6  CG        -4.7510   27.4030   21.6820 C.ar   20  PHE20      -0.0203
      7  CD1       -3.7990   28.2790   22.2480 C.ar   20  PHE20      -0.0042
      8  CD2       -5.7760   26.9130   22.4810 C.ar   20  PHE20      -0.0042
      9  CE1       -3.9520   28.7230   23.5600 C.ar   20  PHE20      -0.0003
     10  CE2       -5.8850   27.3390   23.8110 C.ar   20  PHE20      -0.0003
     11  CZ        -5.0170   28.2460   24.3170 C.ar   20  PHE20      -0.0000
     12  N          5.4940   27.2630   26.3480 N.3    46  PHE46      -0.1227
     13  CA         4.1970   26.6700   26.0420 C.3    46  PHE46       0.1736
     14  C          3.0210   27.5010   26.5160 C.2    46  PHE46       0.2595
     15  O          1.9640   27.5670   25.8150 O.2    46  PHE46      -0.2718
     16  CB         4.1280   25.2820   26.6780 C.3    46  PHE46       0.0547
     17  CG         2.9750   24.4460   26.1920 C.ar   46  PHE46      -0.0202
     18  CD1        2.9170   23.9870   24.8940 C.ar   46  PHE46      -0.0042
     19  CD2        1.9600   24.0900   27.0460 C.ar   46  PHE46      -0.0042
     20  CE1        1.9100   23.2230   24.4420 C.ar   46  PHE46      -0.0003
     21  CE2        0.9250   23.3380   26.6050 C.ar   46  PHE46      -0.0003
     22  CZ         0.8890   22.8830   25.2990 C.ar   46  PHE46      -0.0000
     23  N          3.1420   28.1050   27.6940 N.am   47  TRP47      -0.1962
     24  CA         1.9960   28.7180   28.3420 C.3    47  TRP47       0.1771
     25  C          1.8270   30.1930   27.9360 C.2    47  TRP47       0.2619
     26  O          2.6080   31.0810   28.3230 O.2    47  TRP47      -0.2715
     27  CB         2.1330   28.5950   29.8830 C.3    47  TRP47       0.0590
     28  CG         2.3240   27.2210   30.3380 C.ar   47  TRP47       0.0006
     29  CD1        3.4510   26.7000   30.9300 C.ar   47  TRP47       0.0946
     30  CD2        1.4080   26.1330   30.2170 C.ar   47  TRP47       0.0152
     31  NE1        3.2800   25.3720   31.1960 N.ar   47  TRP47      -0.2442
     32  CE2        2.0290   24.9990   30.7720 C.ar   47  TRP47       0.0810
     33  CE3        0.1050   25.9940   29.6820 C.ar   47  TRP47       0.0012
     34  CZ2        1.4080   23.7370   30.7890 C.ar   47  TRP47       0.0191
     35  CZ3       -0.4980   24.7470   29.7330 C.ar   47  TRP47       0.0001
     36  CH2        0.1500   23.6500   30.2760 C.ar   47  TRP47       0.0015
     37  N          0.8010   30.4510   27.1320 N.am   48  VAL48      -0.1963
     38  CA         0.5400   31.7930   26.6680 C.3    48  VAL48       0.1727
     39  C          0.4080   32.7780   27.8490 C.2    48  VAL48       0.2616
     40  O          0.9510   33.8960   27.8120 O.2    48  VAL48      -0.2715
     41  CB        -0.7830   31.8330   25.8470 C.3    48  VAL48       0.0290
     42  CG1       -1.2470   33.2730   25.5900 C.3    48  VAL48       0.0023
     43  CG2       -0.6620   31.0700   24.5390 C.3    48  VAL48       0.0023
     44  N         -0.3240   32.3910   28.8930 N.am   49  SER49      -0.1950
     45  CA        -0.6070   33.3750   29.9640 C.3    49  SER49       0.1924
     46  C          0.6710   33.7770   30.7250 C.2    49  SER49       0.2314
     47  O          0.7440   34.9010   31.2430 O.2    49  SER49      -0.2863
     48  CB        -1.6940   32.9080   30.9170 C.3    49  SER49       0.2116
     49  OG        -1.2070   31.9100   31.7540 O.3    49  SER49      -0.2180
     50  N         -6.4380   34.5780   30.0320 N.3    64  ILE64      -0.1245
     51  CA        -7.2720   33.4330   30.4530 C.3    64  ILE64       0.1561
     52  C         -8.7130   33.5980   30.0130 C.2    64  ILE64       0.2260
     53  O         -9.3920   32.6650   29.5750 O.2    64  ILE64      -0.2867
     54  CB        -7.1450   33.1760   31.9730 C.3    64  ILE64       0.0252
     55  CG1       -5.7420   32.6420   32.3100 C.3    64  ILE64       0.0019
     56  CG2       -8.2290   32.2470   32.4900 C.3    64  ILE64       0.0019
     57  CD1       -5.3350   32.8080   33.7440 C.3    64  ILE64       0.0001
     58  N         -9.6400   32.1770   26.3990 N.3    67  TRP67      -0.1241
     59  CA        -9.9410   30.7470   26.2290 C.3    67  TRP67       0.1605
     60  C        -11.0520   30.2420   27.0780 C.2    67  TRP67       0.2264
     61  O        -11.5940   29.1800   26.7760 O.2    67  TRP67      -0.2867
     62  CB        -8.7240   29.8380   26.2960 C.3    67  TRP67       0.0550
     63  CG        -7.8550   29.9740   27.4830 C.ar   67  TRP67       0.0003
     64  CD1       -8.0770   29.5470   28.7650 C.ar   67  TRP67       0.0946
     65  CD2       -6.5900   30.6110   27.4910 C.ar   67  TRP67       0.0152
     66  NE1       -7.0030   29.8720   29.5600 N.ar   67  TRP67      -0.2442
     67  CE2       -6.0690   30.5170   28.7950 C.ar   67  TRP67       0.0810
     68  CE3       -5.8170   31.2130   26.4960 C.ar   67  TRP67       0.0012
     69  CZ2       -4.8130   31.0080   29.1270 C.ar   67  TRP67       0.0191
     70  CZ3       -4.5860   31.7200   26.8280 C.ar   67  TRP67       0.0001
     71  CH2       -4.0830   31.6030   28.1120 C.ar   67  TRP67       0.0015
     72  N         -6.3310   17.4030   25.3220 N.3   102  SER102     -0.1203
     73  CA        -6.5770   17.7390   26.7300 C.3   102  SER102      0.2005
     74  C         -7.4690   18.9630   26.8180 C.2   102  SER102      0.2461
     75  O         -7.0800   20.0390   26.3720 O.2   102  SER102     -0.2732
     76  CB        -5.2550   18.0330   27.4560 C.3   102  SER102      0.2103
     77  OG        -4.3790   16.9150   27.4340 O.3   102  SER102     -0.2182
     78  N         -8.6600   18.8360   27.4130 N.am  103  PRO103     -0.2717
     79  CA        -9.5060   20.0030   27.5560 C.3   103  PRO103      0.1535
     80  C         -9.0000   20.8750   28.7020 C.2   103  PRO103      0.2598
     81  O         -8.2740   20.3980   29.5870 O.2   103  PRO103     -0.2715
     82  CB       -10.8540   19.4120   27.9080 C.3   103  PRO103      0.0310
     83  CG       -10.5050   18.1330   28.6570 C.3   103  PRO103      0.0237
     84  CD        -9.2110   17.6230   28.0440 C.3   103  PRO103      0.0939
     85  N         -9.3390   22.1710   28.6630 N.am  104  ILE104     -0.1964
     86  CA        -9.0590   23.0380   29.7800 C.3   104  ILE104      0.1727
     87  C         -9.9030   22.6780   31.0130 C.2   104  ILE104      0.2616
     88  O        -10.9030   21.9720   30.8940 O.2   104  ILE104     -0.2715
     89  CB        -9.2140   24.5150   29.4550 C.3   104  ILE104      0.0290
     90  CG1      -10.6600   24.8910   29.0400 C.3   104  ILE104      0.0022
     91  CG2       -8.2330   24.8980   28.3270 C.3   104  ILE104      0.0023
     92  CD1      -10.8980   26.4140   29.0580 C.3   104  ILE104      0.0001
     93  N         -9.4570   23.1590   32.1850 N.am  105  LYS105     -0.1977
     94  CA       -10.1230   22.8290   33.4620 C.3   105  LYS105      0.1596
     95  C        -11.5390   23.3680   33.4950 C.2   105  LYS105      0.2287
     96  O        -12.4250   22.7270   34.0700 O.2   105  LYS105     -0.2864
     97  CB        -9.3160   23.4140   34.6430 C.3   105  LYS105      0.0298
     98  CG        -7.9750   22.7720   34.9230 C.3   105  LYS105      0.0038
     99  CD        -7.3820   23.4010   36.2220 C.3   105  LYS105      0.0206
    100  CE        -5.9350   23.0110   36.4410 C.3   105  LYS105      0.1093
    101  NZ        -5.5120   23.4050   37.8130 N.3   105  LYS105     -0.1314
    102  N         -6.4430   14.5130   30.2160 N.3   134  ARG134     -0.1245
    103  CA        -5.3380   15.3680   30.6970 C.3   134  ARG134      0.1563
    104  C         -4.0390   14.5950   30.8270 C.2   134  ARG134      0.2260
    105  O         -3.0200   15.1960   31.1960 O.2   134  ARG134     -0.2867
    106  CB        -5.7030   15.9820   32.0400 C.3   134  ARG134      0.0307
    107  CG        -6.9430   16.7690   32.0050 C.3   134  ARG134      0.0489
    108  CD        -6.7630   18.1960   31.7290 C.3   134  ARG134      0.2205
    109  NE        -6.0000   18.9820   32.7340 N.pl3 134  ARG134     -0.0865
    110  CZ        -5.9220   20.3250   32.7350 C.cat 134  ARG134      0.5346
    111  NH1       -6.6050   21.0430   31.8450 N.pl3 134  ARG134      0.1354
    112  NH2       -5.2010   20.9830   33.6610 N.pl3 134  ARG134      0.1354
    113  N          3.4510   20.0730   22.2990 N.3   148  ARG148     -0.1245
    114  CA         3.9780   20.3230   23.6310 C.3   148  ARG148      0.1563
    115  C          5.3070   19.5810   23.7930 C.2   148  ARG148      0.2260
    116  O          5.3630   18.3700   23.5660 O.2   148  ARG148     -0.2867
    117  CB         2.9900   19.7890   24.6800 C.3   148  ARG148      0.0307
    118  CG         3.4260   20.1330   26.0960 C.3   148  ARG148      0.0489
    119  CD         2.3240   19.8340   27.1190 C.3   148  ARG148      0.2205
    120  NE         2.8820   20.0040   28.4700 N.pl3 148  ARG148     -0.0865
    121  CZ         2.1900   20.0940   29.5780 C.cat 148  ARG148      0.5346
    122  NH1        0.8950   20.1150   29.5390 N.pl3 148  ARG148      0.1354
    123  NH2        2.8290   20.1600   30.7320 N.pl3 148  ARG148      0.1354
@<TRIPOS>BOND
     1     1     2    1
     2     2     3    1
     3     2     5    1
     4     3     4    2
     5     5     6    1
     6     6     7   ar
     7     6     8   ar
     8     7     9   ar
     9   113   114    1
    10     8    10   ar
    11     9    11   ar
    12   116   115    2
    13   114   115    1
    14   114   117    1
    15    10    11   ar
    16    20    18   ar
    17    20    22   ar
    18    43    41    1
    19   117   118    1
    20    18    17   ar
    21    22    21   ar
    22    72    73    1
    23    42    41    1
    24    15    14    2
    25    41    38    1
    26    13    12    1
    27    13    14    1
    28    13    16    1
    29   118   119    1
    30    17    16    1
    31    17    19   ar
    32    59    62    1
    33    59    58    1
    34    59    60    1
    35    62    63    1
    36    75    74    2
    37    68    70   ar
    38    68    65   ar
    39    14    23   am
    40    21    19   ar
    41    38    37    1
    42    38    39    1
    43    73    74    1
    44    73    76    1
    45    61    60    2
    46    74    78   am
    47    70    71   ar
    48   119   120    1
    49    37    25   am
    50    78    79    1
    51    78    84    1
    52    77    76    1
    53    63    65   ar
    54    63    64   ar
    55    65    67   ar
    56    79    82    1
    57    79    80    1
    58    23    24    1
    59    40    39    2
    60    39    44   am
    61    82    83    1
    62    25    26    2
    63    25    24    1
    64    84    83    1
    65    71    69   ar
    66    91    89    1
    67    24    27    1
    68   120   121    2
    69    85    80   am
    70    85    86    1
    71    80    81    2
    72    64    66   ar
    73    67    69   ar
    74    67    66   ar
    75    44    45    1
    76    90    92    1
    77    90    89    1
    78    89    86    1
    79   122   121    1
    80    53    52    2
    81   121   123    1
    82    33    35   ar
    83    33    30   ar
    84    35    36   ar
    85    86    87    1
    86    27    28    1
    87    45    46    1
    88    45    48    1
    89    52    51    1
    90    50    51    1
    91   102   103    1
    92    30    28   ar
    93    30    32   ar
    94    36    34   ar
    95    28    29   ar
    96    51    54    1
    97   103   104    1
    98   103   106    1
    99    46    47    2
   100    32    34   ar
   101    32    31   ar
   102   104   105    2
   103    88    87    2
   104    48    49    1
   105    29    31   ar
   106    87    93   am
   107   108   107    1
   108   108   109    1
   109   111   110    1
   110    54    55    1
   111    54    56    1
   112   107   106    1
   113    93    94    1
   114    55    57    1
   115   109   110    2
   116   110   112    1
   117    94    95    1
   118    94    97    1
   119    95    96    2
   120    97    98    1
   121    98    99    1
   122    99   100    1
   123   100   101    1
