@<TRIPOS>MOLECULE
tmp/6g2mA00.pdb
 194 191 0 0 0
SMALL
GASTEIGER

@<TRIPOS>ATOM
      1  N         -2.8120   15.3350   18.0980 N.3    11  ASP11      -0.1239
      2  CA        -3.2690   16.4060   18.9870 C.3    11  ASP11       0.1674
      3  C         -4.2320   17.3350   18.2190 C.2    11  ASP11       0.2266
      4  O         -4.1930   17.4540   16.9910 O.2    11  ASP11      -0.2867
      5  CB        -2.0130   17.1340   19.4340 C.3    11  ASP11       0.1410
      6  CG        -2.2200   18.2930   20.3660 C.2    11  ASP11       0.3668
      7  OD1       -3.2660   18.3450   21.0880 O.co2  11  ASP11      -0.2456
      8  OD2       -1.3430   19.1840   20.3680 O.co2  11  ASP11      -0.2456
      9  N         -5.3550   20.9780   19.5950 N.3    13  ASP13      -0.1225
     10  CA        -4.8710   22.3640   19.6860 C.3    13  ASP13       0.1805
     11  C         -3.4040   22.4150   19.2640 C.2    13  ASP13       0.2598
     12  O         -2.5660   21.6590   19.7730 O.2    13  ASP13      -0.2718
     13  CB        -5.0090   22.9020   21.1180 C.3    13  ASP13       0.1424
     14  CG        -6.4710   22.9770   21.5390 C.2    13  ASP13       0.3668
     15  OD1       -7.2100   23.7340   20.8860 O.co2  13  ASP13      -0.2456
     16  OD2       -6.8510   22.1610   22.4430 O.co2  13  ASP13      -0.2456
     17  N         -3.1150   23.3380   18.3580 N.am   14  GLY14      -0.1957
     18  CA        -1.7370   23.5540   17.8780 C.3    14  GLY14       0.1869
     19  C         -1.3020   22.6240   16.7900 C.2    14  GLY14       0.2309
     20  O         -0.1710   22.7700   16.3000 O.2    14  GLY14      -0.2863
     21  N         -4.9910   27.3160   17.7170 N.3    19  PHE19      -0.1227
     22  CA        -5.1440   27.9440   19.0330 C.3    19  PHE19       0.1736
     23  C         -4.3990   29.2690   19.1070 C.2    19  PHE19       0.2595
     24  O         -4.9490   30.2570   19.5890 O.2    19  PHE19      -0.2718
     25  CB        -4.6190   26.9590   20.1040 C.3    19  PHE19       0.0547
     26  CG        -4.8130   27.4320   21.5200 C.ar   19  PHE19      -0.0202
     27  CD1       -3.9360   28.3350   22.0900 C.ar   19  PHE19      -0.0042
     28  CD2       -5.8150   26.9070   22.3110 C.ar   19  PHE19      -0.0042
     29  CE1       -4.1160   28.7710   23.3980 C.ar   19  PHE19      -0.0003
     30  CE2       -5.9700   27.3180   23.6180 C.ar   19  PHE19      -0.0003
     31  CZ        -5.1330   28.2470   24.1630 C.ar   19  PHE19      -0.0000
     32  N         -3.1670   29.3090   18.6070 N.am   20  GLU20      -0.1979
     33  CA        -2.3380   30.5300   18.7660 C.3    20  GLU20       0.1602
     34  C         -2.8900   31.6870   17.9440 C.2    20  GLU20       0.2287
     35  O         -3.0050   32.8200   18.4410 O.2    20  GLU20      -0.2864
     36  CB        -0.8890   30.2200   18.3380 C.3    20  GLU20       0.0415
     37  CG        -0.1810   29.2960   19.2860 C.3    20  GLU20       0.1163
     38  CD         0.4380   29.9550   20.4990 C.2    20  GLU20       0.3649
     39  OE1        0.4630   31.1780   20.6430 O.co2  20  GLU20      -0.2457
     40  OE2        0.9600   29.2520   21.3440 O.co2  20  GLU20      -0.2457
     41  N          5.3370   27.1610   25.9120 N.3    45  PHE45      -0.1227
     42  CA         4.0020   26.6400   25.6400 C.3    45  PHE45       0.1736
     43  C          2.8730   27.5050   26.1580 C.2    45  PHE45       0.2595
     44  O          1.8390   27.6440   25.4880 O.2    45  PHE45      -0.2718
     45  CB         3.8870   25.2550   26.2830 C.3    45  PHE45       0.0547
     46  CG         2.6800   24.4640   25.8450 C.ar   45  PHE45      -0.0202
     47  CD1        2.6020   23.9330   24.5720 C.ar   45  PHE45      -0.0042
     48  CD2        1.6300   24.2330   26.7260 C.ar   45  PHE45      -0.0042
     49  CE1        1.5090   23.2260   24.1570 C.ar   45  PHE45      -0.0003
     50  CE2        0.5440   23.5110   26.3100 C.ar   45  PHE45      -0.0003
     51  CZ         0.4600   23.0080   25.0410 C.ar   45  PHE45      -0.0000
     52  N          3.0450   28.0920   27.3200 N.am   46  TRP46      -0.1962
     53  CA         1.9460   28.7290   28.0530 C.3    46  TRP46       0.1771
     54  C          1.7860   30.1770   27.6300 C.2    46  TRP46       0.2619
     55  O          2.5630   31.0720   28.0270 O.2    46  TRP46      -0.2715
     56  CB         2.1460   28.5930   29.5680 C.3    46  TRP46       0.0590
     57  CG         2.3270   27.1960   29.9950 C.ar   46  TRP46       0.0006
     58  CD1        3.4580   26.6470   30.5610 C.ar   46  TRP46       0.0946
     59  CD2        1.3680   26.1460   29.9410 C.ar   46  TRP46       0.0152
     60  NE1        3.2630   25.3160   30.8420 N.ar   46  TRP46      -0.2442
     61  CE2        1.9790   24.9870   30.4540 C.ar   46  TRP46       0.0810
     62  CE3        0.0340   26.0630   29.4610 C.ar   46  TRP46       0.0012
     63  CZ2        1.3310   23.7590   30.4820 C.ar   46  TRP46       0.0191
     64  CZ3       -0.6090   24.8340   29.5290 C.ar   46  TRP46       0.0001
     65  CH2        0.0340   23.7080   30.0300 C.ar   46  TRP46       0.0015
     66  N          0.7590   30.4390   26.8250 N.am   47  VAL47      -0.1963
     67  CA         0.4680   31.8120   26.3530 C.3    47  VAL47       0.1727
     68  C          0.3830   32.7790   27.5440 C.2    47  VAL47       0.2616
     69  O          0.9520   33.8950   27.4990 O.2    47  VAL47      -0.2715
     70  CB        -0.8630   31.8470   25.5750 C.3    47  VAL47       0.0290
     71  CG1       -1.3280   33.2780   25.2990 C.3    47  VAL47       0.0023
     72  CG2       -0.7060   31.1040   24.2660 C.3    47  VAL47       0.0023
     73  N         -0.3040   32.3890   28.6120 N.am   48  SER48      -0.1950
     74  CA        -0.5840   33.3840   29.6630 C.3    48  SER48       0.1924
     75  C          0.6900   33.7690   30.4070 C.2    48  SER48       0.2314
     76  O          0.7670   34.8850   30.9350 O.2    48  SER48      -0.2863
     77  CB        -1.6570   32.9360   30.6200 C.3    48  SER48       0.2116
     78  OG        -1.1980   31.9580   31.4570 O.3    48  SER48      -0.2180
     79  N         -6.4580   34.6640   29.7820 N.3    63  ILE63      -0.1245
     80  CA        -7.3020   33.5500   30.2330 C.3    63  ILE63       0.1561
     81  C         -8.7400   33.7280   29.7840 C.2    63  ILE63       0.2260
     82  O         -9.4380   32.7810   29.3890 O.2    63  ILE63      -0.2867
     83  CB        -7.1560   33.3290   31.7420 C.3    63  ILE63       0.0252
     84  CG1       -5.7890   32.7530   32.0670 C.3    63  ILE63       0.0019
     85  CG2       -8.2580   32.4280   32.3110 C.3    63  ILE63       0.0019
     86  CD1       -5.3700   32.9240   33.5020 C.3    63  ILE63       0.0001
     87  N         -9.6980   32.2380   26.2030 N.3    66  TRP66      -0.1241
     88  CA       -10.0210   30.8140   26.0060 C.3    66  TRP66       0.1605
     89  C        -11.1340   30.2990   26.8440 C.2    66  TRP66       0.2264
     90  O        -11.6730   29.2290   26.5620 O.2    66  TRP66      -0.2867
     91  CB        -8.7900   29.9220   26.0880 C.3    66  TRP66       0.0550
     92  CG        -7.9250   30.0740   27.2740 C.ar   66  TRP66       0.0003
     93  CD1       -8.1400   29.6410   28.5410 C.ar   66  TRP66       0.0946
     94  CD2       -6.6230   30.6670   27.2720 C.ar   66  TRP66       0.0152
     95  NE1       -7.0660   29.9680   29.3300 N.ar   66  TRP66      -0.2442
     96  CE2       -6.1310   30.6120   28.5750 C.ar   66  TRP66       0.0810
     97  CE3       -5.8460   31.2710   26.2820 C.ar   66  TRP66       0.0012
     98  CZ2       -4.8440   31.0770   28.9080 C.ar   66  TRP66       0.0191
     99  CZ3       -4.6030   31.7560   26.6160 C.ar   66  TRP66       0.0001
    100  CH2       -4.1180   31.6430   27.9000 C.ar   66  TRP66       0.0015
    101  N         -6.8170   14.8860   22.7170 N.3   100  THR100     -0.1203
    102  CA        -6.8760   16.2810   23.0390 C.3   100  THR100      0.1994
    103  C         -7.1260   16.4960   24.5290 C.2   100  THR100      0.2619
    104  O         -8.0030   15.8260   25.1020 O.2   100  THR100     -0.2717
    105  CB        -8.0080   16.9680   22.1870 C.3   100  THR100      0.1784
    106  OG1       -8.1560   18.3320   22.5500 O.3   100  THR100     -0.2211
    107  CG2       -9.3660   16.2900   22.2610 C.3   100  THR100      0.0376
    108  N         -6.4210   17.4610   25.1190 N.am  101  SER101     -0.1938
    109  CA        -6.6550   17.8070   26.5040 C.3   101  SER101      0.2040
    110  C         -7.5210   19.0410   26.5960 C.2   101  SER101      0.2485
    111  O         -7.0990   20.1010   26.1730 O.2   101  SER101     -0.2729
    112  CB        -5.3360   18.0740   27.2360 C.3   101  SER101      0.2129
    113  OG        -4.4630   16.9670   27.2520 O.3   101  SER101     -0.2179
    114  N         -8.7180   18.9430   27.1940 N.am  102  PRO102     -0.2715
    115  CA        -9.5730   20.0990   27.3560 C.3   102  PRO102      0.1536
    116  C         -9.0560   20.9740   28.4880 C.2   102  PRO102      0.2598
    117  O         -8.3420   20.4890   29.3840 O.2   102  PRO102     -0.2715
    118  CB       -10.9110   19.4900   27.7320 C.3   102  PRO102      0.0310
    119  CG       -10.5470   18.2550   28.5160 C.3   102  PRO102      0.0237
    120  CD        -9.2810   17.7250   27.8090 C.3   102  PRO102      0.0939
    121  N         -9.3840   22.2560   28.4370 N.am  103  ILE103     -0.1964
    122  CA        -9.1210   23.1260   29.5800 C.3   103  ILE103      0.1727
    123  C         -9.9680   22.7350   30.7760 C.2   103  ILE103      0.2616
    124  O        -10.9580   22.0210   30.6520 O.2   103  ILE103     -0.2715
    125  CB        -9.2780   24.6260   29.2400 C.3   103  ILE103      0.0290
    126  CG1      -10.7130   24.9760   28.8060 C.3   103  ILE103      0.0022
    127  CG2       -8.2550   25.0250   28.1610 C.3   103  ILE103      0.0023
    128  CD1      -10.9680   26.4950   28.8510 C.3   103  ILE103      0.0001
    129  N         -9.5330   23.2150   31.9520 N.am  104  LYS104     -0.1977
    130  CA       -10.1940   22.8540   33.2110 C.3   104  LYS104      0.1596
    131  C        -11.6280   23.4070   33.2520 C.2   104  LYS104      0.2287
    132  O        -12.5190   22.8080   33.8540 O.2   104  LYS104     -0.2864
    133  CB        -9.3820   23.4330   34.4130 C.3   104  LYS104      0.0298
    134  CG        -8.0330   22.8650   34.6990 C.3   104  LYS104      0.0038
    135  CD        -7.4760   23.5880   35.9470 C.3   104  LYS104      0.0206
    136  CE        -6.0810   23.1170   36.3030 C.3   104  LYS104      0.1093
    137  NZ        -5.6510   23.7930   37.5750 N.3   104  LYS104     -0.1314
    138  N         -6.5110   14.6050   30.0210 N.3   133  ARG133     -0.1245
    139  CA        -5.4070   15.4720   30.4930 C.3   133  ARG133      0.1563
    140  C         -4.1110   14.6840   30.6520 C.2   133  ARG133      0.2260
    141  O         -3.0890   15.2690   31.0160 O.2   133  ARG133     -0.2867
    142  CB        -5.7970   16.0970   31.8300 C.3   133  ARG133      0.0307
    143  CG        -7.0550   16.8680   31.7990 C.3   133  ARG133      0.0489
    144  CD        -6.8800   18.2860   31.5750 C.3   133  ARG133      0.2205
    145  NE        -6.1060   19.1020   32.5730 N.pl3 133  ARG133     -0.0865
    146  CZ        -6.0440   20.4380   32.5760 C.cat 133  ARG133      0.5346
    147  NH1       -6.7380   21.1650   31.6940 N.pl3 133  ARG133      0.1354
    148  NH2       -5.3300   21.0940   33.4870 N.pl3 133  ARG133      0.1354
    149  N         -2.0010   12.0570   28.3070 N.3   135  LYS135     -0.1245
    150  CA        -1.8500   11.3570   27.0610 C.3   135  LYS135      0.1561
    151  C         -0.9350   10.1230   27.1970 C.2   135  LYS135      0.2260
    152  O         -0.9070    9.2730   26.3160 O.2   135  LYS135     -0.2867
    153  CB        -1.3700   12.2960   25.9560 C.3   135  LYS135      0.0271
    154  CG        -2.2870   13.4740   25.7870 C.3   135  LYS135      0.0035
    155  CD        -2.0320   14.3160   24.5510 C.3   135  LYS135      0.0206
    156  CE        -2.9600   15.5320   24.5230 C.3   135  LYS135      0.1093
    157  NZ        -2.8540   16.3260   23.2750 N.3   135  LYS135     -0.1314
    158  N          2.1610   16.0790   18.3610 N.3   145  ASP145     -0.1225
    159  CA         1.6950   17.0290   19.3770 C.3   145  ASP145      0.1805
    160  C          2.7320   18.1460   19.5150 C.2   145  ASP145      0.2598
    161  O          3.9480   17.8600   19.4850 O.2   145  ASP145     -0.2718
    162  CB         1.4700   16.2640   20.7040 C.3   145  ASP145      0.1424
    163  CG         0.8310   17.0880   21.7930 C.2   145  ASP145      0.3668
    164  OD1        1.2960   18.1960   22.1140 O.co2 145  ASP145     -0.2456
    165  OD2       -0.1980   16.5550   22.3640 O.co2 145  ASP145     -0.2456
    166  N          2.2930   19.4050   19.5690 N.am  146  ASP146     -0.1960
    167  CA         3.1930   20.5570   19.6580 C.3   146  ASP146      0.1840
    168  C          3.7550   20.8660   21.0390 C.2   146  ASP146      0.2621
    169  O          4.6010   21.7570   21.1790 O.2   146  ASP146     -0.2715
    170  CB         2.4700   21.8020   19.1190 C.3   146  ASP146      0.1450
    171  CG         1.2590   22.2070   19.9510 C.2   146  ASP146      0.3671
    172  OD1        0.4050   21.3000   20.1040 O.co2 146  ASP146     -0.2456
    173  OD2        1.2000   23.3790   20.4300 O.co2 146  ASP146     -0.2456
    174  N          3.3280   20.1590   22.0820 N.am  147  ARG147     -0.1977
    175  CA         3.8400   20.4290   23.4070 C.3   147  ARG147      0.1597
    176  C          5.1720   19.6970   23.5810 C.2   147  ARG147      0.2287
    177  O          5.2170   18.5040   23.3780 O.2   147  ARG147     -0.2864
    178  CB         2.8570   19.9230   24.4880 C.3   147  ARG147      0.0334
    179  CG         3.2940   20.2740   25.8800 C.3   147  ARG147      0.0492
    180  CD         2.1970   20.0160   26.9120 C.3   147  ARG147      0.2205
    181  NE         2.7620   20.1750   28.2300 N.pl3 147  ARG147     -0.0865
    182  CZ         2.0590   20.2460   29.3490 C.cat 147  ARG147      0.5346
    183  NH1        0.7470   20.2650   29.3290 N.pl3 147  ARG147      0.1354
    184  NH2        2.7180   20.2930   30.5040 N.pl3 147  ARG147      0.1354
    185  N          5.8870   28.7240   19.2450 N.3   168  HIS168     -0.1241
    186  CA         6.3940   28.6250   20.5820 C.3   168  HIS168      0.1621
    187  C          7.5060   27.6120   20.7960 C.2   168  HIS168      0.2264
    188  O          8.2310   27.6890   21.7850 O.2   168  HIS168     -0.2867
    189  CB         5.2480   28.4210   21.6050 C.3   168  HIS168      0.0745
    190  CG         4.5730   27.1010   21.4890 C.ar  168  HIS168      0.0817
    191  ND1        5.1870   25.9330   21.9070 N.ar  168  HIS168     -0.2268
    192  CD2        3.3480   26.7470   21.0120 C.ar  168  HIS168      0.1154
    193  CE1        4.3670   24.9210   21.6760 C.ar  168  HIS168      0.1986
    194  NE2        3.2580   25.3740   21.1060 N.ar  168  HIS168     -0.2212
@<TRIPOS>BOND
     1    20    19    2
     2    19    18    1
     3     4     3    2
     4    21    22    1
     5    18    17    1
     6    34    35    2
     7    34    33    1
     8     1     2    1
     9     3     2    1
    10    36    33    1
    11    36    37    1
    12    17    11   am
    13   158   159    1
    14    32    33    1
    15    32    23   am
    16     2     5    1
    17    22    23    1
    18    22    25    1
    19    23    24    2
    20   170   167    1
    21   170   171    1
    22   185   186    1
    23    11    10    1
    24    11    12    2
    25    37    38    1
    26   159   160    1
    27   159   162    1
    28     5     6    1
    29   161   160    2
    30   160   166   am
    31   166   167    1
    32     9    10    1
    33   167   168    1
    34    10    13    1
    35   171   172   ar
    36   171   173   ar
    37    25    26    1
    38     6     8   ar
    39     6     7   ar
    40    38    39   ar
    41    38    40   ar
    42   186   187    1
    43   186   189    1
    44   162   163    1
    45   187   188    2
    46    15    14   ar
    47   192   194   ar
    48   192   190   ar
    49   168   169    2
    50   168   174   am
    51   194   193   ar
    52    13    14    1
    53   190   189    1
    54   190   191   ar
    55    26    27   ar
    56    26    28   ar
    57    14    16   ar
    58   193   191   ar
    59   163   164   ar
    60   163   165   ar
    61   174   175    1
    62    27    29   ar
    63   105   107    1
    64   105   106    1
    65   105   102    1
    66    28    30   ar
    67   101   102    1
    68   102   103    1
    69   157   156    1
    70   177   176    2
    71    29    31   ar
    72   175   176    1
    73   175   178    1
    74    30    31   ar
    75    49    47   ar
    76    49    51   ar
    77    72    70    1
    78   178   179    1
    79   156   155    1
    80   103   104    2
    81   103   108   am
    82   155   154    1
    83    47    46   ar
    84    51    50   ar
    85   108   109    1
    86    71    70    1
    87    44    43    2
    88    70    67    1
    89    42    41    1
    90    42    43    1
    91    42    45    1
    92   154   153    1
    93    46    45    1
    94    46    48   ar
    95   179   180    1
    96   153   150    1
    97    88    91    1
    98    88    87    1
    99    88    89    1
   100    91    92    1
   101    43    52   am
   102   111   110    2
   103    97    99   ar
   104    97    94   ar
   105    50    48   ar
   106   152   151    2
   107    67    66    1
   108    67    68    1
   109   109   110    1
   110   109   112    1
   111    90    89    2
   112   110   114   am
   113    99   100   ar
   114    66    54   am
   115   180   181    1
   116   150   151    1
   117   150   149    1
   118   114   115    1
   119   114   120    1
   120   112   113    1
   121    94    92   ar
   122    94    96   ar
   123    92    93   ar
   124    52    53    1
   125   115   118    1
   126   115   116    1
   127    69    68    2
   128    68    73   am
   129    54    55    2
   130    54    53    1
   131   118   119    1
   132   120   119    1
   133   100    98   ar
   134    53    56    1
   135   127   125    1
   136   181   182    2
   137   121   116   am
   138   121   122    1
   139   116   117    2
   140    93    95   ar
   141    96    98   ar
   142    96    95   ar
   143    73    74    1
   144   126   128    1
   145   126   125    1
   146   125   122    1
   147   183   182    1
   148   182   184    1
   149    82    81    2
   150    62    64   ar
   151    62    59   ar
   152    64    65   ar
   153    56    57    1
   154   122   123    1
   155    74    75    1
   156    74    77    1
   157    79    80    1
   158    81    80    1
   159    59    57   ar
   160    59    61   ar
   161    57    58   ar
   162   138   139    1
   163    65    63   ar
   164    80    83    1
   165    75    76    2
   166    61    63   ar
   167    61    60   ar
   168   139   140    1
   169   139   142    1
   170    58    60   ar
   171    77    78    1
   172   124   123    2
   173   140   141    2
   174   123   129   am
   175   144   143    1
   176   144   145    1
   177   147   146    1
   178    83    84    1
   179    83    85    1
   180   143   142    1
   181   129   130    1
   182    84    86    1
   183   145   146    2
   184   146   148    1
   185   130   131    1
   186   130   133    1
   187   131   132    2
   188   133   134    1
   189   134   135    1
   190   135   136    1
   191   136   137    1
