@<TRIPOS>MOLECULE
tmp/6g2nB00.pdb
 215 209 0 0 0
SMALL
GASTEIGER

@<TRIPOS>ATOM
      1  N         -2.6930   -8.7550   25.4430 N.3     7  ASP7       -0.1239
      2  CA        -3.6430   -7.6690   25.3890 C.3     7  ASP7        0.1674
      3  C         -3.0510   -6.4350   26.1180 C.2     7  ASP7        0.2266
      4  O         -2.2440   -6.5680   27.0280 O.2     7  ASP7       -0.2867
      5  CB        -4.9300   -8.1550   26.0720 C.3     7  ASP7        0.1410
      6  CG        -6.0400   -7.1530   26.1130 C.2     7  ASP7        0.3668
      7  OD1       -6.0600   -6.1710   25.2900 O.co2   7  ASP7       -0.2456
      8  OD2       -6.9550   -7.3620   26.9550 O.co2   7  ASP7       -0.2456
      9  N         -5.2020   -3.1340   27.1230 N.3     9  ASP9       -0.1225
     10  CA        -6.1760   -2.7430   28.1460 C.3     9  ASP9        0.1805
     11  C         -6.5920   -3.9330   28.9790 C.2     9  ASP9        0.2598
     12  O         -6.9940   -4.9720   28.4560 O.2     9  ASP9       -0.2718
     13  CB        -7.4330   -2.1160   27.5220 C.3     9  ASP9        0.1424
     14  CG        -7.0960   -0.8770   26.7360 C.2     9  ASP9        0.3668
     15  OD1       -6.6650    0.0720   27.3800 O.co2   9  ASP9       -0.2456
     16  OD2       -7.2030   -0.9120   25.4770 O.co2   9  ASP9       -0.2456
     17  N         -6.4910   -3.7680   30.3010 N.am   10  GLY10      -0.1957
     18  CA        -6.8590   -4.8400   31.2490 C.3    10  GLY10       0.1869
     19  C         -5.8170   -5.8560   31.5630 C.2    10  GLY10       0.2309
     20  O         -6.0620   -6.7200   32.4060 O.2    10  GLY10      -0.2863
     21  N         -7.1010    0.0610   32.4510 N.3    15  PHE15      -0.1227
     22  CA        -8.2610    0.7610   31.8950 C.3    15  PHE15       0.1736
     23  C         -9.3200    0.9870   33.0030 C.2    15  PHE15       0.2595
     24  O         -9.8260    2.0920   33.1400 O.2    15  PHE15      -0.2718
     25  CB        -8.8340   -0.0560   30.7360 C.3    15  PHE15       0.0547
     26  CG       -10.0840    0.5380   30.1180 C.ar   15  PHE15      -0.0202
     27  CD1      -11.3270    0.3330   30.6930 C.ar   15  PHE15      -0.0042
     28  CD2      -10.0070    1.3110   28.9800 C.ar   15  PHE15      -0.0042
     29  CE1      -12.4530    0.9070   30.1320 C.ar   15  PHE15      -0.0003
     30  CE2      -11.1400    1.8750   28.3950 C.ar   15  PHE15      -0.0003
     31  CZ       -12.3590    1.6830   28.9810 C.ar   15  PHE15      -0.0000
     32  N         -9.6730   -0.0260   33.7670 N.am   16  GLU16      -0.1979
     33  CA       -10.7460    0.0810   34.7870 C.3    16  GLU16       0.1602
     34  C        -10.4300    1.1030   35.8550 C.2    16  GLU16       0.2287
     35  O        -11.2250    1.9210   36.2150 O.2    16  GLU16      -0.2864
     36  CB       -10.9820   -1.3010   35.3970 C.3    16  GLU16       0.0415
     37  CG       -11.6940   -2.2600   34.4200 C.3    16  GLU16       0.1163
     38  CD       -13.1870   -1.9920   34.2960 C.2    16  GLU16       0.3649
     39  OE1      -13.7680   -1.4180   35.2000 O.co2  16  GLU16      -0.2457
     40  OE2      -13.7730   -2.1980   33.2060 O.co2  16  GLU16      -0.2457
     41  N        -10.5750    4.5630   34.3390 N.3    19  LEU19      -0.1245
     42  CA       -11.9120    4.9770   34.0760 C.3    19  LEU19       0.1561
     43  C        -12.5690    5.5100   35.3650 C.2    19  LEU19       0.2260
     44  O        -13.0990    6.6250   35.3710 O.2    19  LEU19      -0.2867
     45  CB       -12.7140    3.8350   33.4600 C.3    19  LEU19       0.0270
     46  CG       -14.1510    4.1660   33.0590 C.3    19  LEU19       0.0019
     47  CD1      -14.1370    5.2450   31.9750 C.3    19  LEU19       0.0001
     48  CD2      -14.8840    2.9190   32.5680 C.3    19  LEU19       0.0001
     49  N        -17.8290   -7.2390   31.1340 N.3    41  PHE41      -0.1227
     50  CA       -16.7240   -6.5480   30.4210 C.3    41  PHE41       0.1736
     51  C        -17.0190   -5.0650   30.1730 C.2    41  PHE41       0.2595
     52  O        -16.1300   -4.2180   30.2740 O.2    41  PHE41      -0.2718
     53  CB       -16.5130   -7.2510   29.0690 C.3    41  PHE41       0.0547
     54  CG       -15.3590   -6.7020   28.2830 C.ar   41  PHE41      -0.0202
     55  CD1      -14.0470   -6.9450   28.7010 C.ar   41  PHE41      -0.0042
     56  CD2      -15.5730   -5.9560   27.1400 C.ar   41  PHE41      -0.0042
     57  CE1      -12.9810   -6.4700   27.9570 C.ar   41  PHE41      -0.0003
     58  CE2      -14.5100   -5.4460   26.4180 C.ar   41  PHE41      -0.0003
     59  CZ       -13.2230   -5.6860   26.8360 C.ar   41  PHE41      -0.0000
     60  N        -18.2490   -4.7660   29.7530 N.am   42  LEU42      -0.1966
     61  CA       -18.5830   -3.4170   29.2920 C.3    42  LEU42       0.1728
     62  C        -18.9200   -2.5000   30.4670 C.2    42  LEU42       0.2616
     63  O        -20.0700   -2.4520   30.9860 O.2    42  LEU42      -0.2715
     64  CB       -19.7720   -3.4920   28.3170 C.3    42  LEU42       0.0311
     65  CG       -19.4500   -4.2830   27.0450 C.3    42  LEU42       0.0022
     66  CD1      -20.7610   -4.6930   26.2940 C.3    42  LEU42       0.0001
     67  CD2      -18.4660   -3.4840   26.2000 C.3    42  LEU42       0.0001
     68  N        -17.9420   -1.7360   30.9170 N.am   43  ALA43      -0.1963
     69  CA       -18.2170   -0.8230   32.0260 C.3    43  ALA43       0.1728
     70  C        -19.3300    0.1620   31.8070 C.2    43  ALA43       0.2616
     71  O        -20.0720    0.4540   32.7490 O.2    43  ALA43      -0.2715
     72  CB       -16.9530   -0.0580   32.3650 C.3    43  ALA43       0.0334
     73  N        -19.4370    0.6860   30.5690 N.am   44  ARG44      -0.1963
     74  CA       -20.4210    1.7130   30.2930 C.3    44  ARG44       0.1729
     75  C        -21.8150    1.1750   30.6180 C.2    44  ARG44       0.2616
     76  O        -22.6840    1.8900   31.0890 O.2    44  ARG44      -0.2715
     77  CB       -20.3570    2.1370   28.8450 C.3    44  ARG44       0.0348
     78  CG       -21.2360    3.3130   28.5450 C.3    44  ARG44       0.0492
     79  CD       -21.2700    3.5770   27.0550 C.3    44  ARG44       0.2205
     80  NE       -21.9490    4.8120   26.8210 N.pl3  44  ARG44      -0.0865
     81  CZ       -22.0030    5.3860   25.6370 C.cat  44  ARG44       0.5346
     82  NH1      -22.6310    6.5720   25.5140 N.pl3  44  ARG44       0.1354
     83  NH2      -21.3960    4.7790   24.5910 N.pl3  44  ARG44       0.1354
     84  N        -22.0160   -0.1070   30.3490 N.am   45  GLU45      -0.1977
     85  CA       -23.3780   -0.6560   30.5140 C.3    45  GLU45       0.1602
     86  C        -23.7170   -0.9110   31.9860 C.2    45  GLU45       0.2287
     87  O        -24.8900   -0.8240   32.3620 O.2    45  GLU45      -0.2864
     88  CB       -23.5450   -1.9040   29.6400 C.3    45  GLU45       0.0415
     89  CG       -23.1860   -1.7010   28.1670 C.3    45  GLU45       0.1163
     90  CD       -23.8670   -0.5220   27.5800 C.2    45  GLU45       0.3649
     91  OE1      -23.1960    0.3060   26.9300 O.co2  45  GLU45      -0.2457
     92  OE2      -25.1190   -0.3480   27.8090 O.co2  45  GLU45      -0.2457
     93  N        -13.5120    8.0340   28.8430 N.3    62  TYR62      -0.1241
     94  CA       -12.5860    7.2140   28.0110 C.3    62  TYR62       0.1605
     95  C        -12.3890    7.7730   26.5880 C.2    62  TYR62       0.2264
     96  O        -11.4440    7.3750   25.8970 O.2    62  TYR62      -0.2867
     97  CB       -12.9140    5.7300   28.0300 C.3    62  TYR62       0.0534
     98  CG       -14.2730    5.3330   27.4600 C.ar   62  TYR62      -0.0201
     99  CD1      -14.5360    5.4560   26.0990 C.ar   62  TYR62      -0.0009
    100  CD2      -15.2260    4.7040   28.2620 C.ar   62  TYR62      -0.0009
    101  CE1      -15.7690    5.0220   25.5590 C.ar   62  TYR62       0.0417
    102  CE2      -16.4470    4.2850   27.7630 C.ar   62  TYR62       0.0417
    103  CZ       -16.7230    4.4230   26.4150 C.ar   62  TYR62       0.1957
    104  OH       -17.9210    3.9600   25.9040 O.3    62  TYR62      -0.2866
    105  N         -5.9860    7.4000   27.4940 N.3    68  PHE68      -0.1241
    106  CA        -5.0960    6.2520   27.2760 C.3    68  PHE68       0.1605
    107  C         -3.6620    6.5540   27.6650 C.2    68  PHE68       0.2264
    108  O         -3.0050    5.7080   28.2840 O.2    68  PHE68      -0.2867
    109  CB        -5.2290    5.7780   25.8380 C.3    68  PHE68       0.0534
    110  CG        -6.5370    5.0220   25.5740 C.ar   68  PHE68      -0.0203
    111  CD1       -6.6680    3.6800   25.9920 C.ar   68  PHE68      -0.0042
    112  CD2       -7.6600    5.6340   25.0090 C.ar   68  PHE68      -0.0042
    113  CE1       -7.8340    2.9720   25.8090 C.ar   68  PHE68      -0.0003
    114  CE2       -8.8640    4.9310   24.9150 C.ar   68  PHE68      -0.0003
    115  CZ        -8.9200    3.5920   25.2780 C.ar   68  PHE68      -0.0000
    116  N         -3.9170   -5.3570   20.5590 N.3    96  THR96      -0.1203
    117  CA        -4.8260   -4.4250   21.2340 C.3    96  THR96       0.1994
    118  C         -5.8790   -3.8800   20.2730 C.2    96  THR96       0.2619
    119  O         -5.5630   -3.6210   19.0780 O.2    96  THR96      -0.2717
    120  CB        -4.0000   -3.2630   21.8750 C.3    96  THR96       0.1784
    121  OG1       -4.8000   -2.2510   22.4240 O.3    96  THR96      -0.2211
    122  CG2       -2.9660   -2.6300   20.9220 C.3    96  THR96       0.0376
    123  N         -7.1220   -3.7740   20.7620 N.am   97  SER97      -0.1938
    124  CA        -8.2040   -3.2320   19.9320 C.3    97  SER97       0.2040
    125  C         -8.4620   -1.8060   20.2990 C.2    97  SER97       0.2485
    126  O         -8.7700   -1.5150   21.4610 O.2    97  SER97      -0.2729
    127  CB        -9.5120   -4.0160   20.1220 C.3    97  SER97       0.2129
    128  OG        -9.3490   -5.3630   19.7440 O.3    97  SER97      -0.2179
    129  N         -8.3810   -0.8810   19.3170 N.am   98  PRO98      -0.2715
    130  CA        -8.7200    0.4750   19.6030 C.3    98  PRO98       0.1536
    131  C        -10.2050    0.7370   19.6420 C.2    98  PRO98       0.2598
    132  O        -10.9730   -0.0490   19.0900 O.2    98  PRO98      -0.2715
    133  CB        -8.1060    1.2210   18.4200 C.3    98  PRO98       0.0310
    134  CG        -8.2740    0.2940   17.2570 C.3    98  PRO98       0.0237
    135  CD        -8.0860   -1.0940   17.8610 C.3    98  PRO98       0.0939
    136  N        -10.5890    1.8310   20.3040 N.am   99  LEU99      -0.1964
    137  CA       -11.9740    2.3320   20.2530 C.3    99  LEU99       0.1728
    138  C        -12.3880    2.6510   18.8260 C.2    99  LEU99       0.2616
    139  O        -11.5730    3.0850   18.0180 O.2    99  LEU99      -0.2715
    140  CB       -12.1340    3.6520   21.0090 C.3    99  LEU99       0.0311
    141  CG       -11.8070    3.6800   22.5040 C.3    99  LEU99       0.0022
    142  CD1      -12.0930    5.0930   23.0270 C.3    99  LEU99       0.0001
    143  CD2      -12.6160    2.6100   23.2320 C.3    99  LEU99       0.0001
    144  N        -13.6760    2.4940   18.5760 N.am  100  LEU100     -0.1963
    145  CA       -14.2780    3.0790   17.3800 C.3   100  LEU100      0.1728
    146  C        -13.9970    4.6050   17.2650 C.2   100  LEU100      0.2616
    147  O        -13.5870    5.0600   16.1890 O.2   100  LEU100     -0.2715
    148  CB       -15.7900    2.7820   17.2890 C.3   100  LEU100      0.0311
    149  CG       -16.1760    1.3070   17.2400 C.3   100  LEU100      0.0022
    150  CD1      -17.7050    1.0970   17.4010 C.3   100  LEU100      0.0001
    151  CD2      -15.6070    0.6710   15.9450 C.3   100  LEU100      0.0001
    152  N        -14.1340    5.3810   18.3560 N.am  101  LYS101     -0.1977
    153  CA       -13.7180    6.7770   18.3710 C.3   101  LYS101      0.1596
    154  C        -12.2030    6.7040   18.5870 C.2   101  LYS101      0.2287
    155  O        -11.6990    6.7820   19.6860 O.2   101  LYS101     -0.2864
    156  CB       -14.4100    7.5910   19.4840 C.3   101  LYS101      0.0298
    157  CG       -15.8980    7.8920   19.2140 C.3   101  LYS101      0.0038
    158  CD       -16.0740    8.8950   18.0610 C.3   101  LYS101      0.0206
    159  CE       -16.9820    8.3750   16.9160 C.3   101  LYS101      0.1093
    160  NZ       -16.3150    7.4940   15.8820 N.3   101  LYS101     -0.1314
    161  N         -9.2850   -4.7320   15.5100 N.3   129  ARG129     -0.1245
    162  CA       -10.5820   -5.0300   16.1610 C.3   129  ARG129      0.1563
    163  C        -10.9150   -6.5230   16.1520 C.2   129  ARG129      0.2260
    164  O        -11.9580   -6.9440   16.7170 O.2   129  ARG129     -0.2867
    165  CB       -11.6900   -4.2910   15.4770 C.3   129  ARG129      0.0307
    166  CG       -11.6160   -2.8100   15.4860 C.3   129  ARG129      0.0489
    167  CD       -12.1760   -2.1570   16.6580 C.3   129  ARG129      0.2205
    168  NE       -13.6350   -2.3010   16.8370 N.pl3 129  ARG129     -0.0865
    169  CZ       -14.3030   -1.7020   17.8320 C.cat 129  ARG129      0.5346
    170  NH1      -15.6220   -1.8410   18.0040 N.pl3 129  ARG129      0.1354
    171  NH2      -13.6670   -0.9000   18.6650 N.pl3 129  ARG129      0.1354
    172  N         -8.9870  -10.0240   16.8940 N.3   131  LYS131     -0.1245
    173  CA        -7.8130  -10.7710   17.2850 C.3   131  LYS131      0.1561
    174  C         -7.7520  -12.2090   16.7370 C.2   131  LYS131      0.2260
    175  O         -6.7000  -12.7850   16.7780 O.2   131  LYS131     -0.2867
    176  CB        -7.6510  -10.7420   18.8210 C.3   131  LYS131      0.0271
    177  CG        -7.6700   -9.3040   19.3630 C.3   131  LYS131      0.0035
    178  CD        -7.2550   -9.1520   20.8020 C.3   131  LYS131      0.0206
    179  CE        -7.3670   -7.7240   21.2720 C.3   131  LYS131      0.1093
    180  NZ        -6.9510   -7.5100   22.7100 N.3   131  LYS131     -0.1314
    181  N         -5.6930  -12.2290   27.6920 N.3   141  ASP141     -0.1225
    182  CA        -6.6700  -11.1630   27.4840 C.3   141  ASP141      0.1805
    183  C         -7.7710  -11.2730   28.5660 C.2   141  ASP141      0.2598
    184  O         -8.1980  -12.3710   28.8890 O.2   141  ASP141     -0.2718
    185  CB        -7.2410  -11.3540   26.0390 C.3   141  ASP141      0.1424
    186  CG        -8.0550  -10.1850   25.5530 C.2   141  ASP141      0.3668
    187  OD1       -9.0020   -9.8020   26.2250 O.co2 141  ASP141     -0.2456
    188  OD2       -7.7560   -9.6790   24.4540 O.co2 141  ASP141     -0.2456
    189  N         -8.2580  -10.1530   29.0780 N.am  142  ASP142     -0.1960
    190  CA        -9.2710  -10.1440   30.1300 C.3   142  ASP142      0.1840
    191  C        -10.7020  -10.2240   29.6420 C.2   142  ASP142      0.2621
    192  O        -11.6450  -10.2850   30.4670 O.2   142  ASP142     -0.2715
    193  CB        -9.1230   -8.8900   31.0230 C.3   142  ASP142      0.1450
    194  CG        -9.3210   -7.5690   30.2100 C.2   142  ASP142      0.3671
    195  OD1       -8.5850   -7.4630   29.1710 O.co2 142  ASP142     -0.2456
    196  OD2      -10.1490   -6.7250   30.6600 O.co2 142  ASP142     -0.2456
    197  N        -10.9640  -10.1300   28.3470 N.am  143  LYS143     -0.1977
    198  CA       -12.3330  -10.2420   27.8700 C.3   143  LYS143      0.1596
    199  C        -12.8170  -11.6980   28.0160 C.2   143  LYS143      0.2287
    200  O        -12.0570  -12.6380   27.7620 O.2   143  LYS143     -0.2864
    201  CB       -12.4310   -9.7550   26.4080 C.3   143  LYS143      0.0298
    202  CG       -13.8450   -9.5630   25.8810 C.3   143  LYS143      0.0038
    203  CD       -13.7500   -8.8380   24.5370 C.3   143  LYS143      0.0206
    204  CE       -15.1110   -8.4680   23.9980 C.3   143  LYS143      0.1093
    205  NZ       -15.8150   -9.6850   23.5370 N.3   143  LYS143     -0.1314
    206  N        -13.8350   -7.3530   36.8930 N.3   162  HIS162     -0.1241
    207  CA       -15.0560   -7.5580   36.0880 C.3   162  HIS162      0.1621
    208  C        -15.3690   -8.9920   35.6450 C.2   162  HIS162      0.2264
    209  O        -16.5160   -9.2770   35.2860 O.2   162  HIS162     -0.2867
    210  CB       -15.0720   -6.6080   34.8860 C.3   162  HIS162      0.0745
    211  CG       -14.1000   -6.9650   33.7990 C.ar  162  HIS162      0.0817
    212  ND1      -14.2890   -8.0350   32.9400 N.ar  162  HIS162     -0.2268
    213  CD2      -12.9240   -6.3830   33.4330 C.ar  162  HIS162      0.1154
    214  CE1      -13.2460   -8.1130   32.1130 C.ar  162  HIS162      0.1986
    215  NE2      -12.4040   -7.1240   32.3910 N.ar  162  HIS162     -0.2212
@<TRIPOS>BOND
     1   165   166    1
     2   165   162    1
     3   166   167    1
     4   161   162    1
     5   160   159    1
     6   151   149    1
     7   163   162    1
     8   163   164    2
     9   147   146    2
    10   167   168    1
    11   174   175    2
    12   174   173    1
    13   168   169    2
    14   172   173    1
    15   159   158    1
    16   149   148    1
    17   149   150    1
    18   134   135    1
    19   134   133    1
    20   146   145    1
    21   146   152   am
    22   173   176    1
    23   148   145    1
    24   145   144    1
    25   169   170    1
    26   169   171    1
    27   135   129    1
    28   139   138    2
    29   158   157    1
    30   152   153    1
    31   153   154    1
    32   153   156    1
    33   133   130    1
    34   144   138   am
    35   154   155    2
    36   176   177    1
    37   138   137    1
    38   119   118    2
    39   132   131    2
    40   157   156    1
    41   129   130    1
    42   129   125   am
    43   177   178    1
    44   130   131    1
    45   131   136   am
    46   128   127    1
    47   124   127    1
    48   124   125    1
    49   124   123    1
    50   137   136    1
    51   137   140    1
    52   118   123   am
    53   118   117    1
    54   125   126    2
    55   116   117    1
    56   178   179    1
    57   122   120    1
    58   140   141    1
    59   117   120    1
    60   179   180    1
    61   120   121    1
    62   141   142    1
    63   141   143    1
    64   205   204    1
    65   204   203    1
    66   188   186   ar
    67   203   202    1
    68    83    81    1
    69   114   112   ar
    70   114   115   ar
    71   112   110   ar
    72   115   113   ar
    73     7     6   ar
    74     2     1    1
    75     2     5    1
    76     2     3    1
    77    16    14   ar
    78    82    81    1
    79   186   185    1
    80   186   187   ar
    81   101    99   ar
    82   101   103   ar
    83   110   109    1
    84   110   111   ar
    85    81    80    2
    86   113   111   ar
    87   109   106    1
    88   202   201    1
    89    96    95    2
    90   104   103    1
    91   185   182    1
    92     5     6    1
    93    99    98   ar
    94     6     8   ar
    95     3     4    2
    96    67    65    1
    97    66    65    1
    98   201   198    1
    99   103   102   ar
   100    58    59   ar
   101    58    56   ar
   102    95    94    1
   103    14    15   ar
   104    14    13    1
   105    80    79    1
   106    59    57   ar
   107    91    90   ar
   108    65    64    1
   109    79    78    1
   110     9    10    1
   111    56    54   ar
   112   106   105    1
   113   106   107    1
   114    98    97    1
   115    98   100   ar
   116   182   181    1
   117   182   183    1
   118    13    10    1
   119    90    92   ar
   120    90    89    1
   121   107   108    2
   122   200   199    2
   123   102   100   ar
   124   198   199    1
   125   198   197    1
   126    57    55   ar
   127    94    97    1
   128    94    93    1
   129    10    11    1
   130    89    88    1
   131    54    55   ar
   132    54    53    1
   133    64    61    1
   134   197   191   am
   135    30    28   ar
   136    30    31   ar
   137    12    11    2
   138    78    77    1
   139   183   184    2
   140   183   189   am
   141    77    74    1
   142    11    17   am
   143    28    26   ar
   144    31    29   ar
   145    53    50    1
   146   189   190    1
   147   195   194   ar
   148    61    60    1
   149    61    62    1
   150    88    85    1
   151   191   190    1
   152   191   192    2
   153    60    51   am
   154    26    27   ar
   155    26    25    1
   156   190   193    1
   157    29    27   ar
   158    51    52    2
   159    51    50    1
   160   194   196   ar
   161   194   193    1
   162    74    73    1
   163    74    75    1
   164    17    18    1
   165    84    85    1
   166    84    75   am
   167    50    49    1
   168    62    68   am
   169    62    63    2
   170    85    86    1
   171    73    70   am
   172    75    76    2
   173    25    22    1
   174    68    69    1
   175    18    19    1
   176    19    20    2
   177    70    69    1
   178    70    71    2
   179    22    21    1
   180    22    23    1
   181    47    46    1
   182    86    87    2
   183    69    72    1
   184   214   215   ar
   185   214   212   ar
   186   215   213   ar
   187    48    46    1
   188   212   211   ar
   189    23    24    2
   190    23    32   am
   191    46    45    1
   192    40    38   ar
   193   213   211   ar
   194    45    42    1
   195    32    33    1
   196   211   210    1
   197    42    41    1
   198    42    43    1
   199    38    37    1
   200    38    39   ar
   201    37    36    1
   202    33    36    1
   203    33    34    1
   204   210   207    1
   205   209   208    2
   206    43    44    2
   207   208   207    1
   208    34    35    2
   209   207   206    1
