@<TRIPOS>MOLECULE
tmp/6g31C00.pdb
 156 143 0 0 0
SMALL
GASTEIGER

@<TRIPOS>ATOM
      1  N         70.3880   14.9510   32.5140 N.3    25  ARG25      -0.1245
      2  CA        70.6700   14.1310   31.3390 C.3    25  ARG25       0.1563
      3  C         69.8100   14.5580   30.1510 C.2    25  ARG25       0.2260
      4  O         70.3100   14.6700   29.0220 O.2    25  ARG25      -0.2867
      5  CB        70.4670   12.6470   31.6610 C.3    25  ARG25       0.0307
      6  CG        71.2980   12.1660   32.8180 C.3    25  ARG25       0.0489
      7  CD        70.9690   10.7260   33.1800 C.3    25  ARG25       0.2205
      8  NE        71.7140   10.3350   34.3690 N.pl3  25  ARG25      -0.0865
      9  CZ        72.9770    9.9280   34.3590 C.cat  25  ARG25       0.5346
     10  NH1       73.6500    9.8380   33.2200 N.pl3  25  ARG25       0.1354
     11  NH2       73.5800    9.6430   35.5020 N.pl3  25  ARG25       0.1354
     12  N         67.7280    5.1770   32.8610 N.3    54  HIS54      -0.1241
     13  CA        68.3230    5.8860   33.9770 C.3    54  HIS54       0.1621
     14  C         67.5550    5.6380   35.2610 C.2    54  HIS54       0.2264
     15  O         68.1370    5.2530   36.2780 O.2    54  HIS54      -0.2867
     16  CB        68.3380    7.3680   33.6670 C.3    54  HIS54       0.0745
     17  CG        68.7920    8.1940   34.8100 C.ar   54  HIS54       0.0817
     18  ND1       70.0350    8.0410   35.3800 N.ar   54  HIS54      -0.2268
     19  CD2       68.1530    9.1450   35.5300 C.ar   54  HIS54       0.1154
     20  CE1       70.1590    8.8940   36.3800 C.ar   54  HIS54       0.1986
     21  NE2       69.0260    9.5650   36.5020 N.ar   54  HIS54      -0.2212
     22  N         67.8100    1.9940   36.5400 N.3    57  SER57      -0.1202
     23  CA        69.1300    1.7560   37.1120 C.3    57  SER57       0.2020
     24  C         69.2380    2.4130   38.4660 C.2    57  SER57       0.2618
     25  O         69.8120    1.8500   39.3950 O.2    57  SER57      -0.2717
     26  CB        70.2000    2.2940   36.1720 C.3    57  SER57       0.2103
     27  OG        70.0670    3.6950   36.0980 O.3    57  SER57      -0.2182
     28  N         68.6530    3.5950   38.5900 N.am   58  LEU58      -0.1979
     29  CA        68.6340    4.3440   39.8310 C.3    58  LEU58       0.1596
     30  C         67.8090    3.6510   40.9200 C.2    58  LEU58       0.2287
     31  O         68.1980    3.6500   42.0960 O.2    58  LEU58      -0.2864
     32  CB        68.1180    5.7240   39.4800 C.3    58  LEU58       0.0297
     33  CG        68.3460    6.9070   40.3650 C.3    58  LEU58       0.0022
     34  CD1       68.8110    8.0910   39.5340 C.3    58  LEU58       0.0001
     35  CD2       66.9710    7.1510   40.8930 C.3    58  LEU58       0.0001
     36  N         70.0390    1.0120   42.1080 N.3    61  ASP61      -0.1239
     37  CA        71.1490    1.6090   42.8450 C.3    61  ASP61       0.1674
     38  C         70.7970    1.8740   44.2870 C.2    61  ASP61       0.2266
     39  O         71.6150    1.6240   45.1740 O.2    61  ASP61      -0.2867
     40  CB        71.5960    2.9380   42.2230 C.3    61  ASP61       0.1410
     41  CG        72.6800    3.6640   43.0680 C.2    61  ASP61       0.3668
     42  OD1       73.8900    3.3200   42.9410 O.co2  61  ASP61      -0.2456
     43  OD2       72.3090    4.5580   43.8730 O.co2  61  ASP61      -0.2456
     44  N         73.1670    0.4640   46.9720 N.3    65  ASP65      -0.1239
     45  CA        73.8250    1.4570   47.8000 C.3    65  ASP65       0.1674
     46  C         73.2100    1.5560   49.1840 C.2    65  ASP65       0.2266
     47  O         73.7200    2.3080   50.0160 O.2    65  ASP65      -0.2867
     48  CB        73.8220    2.8060   47.0920 C.3    65  ASP65       0.1410
     49  CG        74.7230    2.8110   45.8780 C.2    65  ASP65       0.3668
     50  OD1       74.9460    3.8900   45.3170 O.co2  65  ASP65      -0.2456
     51  OD2       75.2090    1.7350   45.4810 O.co2  65  ASP65      -0.2456
     52  N         70.6560    3.0740   50.2230 N.3    67  SER67      -0.1217
     53  CA        70.2610    4.4540   50.4440 C.3    67  SER67       0.1889
     54  C         68.9380    4.5390   51.2090 C.2    67  SER67       0.2288
     55  O         68.1250    3.6050   51.2240 O.2    67  SER67      -0.2866
     56  CB        70.1490    5.1910   49.1050 C.3    67  SER67       0.2089
     57  OG        71.3790    5.1740   48.3840 O.3    67  SER67      -0.2183
     58  N         66.1200    9.6850   48.2380 N.3    70  ARG70      -0.1245
     59  CA        66.4480   10.0020   46.8560 C.3    70  ARG70       0.1563
     60  C         65.6000   11.1870   46.4100 C.2    70  ARG70       0.2260
     61  O         64.3640   11.1240   46.4150 O.2    70  ARG70      -0.2867
     62  CB        66.2250    8.7810   45.9660 C.3    70  ARG70       0.0307
     63  CG        66.5310    9.0510   44.5340 C.3    70  ARG70       0.0489
     64  CD        67.5300    8.0380   43.9890 C.3    70  ARG70       0.2205
     65  NE        68.8330    8.1030   44.6420 N.pl3  70  ARG70      -0.0865
     66  CZ        69.9850    7.7650   44.0750 C.cat  70  ARG70       0.5346
     67  NH1       71.1100    7.8670   44.7780 N.pl3  70  ARG70       0.1354
     68  NH2       70.0210    7.3720   42.8100 N.pl3  70  ARG70       0.1354
     69  N         77.3890   -0.1060   31.5570 N.3   119  LEU119     -0.1245
     70  CA        76.8800    0.4060   32.8200 C.3   119  LEU119      0.1561
     71  C         77.0360   -0.6250   33.9280 C.2   119  LEU119      0.2260
     72  O         77.5250   -0.3180   35.0240 O.2   119  LEU119     -0.2867
     73  CB        75.4120    0.8120   32.6720 C.3   119  LEU119      0.0270
     74  CG        74.7100    1.1490   33.9900 C.3   119  LEU119      0.0019
     75  CD1       74.7620    2.6300   34.3160 C.3   119  LEU119      0.0001
     76  CD2       73.2710    0.6710   33.9320 C.3   119  LEU119      0.0001
     77  N         79.0070   -0.2430   37.5910 N.3   123  GLN123     -0.1245
     78  CA        78.3780   -0.4100   38.9060 C.3   123  GLN123      0.1566
     79  C         78.9470   -1.6050   39.6540 C.2   123  GLN123      0.2260
     80  O         79.2600   -1.5150   40.8480 O.2   123  GLN123     -0.2867
     81  CB        76.8600   -0.5240   38.7890 C.3   123  GLN123      0.0367
     82  CG        76.1210    0.2060   39.9410 C.3   123  GLN123      0.0905
     83  CD        76.2040    1.7310   39.8710 C.2   123  GLN123      0.2608
     84  OE1       75.8200    2.2960   38.8850 O.2   123  GLN123     -0.2717
     85  NE2       76.6640    2.3880   40.9280 N.am  123  GLN123     -0.0878
     86  N         80.1970    3.4040   34.1990 N.3   148  LYS148     -0.1231
     87  CA        78.9700    3.5630   34.9720 C.3   148  LYS148      0.1693
     88  C         78.1850    4.7930   34.5230 C.2   148  LYS148      0.2592
     89  O         77.0030    4.6900   34.1900 O.2   148  LYS148     -0.2718
     90  CB        79.2830    3.5410   36.4790 C.3   148  LYS148      0.0285
     91  CG        79.2650    4.8410   37.2180 C.3   148  LYS148      0.0035
     92  CD        79.1460    4.6210   38.7150 C.3   148  LYS148      0.0206
     93  CE        78.8550    5.9510   39.4200 C.3   148  LYS148      0.1093
     94  NZ        77.6630    6.6940   38.8290 N.3   148  LYS148     -0.1314
     95  N         78.7940    5.9710   34.5250 N.am  149  THR149     -0.1953
     96  CA        78.0630    7.0960   33.9640 C.3   149  THR149      0.1897
     97  C         78.2760    7.2210   32.4670 C.2   149  THR149      0.2313
     98  O         77.4850    7.8850   31.7930 O.2   149  THR149     -0.2863
     99  CB        78.4120    8.4120   34.6520 C.3   149  THR149      0.1794
    100  OG1       79.5280    9.0110   33.9970 O.3   149  THR149     -0.2208
    101  CG2       78.7170    8.1820   36.1190 C.3   149  THR149      0.0378
    102  N         80.3140   12.7790   37.5370 N.3   182  GLN182     -0.1245
    103  CA        80.5470   11.8870   38.6670 C.3   182  GLN182      0.1566
    104  C         81.3550   12.5680   39.7520 C.2   182  GLN182      0.2260
    105  O         81.0000   12.4760   40.9220 O.2   182  GLN182     -0.2867
    106  CB        81.2430   10.6090   38.2070 C.3   182  GLN182      0.0367
    107  CG        81.0800    9.4330   39.1550 C.3   182  GLN182      0.0905
    108  CD        79.6600    9.2660   39.6520 C.2   182  GLN182      0.2608
    109  OE1       79.1460   10.1090   40.3790 O.2   182  GLN182     -0.2717
    110  NE2       79.0220    8.1690   39.2660 N.am  182  GLN182     -0.0878
    111  N         78.9770   15.0960   41.5610 N.3   185  TYR185     -0.1227
    112  CA        78.1190   14.5020   42.5840 C.3   185  TYR185      0.1736
    113  C         78.9250   14.0620   43.8000 C.2   185  TYR185      0.2595
    114  O         78.5280   14.3130   44.9480 O.2   185  TYR185     -0.2718
    115  CB        77.3600   13.3080   41.9990 C.3   185  TYR185      0.0548
    116  CG        76.4080   12.6410   42.9550 C.ar  185  TYR185     -0.0200
    117  CD1       75.3300   13.3150   43.4780 C.ar  185  TYR185     -0.0009
    118  CD2       76.5880   11.3550   43.3470 C.ar  185  TYR185     -0.0009
    119  CE1       74.4420   12.7280   44.3670 C.ar  185  TYR185      0.0417
    120  CE2       75.7140   10.7500   44.2510 C.ar  185  TYR185      0.0417
    121  CZ        74.6400   11.4150   44.7060 C.ar  185  TYR185      0.1957
    122  OH        73.7880   10.7840   45.6120 O.3   185  TYR185     -0.2866
    123  N         80.0620   13.3990   43.5600 N.am  186  ASP186     -0.1974
    124  CA        80.8900   12.8620   44.6360 C.3   186  ASP186      0.1709
    125  C         81.4640   13.9530   45.5190 C.2   186  ASP186      0.2293
    126  O         81.5790   13.7840   46.7380 O.2   186  ASP186     -0.2864
    127  CB        81.9630   11.9630   44.0450 C.3   186  ASP186      0.1436
    128  CG        81.3910   10.6310   43.5830 C.2   186  ASP186      0.3671
    129  OD1       82.1420    9.7930   43.0610 O.co2 186  ASP186     -0.2456
    130  OD2       80.1710   10.4310   43.6970 O.co2 186  ASP186     -0.2456
    131  N         69.6770   14.2660   48.7810 N.3   193  ASN193     -0.1240
    132  CA        69.2890   12.8640   48.8600 C.3   193  ASN193      0.1653
    133  C         69.1940   12.3960   50.3080 C.2   193  ASN193      0.2266
    134  O         68.2050   12.6590   50.9890 O.2   193  ASN193     -0.2867
    135  CB        70.2680   11.9930   48.0690 C.3   193  ASN193      0.1155
    136  CG        70.1680   12.1790   46.5760 C.2   193  ASN193      0.2627
    137  OD1       69.1250   12.6520   46.0530 O.2   193  ASN193     -0.2716
    138  ND2       71.2120   11.8400   45.8560 N.am  193  ASN193     -0.0877
    139  N         77.4750    4.7540   53.2320 N.3   202  GLU202     -0.1245
    140  CA        77.4780    3.7130   52.2140 C.3   202  GLU202      0.1567
    141  C         78.7600    2.8860   52.2860 C.2   202  GLU202      0.2260
    142  O         78.7410    1.6900   51.9810 O.2   202  GLU202     -0.2867
    143  CB        77.2960    4.3170   50.8100 C.3   202  GLU202      0.0388
    144  CG        77.2240    3.3060   49.6960 C.3   202  GLU202      0.1160
    145  CD        77.1520    3.9010   48.3080 C.2   202  GLU202      0.3649
    146  OE1       76.7380    5.0490   48.1460 O.co2 202  GLU202     -0.2457
    147  OE2       77.4100    3.1210   47.3630 O.co2 202  GLU202     -0.2457
    148  N         81.2630    3.6790   50.3690 N.3   204  LYS204     -0.1245
    149  CA        81.7500    3.7910   49.0140 C.3   204  LYS204      0.1561
    150  C         83.0700    4.5430   49.0410 C.2   204  LYS204      0.2260
    151  O         83.3120    5.4010   49.8980 O.2   204  LYS204     -0.2867
    152  CB        80.7110    4.5400   48.1570 C.3   204  LYS204      0.0271
    153  CG        81.0730    4.7560   46.6950 C.3   204  LYS204      0.0035
    154  CD        80.0080    5.6330   46.0480 C.3   204  LYS204      0.0206
    155  CE        80.2820    5.9240   44.5910 C.3   204  LYS204      0.1093
    156  NZ        79.2650    5.2770   43.7200 N.3   204  LYS204     -0.1314
@<TRIPOS>BOND
     1     4     3    2
     2     3     2    1
     3     2     5    1
     4     2     1    1
     5    69    70    1
     6     5     6    1
     7    98    97    2
     8    97    96    1
     9    73    70    1
    10    73    74    1
    11     6     7    1
    12    70    71    1
    13    12    13    1
    14     7     8    1
    15    10     9    1
    16    16    13    1
    17    16    17    1
    18    71    72    2
    19    76    74    1
    20    96    95    1
    21    96    99    1
    22    13    14    1
    23    74    75    1
    24   100    99    1
    25    89    88    2
    26    86    87    1
    27     9     8    2
    28     9    11    1
    29    88    95   am
    30    88    87    1
    31    99   101    1
    32    17    18   ar
    33    17    19   ar
    34    87    90    1
    35    14    15    2
    36    18    20   ar
    37    19    21   ar
    38    27    26    1
    39    26    23    1
    40    20    21   ar
    41    90    91    1
    42    22    23    1
    43    23    24    1
    44    91    92    1
    45   102   103    1
    46    77    78    1
    47   106   103    1
    48   106   107    1
    49    24    28   am
    50    24    25    2
    51    28    29    1
    52   103   104    1
    53    92    93    1
    54    81    78    1
    55    81    82    1
    56    94    93    1
    57    84    83    2
    58    78    79    1
    59   107   108    1
    60   110   108   am
    61    32    29    1
    62    32    33    1
    63    34    33    1
    64   108   109    2
    65    79    80    2
    66   104   105    2
    67    29    30    1
    68    83    82    1
    69    83    85   am
    70    33    35    1
    71    30    31    2
    72   111   112    1
    73   115   112    1
    74   115   116    1
    75    36    37    1
    76    40    37    1
    77    40    41    1
    78   112   113    1
    79    68    66    1
    80    37    38    1
    81    42    41   ar
    82   116   118   ar
    83   116   117   ar
    84   129   128   ar
    85    41    43   ar
    86   118   120   ar
    87   117   119   ar
    88   123   113   am
    89   123   124    1
    90   128   130   ar
    91   128   127    1
    92   156   155    1
    93   113   114    2
    94    64    63    1
    95    64    65    1
    96   127   124    1
    97    66    65    2
    98    66    67    1
    99   120   121   ar
   100    38    39    2
   101   119   121   ar
   102    63    62    1
   103   155   154    1
   104   124   125    1
   105   121   122    1
   106    50    49   ar
   107    51    49   ar
   108   125   126    2
   109   138   136   am
   110    49    48    1
   111    62    59    1
   112   154   153    1
   113   137   136    2
   114    60    61    2
   115    60    59    1
   116   136   135    1
   117   153   152    1
   118    59    58    1
   119    44    45    1
   120    48    45    1
   121   147   145   ar
   122    45    46    1
   123   135   132    1
   124   146   145   ar
   125   152   149    1
   126   145   144    1
   127    57    56    1
   128   131   132    1
   129   132   133    1
   130   149   150    1
   131   149   148    1
   132   150   151    2
   133    56    53    1
   134    46    47    2
   135   144   143    1
   136    52    53    1
   137   133   134    2
   138    53    54    1
   139   143   140    1
   140    54    55    2
   141   142   141    2
   142   140   141    1
   143   140   139    1
