@<TRIPOS>MOLECULE
tmp/6g33A00.pdb
 167 156 0 0 0
SMALL
GASTEIGER

@<TRIPOS>ATOM
      1  N         41.4250   46.6980   73.6230 N.3    22  LEU22      -0.1231
      2  CA        39.9790   46.5880   73.5020 C.3    22  LEU22       0.1693
      3  C         39.3160   47.8020   74.1230 C.2    22  LEU22       0.2593
      4  O         38.3180   48.2470   73.6520 O.2    22  LEU22      -0.2718
      5  CB        39.5050   45.3150   74.1750 C.3    22  LEU22       0.0284
      6  CG        39.9160   44.0280   73.4550 C.3    22  LEU22       0.0019
      7  CD1       39.8670   42.8650   74.4370 C.3    22  LEU22       0.0001
      8  CD2       39.0090   43.7410   72.2390 C.3    22  LEU22       0.0001
      9  N         39.8840   48.3330   75.2070 N.am   23  GLY23      -0.1942
     10  CA        39.3150   49.4400   75.8800 C.3    23  GLY23       0.2014
     11  C         40.1420   49.8600   77.0690 C.2    23  GLY23       0.2639
     12  O         41.1490   49.2300   77.4130 O.2    23  GLY23      -0.2714
     13  N         39.7590   50.9840   77.6440 N.am   24  GLU24      -0.1963
     14  CA        40.4940   51.6320   78.7280 C.3    24  GLU24       0.1733
     15  C         39.5090   52.1510   79.7630 C.2    24  GLU24       0.2616
     16  O         38.3360   52.4070   79.4420 O.2    24  GLU24      -0.2715
     17  CB        41.2730   52.8080   78.2130 C.3    24  GLU24       0.0429
     18  CG        42.3460   52.3970   77.2230 C.3    24  GLU24       0.1163
     19  CD        43.4050   53.4160   76.9230 C.2    24  GLU24       0.3649
     20  OE1       43.0080   54.5350   76.5970 O.co2  24  GLU24      -0.2457
     21  OE2       44.6060   53.0720   76.8960 O.co2  24  GLU24      -0.2457
     22  N         39.9790   52.2510   81.0010 N.am   25  GLY25      -0.1955
     23  CA        39.1790   52.8320   82.0890 C.3    25  GLY25       0.1869
     24  C         40.1280   53.5110   83.0500 C.2    25  GLY25       0.2309
     25  O         41.3100   53.5520   82.8200 O.2    25  GLY25      -0.2863
     26  N         41.0880   52.3200   85.7260 N.3    27  PHE27      -0.1241
     27  CA        41.8820   51.2550   86.2720 C.3    27  PHE27       0.1605
     28  C         43.1190   50.9150   85.4640 C.2    27  PHE27       0.2264
     29  O         43.9980   50.2240   85.9770 O.2    27  PHE27      -0.2867
     30  CB        41.0260   49.9820   86.4030 C.3    27  PHE27       0.0534
     31  CG        40.4640   49.4810   85.0740 C.ar   27  PHE27      -0.0203
     32  CD1       41.2640   48.7780   84.1990 C.ar   27  PHE27      -0.0042
     33  CD2       39.1300   49.7170   84.7280 C.ar   27  PHE27      -0.0042
     34  CE1       40.8040   48.3890   82.9590 C.ar   27  PHE27      -0.0003
     35  CE2       38.6170   49.2580   83.4920 C.ar   27  PHE27      -0.0003
     36  CZ        39.4650   48.6080   82.6120 C.ar   27  PHE27      -0.0000
     37  N         42.2200   47.1380   78.8720 N.3    30  VAL30      -0.1245
     38  CA        41.8980   45.7930   78.5560 C.3    30  VAL30       0.1561
     39  C         42.3910   45.5100   77.1500 C.2    30  VAL30       0.2260
     40  O         42.0750   46.2590   76.2160 O.2    30  VAL30      -0.2867
     41  CB        40.4040   45.5490   78.6090 C.3    30  VAL30       0.0252
     42  CG1       40.1080   44.0800   78.3090 C.3    30  VAL30       0.0019
     43  CG2       39.8660   45.9110   79.9940 C.3    30  VAL30       0.0019
     44  N         40.6090   38.2670   76.7490 N.3    44  ALA44      -0.1245
     45  CA        40.7430   39.6610   77.1480 C.3    44  ALA44       0.1562
     46  C         41.5530   39.6730   78.4340 C.2    44  ALA44       0.2260
     47  O         41.3010   38.8730   79.3410 O.2    44  ALA44      -0.2867
     48  CB        39.3340   40.3000   77.3550 C.3    44  ALA44       0.0290
     49  N         42.7320   42.2350   81.4080 N.3    46  LYS46      -0.1245
     50  CA        42.6110   43.5120   82.0510 C.3    46  LYS46       0.1561
     51  C         43.9040   43.7540   82.8130 C.2    46  LYS46       0.2260
     52  O         44.1660   43.0880   83.7750 O.2    46  LYS46      -0.2867
     53  CB        41.4450   43.4850   83.0190 C.3    46  LYS46       0.0271
     54  CG        41.2150   44.7730   83.7970 C.3    46  LYS46       0.0035
     55  CD        39.8450   44.6840   84.5120 C.3    46  LYS46       0.0206
     56  CE        39.4720   45.9550   85.2280 C.3    46  LYS46       0.1093
     57  NZ        38.1040   45.8320   85.8190 N.3    46  LYS46      -0.1314
     58  N         37.5450   42.6790   92.7640 N.3    61  GLU61      -0.1245
     59  CA        36.8370   42.1840   91.5820 C.3    61  GLU61       0.1567
     60  C         37.0520   40.6970   91.4680 C.2    61  GLU61       0.2260
     61  O         36.1440   39.9590   91.1030 O.2    61  GLU61      -0.2867
     62  CB        37.3180   42.9090   90.2920 C.3    61  GLU61       0.0388
     63  CG        36.7180   42.3330   89.0070 C.3    61  GLU61       0.1160
     64  CD        36.8990   43.2020   87.7780 C.2    61  GLU61       0.3649
     65  OE1       37.9730   43.8060   87.6360 O.co2  61  GLU61      -0.2457
     66  OE2       35.9260   43.2670   86.9280 O.co2  61  GLU61      -0.2457
     67  N         30.3560   38.2540   83.1470 N.3    80  VAL80      -0.1245
     68  CA        31.5550   37.8240   82.4360 C.3    80  VAL80       0.1561
     69  C         32.3130   36.7240   83.2070 C.2    80  VAL80       0.2260
     70  O         32.3860   36.7670   84.4380 O.2    80  VAL80      -0.2867
     71  CB        32.4780   39.0410   82.1250 C.3    80  VAL80       0.0252
     72  CG1       33.0710   39.6420   83.3760 C.3    80  VAL80       0.0019
     73  CG2       33.5500   38.6660   81.0790 C.3    80  VAL80       0.0019
     74  N         39.8770   37.2960   81.0940 N.3    96  PHE96      -0.1227
     75  CA        38.4650   37.1210   80.9140 C.3    96  PHE96       0.1736
     76  C         38.2320   36.5020   79.5650 C.2    96  PHE96       0.2595
     77  O         39.0830   36.6310   78.6470 O.2    96  PHE96      -0.2718
     78  CB        37.7570   38.4830   80.9110 C.3    96  PHE96       0.0547
     79  CG        37.7950   39.1940   82.2240 C.ar   96  PHE96      -0.0202
     80  CD1       36.8680   38.9130   83.1760 C.ar   96  PHE96      -0.0042
     81  CD2       38.6690   40.2220   82.4570 C.ar   96  PHE96      -0.0042
     82  CE1       36.8510   39.6030   84.3660 C.ar   96  PHE96      -0.0003
     83  CE2       38.6630   40.9090   83.6500 C.ar   96  PHE96      -0.0003
     84  CZ        37.7810   40.5870   84.6160 C.ar   96  PHE96      -0.0000
     85  N         37.1000   35.8210   79.4250 N.am   97  GLU97      -0.1965
     86  CA        36.5900   35.4600   78.1130 C.3    97  GLU97       0.1733
     87  C         36.5530   36.6890   77.2590 C.2    97  GLU97       0.2616
     88  O         36.2290   37.7760   77.7250 O.2    97  GLU97      -0.2715
     89  CB        35.1930   34.8190   78.2110 C.3    97  GLU97       0.0429
     90  CG        34.1230   35.7300   78.8460 C.3    97  GLU97       0.1163
     91  CD        32.7130   35.1110   78.8950 C.2    97  GLU97       0.3649
     92  OE1       32.3650   34.3550   78.0000 O.co2  97  GLU97      -0.2457
     93  OE2       31.9610   35.3970   79.8200 O.co2  97  GLU97      -0.2457
     94  N         36.8670   36.5250   75.9870 N.am   98  LEU98      -0.1963
     95  CA        36.7740   37.6280   75.0580 C.3    98  LEU98       0.1728
     96  C         35.3170   37.8690   74.6230 C.2    98  LEU98       0.2616
     97  O         34.6590   36.9690   74.1090 O.2    98  LEU98      -0.2715
     98  CB        37.5940   37.3500   73.8070 C.3    98  LEU98       0.0311
     99  CG        37.6130   38.4650   72.7680 C.3    98  LEU98       0.0022
    100  CD1       38.2440   39.7140   73.3410 C.3    98  LEU98       0.0001
    101  CD2       38.3770   37.9980   71.5500 C.3    98  LEU98       0.0001
    102  N         34.8600   39.0980   74.7580 N.am   99  LEU99      -0.1963
    103  CA        33.5150   39.4950   74.3670 C.3    99  LEU99       0.1728
    104  C         33.6610   40.4720   73.1780 C.2    99  LEU99       0.2616
    105  O         34.8120   40.8260   72.8020 O.2    99  LEU99      -0.2715
    106  CB        32.8400   40.1380   75.5520 C.3    99  LEU99       0.0311
    107  CG        32.6150   39.2300   76.7810 C.3    99  LEU99       0.0022
    108  CD1       32.0120   39.9780   77.9640 C.3    99  LEU99       0.0001
    109  CD2       31.6690   38.0750   76.4480 C.3    99  LEU99       0.0001
    110  N         32.5470   40.9520   72.6480 N.am  100  GLY100     -0.1955
    111  CA        32.5690   41.9250   71.5670 C.3   100  GLY100      0.1869
    112  C         32.6290   43.3320   72.0790 C.2   100  GLY100      0.2309
    113  O         32.9420   43.5850   73.2510 O.2   100  GLY100     -0.2863
    114  N         31.5530   46.9310   73.6010 N.3   102  SER102     -0.1217
    115  CA        30.6420   47.4680   74.5970 C.3   102  SER102      0.1889
    116  C         29.4520   48.1170   73.8510 C.2   102  SER102      0.2288
    117  O         29.5530   48.5330   72.6820 O.2   102  SER102     -0.2866
    118  CB        31.2910   48.4970   75.5180 C.3   102  SER102      0.2089
    119  OG        31.4310   49.7580   74.8710 O.3   102  SER102     -0.2183
    120  N         30.5060   51.4270   72.7110 N.3   105  ASP105     -0.1239
    121  CA        31.2980   51.5070   71.5190 C.3   105  ASP105      0.1674
    122  C         30.5090   51.1970   70.2680 C.2   105  ASP105      0.2266
    123  O         30.7300   51.8220   69.2170 O.2   105  ASP105     -0.2867
    124  CB        32.5090   50.5980   71.6000 C.3   105  ASP105      0.1410
    125  CG        33.6450   51.2040   72.4750 C.2   105  ASP105      0.3668
    126  OD1       33.8400   52.4230   72.4500 O.co2 105  ASP105     -0.2456
    127  OD2       34.3210   50.4350   73.1600 O.co2 105  ASP105     -0.2456
    128  N         29.4030   51.2600   78.8400 N.3   147  GLU147     -0.1231
    129  CA        30.7610   50.7120   78.6870 C.3   147  GLU147      0.1699
    130  C         30.9010   49.3760   79.3830 C.2   147  GLU147      0.2592
    131  O         31.8230   48.5980   79.0520 O.2   147  GLU147     -0.2718
    132  CB        31.8350   51.6990   79.1810 C.3   147  GLU147      0.0402
    133  CG        31.8800   53.0250   78.4470 C.3   147  GLU147      0.1161
    134  CD        30.9540   54.1200   79.0930 C.2   147  GLU147      0.3649
    135  OE1       29.7740   53.8660   79.5580 O.co2 147  GLU147     -0.2457
    136  OE2       31.4720   55.2360   79.1900 O.co2 147  GLU147     -0.2457
    137  N         30.0420   49.1010   80.3460 N.am  148  ASN148     -0.1974
    138  CA        30.1330   47.8990   81.1570 C.3   148  ASN148      0.1688
    139  C         29.0830   46.8650   80.8210 C.2   148  ASN148      0.2292
    140  O         28.9720   45.8600   81.5090 O.2   148  ASN148     -0.2864
    141  CB        30.0940   48.2420   82.6670 C.3   148  ASN148      0.1181
    142  CG        31.4080   48.8610   83.1450 C.2   148  ASN148      0.2629
    143  OD1       32.4350   48.6940   82.5020 O.2   148  ASN148     -0.2716
    144  ND2       31.3790   49.5560   84.2750 N.am  148  ASN148     -0.0877
    145  N         28.4620   44.5510   77.4990 N.3   150  LEU150     -0.1245
    146  CA        29.1800   44.1440   76.2730 C.3   150  LEU150      0.1561
    147  C         28.3580   43.1330   75.5510 C.2   150  LEU150      0.2260
    148  O         27.7710   42.2800   76.1650 O.2   150  LEU150     -0.2867
    149  CB        30.5710   43.5270   76.5990 C.3   150  LEU150      0.0270
    150  CG        31.7360   44.4760   76.8300 C.3   150  LEU150      0.0019
    151  CD1       31.5060   45.5080   77.9110 C.3   150  LEU150      0.0001
    152  CD2       33.0720   43.7090   77.0860 C.3   150  LEU150      0.0001
    153  N         30.1050   43.4590   82.8160 N.3   179  VAL179     -0.1231
    154  CA        31.5050   43.4160   83.2570 C.3   179  VAL179      0.1692
    155  C         31.7820   44.4680   84.3090 C.2   179  VAL179      0.2592
    156  O         30.9120   45.2950   84.6360 O.2   179  VAL179     -0.2718
    157  CB        32.5220   43.5960   82.0770 C.3   179  VAL179      0.0266
    158  CG1       32.2030   42.6460   80.9410 C.3   179  VAL179      0.0020
    159  CG2       32.4650   45.0000   81.5260 C.3   179  VAL179      0.0020
    160  N         33.0350   44.4180   84.8040 N.am  180  ASP180     -0.1974
    161  CA        33.6010   45.3620   85.7210 C.3   180  ASP180      0.1709
    162  C         32.9600   45.2880   87.0950 C.2   180  ASP180      0.2293
    163  O         32.0770   46.1020   87.4500 O.2   180  ASP180     -0.2864
    164  CB        33.5980   46.7770   85.2250 C.3   180  ASP180      0.1436
    165  CG        34.5330   47.6500   85.9890 C.2   180  ASP180      0.3671
    166  OD1       34.8960   47.3530   87.1730 O.co2 180  ASP180     -0.2456
    167  OD2       35.0140   48.6290   85.3860 O.co2 180  ASP180     -0.2456
@<TRIPOS>BOND
     1   123   122    2
     2   122   121    1
     3   121   124    1
     4   121   120    1
     5   101    99    1
     6   111   112    1
     7   111   110    1
     8   124   125    1
     9   112   113    2
    10     8     6    1
    11   126   125   ar
    12   125   127   ar
    13   110   104   am
    14   117   116    2
    15    99   100    1
    16    99    98    1
    17   105   104    2
    18   104   103    1
    19     6     5    1
    20     6     7    1
    21     2     1    1
    22     2     3    1
    23     2     5    1
    24   114   115    1
    25     4     3    2
    26    98    95    1
    27   116   115    1
    28    97    96    2
    29     3     9   am
    30   103   102    1
    31   103   106    1
    32   115   118    1
    33    96   102   am
    34    96    95    1
    35   119   118    1
    36    95    94    1
    37     9    10    1
    38   147   148    2
    39   147   146    1
    40   106   107    1
    41    10    11    1
    42    94    87   am
    43    40    39    2
    44   146   149    1
    45   146   145    1
    46   109   107    1
    47    20    19   ar
    48   149   150    1
    49    44    45    1
    50   107   108    1
    51   150   152    1
    52   150   151    1
    53    21    19   ar
    54    19    18    1
    55    11    12    2
    56    11    13   am
    57    45    48    1
    58    45    46    1
    59    39    38    1
    60    18    17    1
    61    87    88    2
    62    87    86    1
    63    13    14    1
    64    92    91   ar
    65    86    89    1
    66    86    85    1
    67    89    90    1
    68    17    14    1
    69    42    41    1
    70    46    47    2
    71   133   134    1
    72   133   132    1
    73    38    41    1
    74    38    37    1
    75    41    43    1
    76    77    76    2
    77   129   128    1
    78   129   132    1
    79   129   130    1
    80    14    15    1
    81    90    91    1
    82    91    93   ar
    83   131   130    2
    84   134   136   ar
    85   134   135   ar
    86   130   137   am
    87    85    76   am
    88    16    15    2
    89    76    75    1
    90    15    22   am
    91   137   138    1
    92   139   138    1
    93   139   140    2
    94    78    75    1
    95    78    79    1
    96    75    74    1
    97   158   157    1
    98    22    23    1
    99    73    71    1
   100   138   141    1
   101    49    50    1
   102   159   157    1
   103    50    51    1
   104    50    53    1
   105   157   154    1
   106    23    24    1
   107    71    68    1
   108    71    72    1
   109    79    81   ar
   110    79    80   ar
   111    68    67    1
   112    68    69    1
   113    81    83   ar
   114   143   142    2
   115    36    34   ar
   116    36    35   ar
   117   141   142    1
   118    51    52    2
   119   153   154    1
   120    25    24    2
   121    34    32   ar
   122    53    54    1
   123   142   144   am
   124    80    82   ar
   125    69    70    2
   126   154   155    1
   127    35    33   ar
   128    83    84   ar
   129    54    55    1
   130    32    31   ar
   131   155   156    2
   132   155   160   am
   133    82    84   ar
   134    55    56    1
   135    33    31   ar
   136   160   161    1
   137    31    30    1
   138   164   161    1
   139   164   165    1
   140    56    57    1
   141   167   165   ar
   142    28    29    2
   143    28    27    1
   144   161   162    1
   145    26    27    1
   146   165   166   ar
   147    27    30    1
   148    66    64   ar
   149   162   163    2
   150    65    64   ar
   151    64    63    1
   152    63    62    1
   153    62    59    1
   154    61    60    2
   155    60    59    1
   156    59    58    1
