@<TRIPOS>MOLECULE
tmp/6g35A00.pdb
 163 154 0 0 0
SMALL
GASTEIGER

@<TRIPOS>ATOM
      1  N         58.2560   26.7410   12.8900 N.3    30  ILE30      -0.1231
      2  CA        58.9880   27.5700   13.8850 C.3    30  ILE30       0.1692
      3  C         59.5280   28.8760   13.3380 C.2    30  ILE30       0.2593
      4  O         59.9340   29.7280   14.1510 O.2    30  ILE30      -0.2718
      5  CB        60.1130   26.7880   14.5940 C.3    30  ILE30       0.0266
      6  CG1       61.1810   26.3050   13.6260 C.3    30  ILE30       0.0019
      7  CG2       59.5040   25.6560   15.4010 C.3    30  ILE30       0.0020
      8  CD1       62.4750   25.7220   14.2140 C.3    30  ILE30       0.0001
      9  N         59.5380   29.0970   12.0270 N.am   31  GLY31      -0.1942
     10  CA        60.0690   30.2950   11.5040 C.3    31  GLY31       0.2014
     11  C         59.8100   30.4610   10.0440 C.2    31  GLY31       0.2638
     12  O         59.3280   29.5330    9.3820 O.2    31  GLY31      -0.2714
     13  N         60.1200   31.6500    9.5440 N.am   32  GLU32      -0.1977
     14  CA        59.8490   32.0090    8.1650 C.3    32  GLU32       0.1602
     15  C         60.7100   33.1460    7.7440 C.2    32  GLU32       0.2287
     16  O         61.2260   33.9100    8.5880 O.2    32  GLU32      -0.2864
     17  CB        58.3750   32.3710    7.9380 C.3    32  GLU32       0.0415
     18  CG        57.9430   33.5830    8.7280 C.3    32  GLU32       0.1163
     19  CD        56.5310   34.0090    8.3960 C.2    32  GLU32       0.3649
     20  OE1       55.6450   33.1470    8.2260 O.co2  32  GLU32      -0.2457
     21  OE2       56.2200   35.2520    8.3690 O.co2  32  GLU32      -0.2457
     22  N         62.5660   33.8320    2.0530 N.3    35  PHE35      -0.1241
     23  CA        63.1310   32.6110    1.5070 C.3    35  PHE35       0.1605
     24  C         62.2110   31.4330    1.4850 C.2    35  PHE35       0.2264
     25  O         62.4120   30.5090    0.6950 O.2    35  PHE35      -0.2867
     26  CB        64.4180   32.1470    2.2770 C.3    35  PHE35       0.0534
     27  CG        64.1720   31.7750    3.7340 C.ar   35  PHE35      -0.0203
     28  CD1       63.6970   30.5410    4.0950 C.ar   35  PHE35      -0.0042
     29  CD2       64.3650   32.7040    4.7200 C.ar   35  PHE35      -0.0042
     30  CE1       63.4400   30.2340    5.4110 C.ar   35  PHE35      -0.0003
     31  CE2       64.0980   32.4020    6.0590 C.ar   35  PHE35      -0.0003
     32  CZ        63.6560   31.1660    6.3980 C.ar   35  PHE35      -0.0000
     33  N         60.5120   27.3380    7.8700 N.3    38  VAL38      -0.1245
     34  CA        61.3120   26.4920    8.7500 C.3    38  VAL38       0.1561
     35  C         60.4060   25.7420    9.7000 C.2    38  VAL38       0.2260
     36  O         59.5380   26.3160   10.3690 O.2    38  VAL38      -0.2867
     37  CB        62.3210   27.3150    9.5900 C.3    38  VAL38       0.0252
     38  CG1       63.2350   26.3520   10.3530 C.3    38  VAL38       0.0019
     39  CG2       63.1500   28.1570    8.6890 C.3    38  VAL38       0.0019
     40  N         65.6370   20.9670   12.5810 N.3    49  ALA49      -0.1245
     41  CA        64.9790   22.0810   11.9030 C.3    49  ALA49       0.1562
     42  C         65.1270   21.8860   10.4120 C.2    49  ALA49       0.2260
     43  O         66.1650   21.4570    9.9230 O.2    49  ALA49      -0.2867
     44  CB        65.6040   23.3840   12.3180 C.3    49  ALA49       0.0290
     45  N         64.5630   23.5600    6.7500 N.3    51  LYS51      -0.1245
     46  CA        64.4090   24.7870    5.9850 C.3    51  LYS51       0.1561
     47  C         64.0510   24.3990    4.5770 C.2    51  LYS51       0.2260
     48  O         64.7870   23.6410    3.9450 O.2    51  LYS51      -0.2867
     49  CB        65.6940   25.6390    6.0590 C.3    51  LYS51       0.0271
     50  CG        65.5780   26.9550    5.3110 C.3    51  LYS51       0.0035
     51  CD        66.8840   27.7170    5.5100 C.3    51  LYS51       0.0206
     52  CE        66.7550   29.1250    5.0290 C.3    51  LYS51       0.1093
     53  NZ        68.0090   29.9510    5.1900 N.3    51  LYS51      -0.1314
     54  N         75.5050   26.3510   13.1750 N.3    97  ILE97      -0.1245
     55  CA        74.5430   25.2110   13.2350 C.3    97  ILE97       0.1561
     56  C         75.0150   23.9400   12.4630 C.2    97  ILE97       0.2260
     57  O         75.6050   24.0510   11.3720 O.2    97  ILE97      -0.2867
     58  CB        73.2140   25.7170   12.7140 C.3    97  ILE97       0.0252
     59  CG1       72.0470   24.8480   13.1900 C.3    97  ILE97       0.0019
     60  CG2       73.2440   25.9250   11.2160 C.3    97  ILE97       0.0019
     61  CD1       71.8830   24.9450   14.6930 C.3    97  ILE97       0.0001
     62  N         68.7950   20.7680    9.5020 N.3   145  PHE145     -0.1227
     63  CA        69.7800   21.2440   10.4490 C.3   145  PHE145      0.1736
     64  C         69.5400   20.6960   11.8470 C.2   145  PHE145      0.2595
     65  O         68.4540   20.3150   12.2300 O.2   145  PHE145     -0.2718
     66  CB        69.7090   22.7890   10.5550 C.3   145  PHE145      0.0547
     67  CG        70.0980   23.5390    9.3200 C.ar  145  PHE145     -0.0202
     68  CD1       71.4520   23.8280    9.0470 C.ar  145  PHE145     -0.0042
     69  CD2       69.1320   24.0580    8.4680 C.ar  145  PHE145     -0.0042
     70  CE1       71.7920   24.5450    7.9220 C.ar  145  PHE145     -0.0003
     71  CE2       69.5050   24.8580    7.3870 C.ar  145  PHE145     -0.0003
     72  CZ        70.8300   25.0500    7.1230 C.ar  145  PHE145     -0.0000
     73  N         70.6080   20.6490   12.6180 N.am  146  GLU146     -0.1965
     74  CA        70.5000   20.5880   14.0710 C.3   146  GLU146      0.1733
     75  C         69.4920   21.6550   14.5410 C.2   146  GLU146      0.2616
     76  O         69.4130   22.7300   13.9740 O.2   146  GLU146     -0.2715
     77  CB        71.8870   20.9520   14.6190 C.3   146  GLU146      0.0429
     78  CG        72.0670   20.9500   16.1210 C.3   146  GLU146      0.1163
     79  CD        73.3380   21.7070   16.5930 C.2   146  GLU146      0.3649
     80  OE1       73.4360   21.9350   17.8530 O.co2 146  GLU146     -0.2457
     81  OE2       74.1730   22.1620   15.7550 O.co2 146  GLU146     -0.2457
     82  N         68.6730   21.2790   15.5110 N.am  147  PHE147     -0.1960
     83  CA        67.8080   22.2740   16.1820 C.3   147  PHE147      0.1771
     84  C         68.6880   23.0880   17.1260 C.2   147  PHE147      0.2620
     85  O         69.2900   22.5570   18.0420 O.2   147  PHE147     -0.2715
     86  CB        66.6740   21.5970   16.9500 C.3   147  PHE147      0.0574
     87  CG        65.8160   22.5750   17.7000 C.ar  147  PHE147     -0.0200
     88  CD1       64.9080   23.3700   17.0240 C.ar  147  PHE147     -0.0042
     89  CD2       65.8970   22.6570   19.0350 C.ar  147  PHE147     -0.0042
     90  CE1       64.1260   24.3020   17.7170 C.ar  147  PHE147     -0.0003
     91  CE2       65.0700   23.5500   19.7370 C.ar  147  PHE147     -0.0003
     92  CZ        64.2080   24.3490   19.0520 C.ar  147  PHE147     -0.0000
     93  N         68.7150   24.3970   16.8810 N.am  148  GLY148     -0.1940
     94  CA        69.6260   25.2980   17.6020 C.3   148  GLY148      0.2014
     95  C         69.0470   26.0210   18.7770 C.2   148  GLY148      0.2639
     96  O         69.8090   26.6900   19.4270 O.2   148  GLY148     -0.2714
     97  N         67.7600   25.8480   19.0720 N.am  149  GLY149     -0.1954
     98  CA        67.1130   26.5630   20.1780 C.3   149  GLY149      0.1869
     99  C         66.2950   27.6830   19.6150 C.2   149  GLY149      0.2309
    100  O         65.7620   27.5870   18.5400 O.2   149  GLY149     -0.2863
    101  N         65.7190   31.8730   18.8660 N.3   151  ASP151     -0.1239
    102  CA        66.4600   33.0570   18.4410 C.3   151  ASP151      0.1674
    103  C         66.4590   34.1640   19.4960 C.2   151  ASP151      0.2266
    104  O         65.5340   34.2910   20.3080 O.2   151  ASP151     -0.2867
    105  CB        66.0450   33.5470   17.0600 C.3   151  ASP151      0.1410
    106  CG        64.6550   33.9700   16.9800 C.2   151  ASP151      0.3668
    107  OD1       64.3330   35.0940   17.3950 O.co2 151  ASP151     -0.2456
    108  OD2       63.7980   33.1720   16.5330 O.co2 151  ASP151     -0.2456
    109  N         63.3990   36.3970   19.8500 N.3   154  GLN154     -0.1245
    110  CA        62.3000   35.7830   20.6420 C.3   154  GLN154      0.1566
    111  C         62.6480   35.6080   22.1070 C.2   154  GLN154      0.2260
    112  O         61.7610   35.4480   22.9210 O.2   154  GLN154     -0.2867
    113  CB        61.9090   34.4190   20.0790 C.3   154  GLN154      0.0367
    114  CG        61.1870   34.5280   18.7680 C.3   154  GLN154      0.0905
    115  CD        60.6100   33.1910   18.3060 C.2   154  GLN154      0.2608
    116  OE1       61.1970   32.4910   17.4990 O.2   154  GLN154     -0.2717
    117  NE2       59.4910   32.8250   18.8540 N.am  154  GLN154     -0.0878
    118  N         71.5720   39.3820   11.9430 N.3   191  HIS191     -0.1241
    119  CA        70.5470   40.0550   12.7390 C.3   191  HIS191      0.1621
    120  C         70.1440   39.0860   13.8600 C.2   191  HIS191      0.2264
    121  O         70.5130   37.9060   13.8340 O.2   191  HIS191     -0.2867
    122  CB        69.3450   40.4950   11.9060 C.3   191  HIS191      0.0745
    123  CG        68.6540   39.4070   11.1780 C.ar  191  HIS191      0.0817
    124  ND1       67.8050   38.5160   11.7990 N.ar  191  HIS191     -0.2268
    125  CD2       68.6700   39.0630    9.8760 C.ar  191  HIS191      0.1154
    126  CE1       67.3620   37.6420   10.9120 C.ar  191  HIS191      0.1986
    127  NE2       67.8340   37.9890    9.7270 N.ar  191  HIS191     -0.2212
    128  N         67.5560   37.5520   14.6960 N.3   193  GLY193     -0.1210
    129  CA        66.8620   36.3230   14.3030 C.3   193  GLY193      0.1956
    130  C         67.7850   35.1610   13.9940 C.2   193  GLY193      0.2611
    131  O         67.3110   34.0410   13.9100 O.2   193  GLY193     -0.2717
    132  N         69.0570   35.4390   13.7880 N.am  194  ASN194     -0.1974
    133  CA        70.0350   34.4280   13.3150 C.3   194  ASN194      0.1688
    134  C         71.0260   34.0190   14.3740 C.2   194  ASN194      0.2292
    135  O         72.0210   33.3650   14.0630 O.2   194  ASN194     -0.2864
    136  CB        70.7350   35.0270   12.0920 C.3   194  ASN194      0.1181
    137  CG        69.8520   35.0080   10.8860 C.2   194  ASN194      0.2629
    138  OD1       68.8600   34.2710   10.8700 O.2   194  ASN194     -0.2716
    139  ND2       70.1560   35.7870    9.8820 N.am  194  ASN194     -0.0877
    140  N         70.8970   31.7580   17.6880 N.3   196  LEU196     -0.1245
    141  CA        70.0580   30.8360   18.4070 C.3   196  LEU196      0.1561
    142  C         70.6710   30.4500   19.7200 C.2   196  LEU196      0.2260
    143  O         71.8850   30.2600   19.8420 O.2   196  LEU196     -0.2867
    144  CB        69.8270   29.5550   17.5720 C.3   196  LEU196      0.0270
    145  CG        69.2820   29.7690   16.1680 C.3   196  LEU196      0.0019
    146  CD1       68.9190   28.4020   15.5760 C.3   196  LEU196      0.0001
    147  CD2       68.1020   30.7220   16.1430 C.3   196  LEU196      0.0001
    148  N         73.1190   30.9680   12.5130 N.3   226  ILE226     -0.1231
    149  CA        72.4200   30.3970   11.3620 C.3   226  ILE226      0.1692
    150  C         72.3200   31.3840   10.2050 C.2   226  ILE226      0.2592
    151  O         72.6740   32.5570   10.3560 O.2   226  ILE226     -0.2718
    152  CB        71.0040   29.9210   11.7440 C.3   226  ILE226      0.0266
    153  CG1       70.1570   31.0960   12.2240 C.3   226  ILE226      0.0019
    154  CG2       71.0890   28.8200   12.7630 C.3   226  ILE226      0.0020
    155  CD1       68.6580   30.8120   12.1700 C.3   226  ILE226      0.0001
    156  N         71.8900   30.8700    9.0370 N.am  227  ASP227     -0.1974
    157  CA        71.3790   31.6410    7.8920 C.3   227  ASP227      0.1709
    158  C         72.4560   32.2720    7.0870 C.2   227  ASP227      0.2293
    159  O         72.8390   33.4050    7.3000 O.2   227  ASP227     -0.2864
    160  CB        70.2760   32.6190    8.2490 C.3   227  ASP227      0.1436
    161  CG        69.6170   33.1370    7.0130 C.2   227  ASP227      0.3671
    162  OD1       69.9950   32.7280    5.8930 O.co2 227  ASP227     -0.2456
    163  OD2       68.6890   33.9750    7.1660 O.co2 227  ASP227     -0.2456
@<TRIPOS>BOND
     1    25    24    2
     2    24    23    1
     3    23    22    1
     4    23    26    1
     5    26    27    1
     6    27    28   ar
     7    27    29   ar
     8    48    47    2
     9    28    30   ar
    10    47    46    1
    11    29    31   ar
    12    52    53    1
    13    52    51    1
    14    50    51    1
    15    50    49    1
    16    30    32   ar
    17   162   161   ar
    18    46    49    1
    19    46    45    1
    20    31    32   ar
    21   161   163   ar
    22   161   160    1
    23   158   159    2
    24   158   157    1
    25    72    71   ar
    26    72    70   ar
    27    71    69   ar
    28    15    14    1
    29    15    16    2
    30    33    34    1
    31   157   160    1
    32   157   156    1
    33    70    68   ar
    34    17    14    1
    35    17    18    1
    36    14    13    1
    37    20    19   ar
    38    21    19   ar
    39    19    18    1
    40    69    67   ar
    41    39    37    1
    42    34    37    1
    43    34    35    1
    44   156   150   am
    45    68    67   ar
    46    67    66    1
    47    12    11    2
    48    62    63    1
    49    13    11   am
    50    37    38    1
    51    35    36    2
    52   127   125   ar
    53   127   126   ar
    54   125   123   ar
    55   139   137   am
    56    43    42    2
    57    11    10    1
    58   150   151    2
    59   150   149    1
    60    42    41    1
    61    63    66    1
    62    63    64    1
    63   138   137    2
    64   137   136    1
    65   126   124   ar
    66   123   124   ar
    67   123   122    1
    68    60    58    1
    69   149   152    1
    70   149   148    1
    71    57    56    2
    72    10     9    1
    73   152   153    1
    74   152   154    1
    75    64    65    2
    76    64    73   am
    77    41    44    1
    78    41    40    1
    79   122   119    1
    80   118   119    1
    81     9     3   am
    82   136   133    1
    83   155   153    1
    84    56    55    1
    85    73    74    1
    86    58    59    1
    87    58    55    1
    88   119   120    1
    89     1     2    1
    90    54    55    1
    91    59    61    1
    92   133   132    1
    93   133   134    1
    94     3     2    1
    95     3     4    2
    96     6     8    1
    97     6     5    1
    98   132   130   am
    99   121   120    2
   100     2     5    1
   101   131   130    2
   102    76    75    2
   103   130   129    1
   104   135   134    2
   105    74    75    1
   106    74    77    1
   107   129   128    1
   108    75    82   am
   109     5     7    1
   110    77    78    1
   111    82    83    1
   112   146   145    1
   113    81    79   ar
   114    78    79    1
   115   147   145    1
   116   145   144    1
   117    83    86    1
   118    83    84    1
   119   108   106   ar
   120    79    80   ar
   121    93    84   am
   122    93    94    1
   123    86    87    1
   124   106   105    1
   125   106   107   ar
   126    88    87   ar
   127    88    90   ar
   128   105   102    1
   129    84    85    2
   130   116   115    2
   131   144   141    1
   132    94    95    1
   133   140   141    1
   134    87    89   ar
   135    90    92   ar
   136   115   114    1
   137   115   117   am
   138   141   142    1
   139   102   101    1
   140   102   103    1
   141   100    99    2
   142   114   113    1
   143    95    97   am
   144    95    96    2
   145    89    91   ar
   146    92    91   ar
   147    97    98    1
   148   103   104    2
   149    99    98    1
   150   142   143    2
   151   109   110    1
   152   113   110    1
   153   110   111    1
   154   111   112    2
