@<TRIPOS>MOLECULE
tmp/6g3hA00.pdb
 83 78 0 0 0
SMALL
GASTEIGER

@<TRIPOS>ATOM
      1  N        -20.9120  -14.0010    3.2150 N.3    22  TYR22      -0.1241
      2  CA       -21.6930  -13.6630    2.0370 C.3    22  TYR22       0.1605
      3  C        -22.6270  -12.4840    2.2590 C.2    22  TYR22       0.2264
      4  O        -23.1030  -11.9010    1.2790 O.2    22  TYR22      -0.2867
      5  CB       -22.5040  -14.8820    1.5880 C.3    22  TYR22       0.0534
      6  CG       -21.6270  -16.0070    1.0930 C.ar   22  TYR22      -0.0201
      7  CD1      -21.0340  -16.8920    1.9840 C.ar   22  TYR22      -0.0009
      8  CD2      -21.3700  -16.1680   -0.2610 C.ar   22  TYR22      -0.0009
      9  CE1      -20.2160  -17.9120    1.5390 C.ar   22  TYR22       0.0417
     10  CE2      -20.5540  -17.1880   -0.7160 C.ar   22  TYR22       0.0417
     11  CZ       -19.9790  -18.0550    0.1890 C.ar   22  TYR22       0.1957
     12  OH       -19.1670  -19.0720   -0.2560 O.3    22  TYR22      -0.2866
     13  N        -19.0340  -26.4450   -2.7450 N.3   275  THR275     -0.1203
     14  CA       -18.6800  -27.3810   -3.8000 C.3   275  THR275      0.1994
     15  C        -18.7820  -26.6710   -5.1420 C.2   275  THR275      0.2619
     16  O        -19.0910  -25.4790   -5.2200 O.2   275  THR275     -0.2717
     17  CB       -19.5690  -28.6270   -3.7580 C.3   275  THR275      0.1784
     18  OG1      -19.1110  -29.5730   -4.7330 O.3   275  THR275     -0.2211
     19  CG2      -21.0280  -28.2630   -4.0330 C.3   275  THR275      0.0376
     20  N        -18.5210  -27.4230   -6.2040 N.am  276  SER276     -0.1937
     21  CA       -18.4970  -26.8980   -7.5590 C.3   276  SER276      0.2055
     22  C        -19.8040  -27.2040   -8.2780 C.2   276  SER276      0.2644
     23  O        -20.4390  -28.2360   -8.0410 O.2   276  SER276     -0.2714
     24  CB       -17.3250  -27.4940   -8.3410 C.3   276  SER276      0.2130
     25  OG       -17.2690  -26.9830   -9.6600 O.3   276  SER276     -0.2179
     26  N        -20.2030  -26.2890   -9.1610 N.am  277  SER277     -0.1935
     27  CA       -21.3700  -26.5090  -10.0060 C.3   277  SER277      0.2055
     28  C        -21.0920  -27.4850  -11.1410 C.2   277  SER277      0.2643
     29  O        -22.0400  -27.9410  -11.7890 O.2   277  SER277     -0.2714
     30  CB       -21.8660  -25.1740  -10.5840 C.3   277  SER277      0.2130
     31  OG       -20.8900  -24.5540  -11.4110 O.3   277  SER277     -0.2179
     32  N        -19.8270  -27.8350  -11.3720 N.am  278  ILE278     -0.1963
     33  CA       -19.4190  -28.6240  -12.5300 C.3   278  ILE278      0.1727
     34  C        -18.6290  -29.8480  -12.0720 C.2   278  ILE278      0.2616
     35  O        -18.6910  -30.9090  -12.7030 O.2   278  ILE278     -0.2715
     36  CB       -18.6000  -27.7560  -13.5080 C.3   278  ILE278      0.0290
     37  CG1      -18.0130  -28.6080  -14.6330 C.3   278  ILE278      0.0022
     38  CG2      -17.4900  -27.0100  -12.7670 C.3   278  ILE278      0.0023
     39  CD1      -17.4200  -27.7930  -15.7710 C.3   278  ILE278      0.0001
     40  N        -17.8920  -29.7140  -10.9660 N.am  279  MET279     -0.1977
     41  CA       -17.0280  -30.7770  -10.4550 C.3   279  MET279      0.1605
     42  C        -17.6270  -31.3760   -9.1860 C.2   279  MET279      0.2287
     43  O        -17.4670  -30.8020   -8.0980 O.2   279  MET279     -0.2864
     44  CB       -15.6250  -30.2290  -10.1740 C.3   279  MET279      0.0413
     45  CG       -14.9010  -29.7180  -11.4140 C.3   279  MET279      0.0598
     46  SD       -13.2930  -28.9790  -11.0750 S.3   279  MET279     -0.1393
     47  CE       -13.7810  -27.4360  -10.3100 C.3   279  MET279      0.0692
     48  N        -15.6880  -31.7460   -5.5990 N.3   282  LYS282     -0.1245
     49  CA       -15.1260  -30.6190   -4.8670 C.3   282  LYS282      0.1561
     50  C        -15.7430  -30.4880   -3.4820 C.2   282  LYS282      0.2260
     51  O        -16.9680  -30.5000   -3.3230 O.2   282  LYS282     -0.2867
     52  CB       -15.3350  -29.3170   -5.6410 C.3   282  LYS282      0.0271
     53  CG       -14.3950  -29.1160   -6.8130 C.3   282  LYS282      0.0035
     54  CD       -12.9350  -29.1550   -6.3730 C.3   282  LYS282      0.0206
     55  CE       -12.0960  -28.1490   -7.1420 C.3   282  LYS282      0.1093
     56  NZ       -12.1330  -26.8010   -6.5080 N.3   282  LYS282     -0.1314
     57  N        -15.0160  -27.4160   -1.2670 N.3   284  ASN284     -0.1240
     58  CA       -14.2560  -26.1980   -1.5260 C.3   284  ASN284      0.1653
     59  C        -14.0900  -25.3740   -0.2600 C.2   284  ASN284      0.2266
     60  O        -15.0760  -25.1420    0.4530 O.2   284  ASN284     -0.2867
     61  CB       -14.9550  -25.3660   -2.5970 C.3   284  ASN284      0.1155
     62  CG       -14.7660  -25.9400   -3.9890 C.2   284  ASN284      0.2627
     63  OD1      -13.7840  -26.6340   -4.2560 O.2   284  ASN284     -0.2716
     64  ND2      -15.7050  -25.6550   -4.8820 N.am  284  ASN284     -0.0877
     65  N        -14.3250  -22.4220    0.6780 N.3   286  ASP286     -0.1239
     66  CA       -14.8230  -21.0750    0.4210 C.3   286  ASP286      0.1674
     67  C        -14.7050  -20.1980    1.6600 C.2   286  ASP286      0.2266
     68  O        -14.4080  -19.0020    1.5580 O.2   286  ASP286     -0.2867
     69  CB       -16.2720  -21.1420   -0.0590 C.3   286  ASP286      0.1410
     70  CG       -16.4100  -21.8870   -1.3650 C.2   286  ASP286      0.3668
     71  OD1      -15.4420  -21.8710   -2.1560 O.co2 286  ASP286     -0.2456
     72  OD2      -17.4800  -22.4890   -1.6030 O.co2 286  ASP286     -0.2456
     73  N        -12.5110  -16.7190    1.4490 N.3   290  ARG290     -0.1245
     74  CA       -13.1800  -15.4410    1.6720 C.3   290  ARG290      0.1563
     75  C        -12.6650  -14.7610    2.9320 C.2   290  ARG290      0.2260
     76  O        -12.7040  -13.5290    3.0300 O.2   290  ARG290     -0.2867
     77  CB       -14.6910  -15.6400    1.7530 C.3   290  ARG290      0.0307
     78  CG       -15.3650  -15.6750    0.3880 C.3   290  ARG290      0.0489
     79  CD       -16.8640  -15.8720    0.4920 C.3   290  ARG290      0.2205
     80  NE       -17.4940  -15.8450   -0.8300 N.pl3 290  ARG290     -0.0865
     81  CZ       -18.3040  -14.8890   -1.2830 C.cat 290  ARG290      0.5346
     82  NH1      -18.6330  -13.8500   -0.5290 N.pl3 290  ARG290      0.1354
     83  NH2      -18.8050  -14.9840   -2.5070 N.pl3 290  ARG290      0.1354
@<TRIPOS>BOND
     1    39    37    1
     2    37    36    1
     3    36    38    1
     4    36    33    1
     5    35    34    2
     6    33    34    1
     7    33    32    1
     8    34    40   am
     9    29    28    2
    10    45    46    1
    11    45    44    1
    12    31    30    1
    13    32    28   am
    14    28    27    1
    15    46    47    1
    16    40    41    1
    17    30    27    1
    18    41    44    1
    19    41    42    1
    20    27    26    1
    21    25    24    1
    22    42    43    2
    23    26    22   am
    24    24    21    1
    25    22    23    2
    26    22    21    1
    27    21    20    1
    28    55    56    1
    29    55    54    1
    30    53    54    1
    31    53    52    1
    32    20    15   am
    33    52    49    1
    34    48    49    1
    35    16    15    2
    36    15    14    1
    37    64    62   am
    38    49    50    1
    39    18    17    1
    40    63    62    2
    41    19    17    1
    42    62    61    1
    43    14    17    1
    44    14    13    1
    45    50    51    2
    46    61    58    1
    47    83    81    1
    48    71    70   ar
    49    72    70   ar
    50    58    57    1
    51    58    59    1
    52    70    69    1
    53    81    80    2
    54    81    82    1
    55    80    79    1
    56    10     8   ar
    57    10    11   ar
    58     8     6   ar
    59    59    60    2
    60    12    11    1
    61    69    66    1
    62    11     9   ar
    63    78    79    1
    64    78    77    1
    65    66    65    1
    66    66    67    1
    67     6     5    1
    68     6     7   ar
    69     4     3    2
    70    73    74    1
    71     9     7   ar
    72    68    67    2
    73     5     2    1
    74    74    77    1
    75    74    75    1
    76     2     3    1
    77     2     1    1
    78    75    76    2
