@<TRIPOS>MOLECULE
tmp/6g3oA00.pdb
 149 146 0 0 0
SMALL
GASTEIGER

@<TRIPOS>ATOM
      1  N        -25.5120   -9.6450  -13.7960 N.3    21  GLN21      -0.1231
      2  CA       -25.5820   -8.2660  -13.3030 C.3    21  GLN21       0.1698
      3  C        -26.1470   -8.2040  -11.8960 C.2    21  GLN21       0.2593
      4  O        -27.2300   -8.7330  -11.6310 O.2    21  GLN21      -0.2718
      5  CB       -26.4130   -7.3830  -14.2670 C.3    21  GLN21       0.0381
      6  CG       -26.3080   -5.9210  -13.9330 C.3    21  GLN21       0.0905
      7  CD       -24.9300   -5.3700  -14.2310 C.2    21  GLN21       0.2608
      8  OE1      -24.3370   -5.5570  -15.3170 O.2    21  GLN21      -0.2717
      9  NE2      -24.3480   -4.6800  -13.2510 N.am   21  GLN21      -0.0878
     10  N        -25.3780   -7.5990  -11.0040 N.am   22  GLY22      -0.1942
     11  CA       -25.7460   -7.4340   -9.6050 C.3    22  GLY22       0.2014
     12  C        -25.4500   -8.6140   -8.6980 C.2    22  GLY22       0.2639
     13  O        -25.5200   -8.4590   -7.4740 O.2    22  GLY22      -0.2714
     14  N        -25.1260   -9.8090   -9.2710 N.am   23  HIS23      -0.1959
     15  CA       -24.8150  -10.9900   -8.4490 C.3    23  HIS23       0.1772
     16  C        -23.4910  -10.7900   -7.6810 C.2    23  HIS23       0.2462
     17  O        -22.4900  -10.3870   -8.2880 O.2    23  HIS23      -0.2730
     18  CB       -24.8110  -12.2990   -9.2720 C.3    23  HIS23       0.0785
     19  CG       -24.9150  -13.5310   -8.4220 C.ar   23  HIS23       0.0821
     20  ND1      -23.8780  -13.9170   -7.5760 N.ar   23  HIS23      -0.2267
     21  CD2      -25.9410  -14.4040   -8.2840 C.ar   23  HIS23       0.1154
     22  CE1      -24.3050  -15.0000   -6.9560 C.ar   23  HIS23       0.1986
     23  NE2      -25.5450  -15.3300   -7.3380 N.ar   23  HIS23      -0.2212
     24  N        -23.4760  -11.0210   -6.3530 N.am   24  PRO24      -0.2727
     25  CA       -22.2340  -10.7780   -5.5730 C.3    24  PRO24       0.1402
     26  C        -21.0440  -11.7100   -5.8580 C.2    24  PRO24       0.2269
     27  O        -19.9000  -11.2950   -5.6480 O.2    24  PRO24      -0.2865
     28  CB       -22.7050  -10.8950   -4.1170 C.3    24  PRO24       0.0296
     29  CG       -23.8930  -11.7790   -4.1740 C.3    24  PRO24       0.0237
     30  CD       -24.5780  -11.4560   -5.4690 C.3    24  PRO24       0.0939
     31  N        -31.8900  -18.6760   -9.3830 N.3    93  GLU93      -0.1231
     32  CA       -31.9820  -17.4130   -8.6280 C.3    93  GLU93       0.1699
     33  C        -30.6920  -17.0450   -7.8770 C.2    93  GLU93       0.2592
     34  O        -29.9550  -16.1730   -8.3510 O.2    93  GLU93      -0.2718
     35  CB       -33.2100  -17.4210   -7.6960 C.3    93  GLU93       0.0402
     36  CG       -33.4820  -16.1390   -6.9120 C.3    93  GLU93       0.1161
     37  CD       -33.7320  -14.8920   -7.7400 C.2    93  GLU93       0.3649
     38  OE1      -34.8230  -14.7820   -8.3460 O.co2  93  GLU93      -0.2457
     39  OE2      -32.8320  -14.0220   -7.7800 O.co2  93  GLU93      -0.2457
     40  N        -30.4320  -17.6850   -6.7140 N.am   94  ASP94      -0.1974
     41  CA       -29.2200  -17.5060   -5.9080 C.3    94  ASP94       0.1709
     42  C        -28.0560  -18.1730   -6.6420 C.2    94  ASP94       0.2293
     43  O        -26.9290  -17.6680   -6.6260 O.2    94  ASP94      -0.2864
     44  CB       -29.4110  -18.1820   -4.5380 C.3    94  ASP94       0.1436
     45  CG       -28.9060  -17.4090   -3.3360 C.2    94  ASP94       0.3671
     46  OD1      -28.9290  -16.1540   -3.3810 O.co2  94  ASP94      -0.2456
     47  OD2      -28.5030  -18.0580   -2.3440 O.co2  94  ASP94      -0.2456
     48  N        -18.2920  -25.1540   -0.4960 N.3   135  HIS135     -0.1226
     49  CA       -18.7770  -25.9370    0.6390 C.3   135  HIS135      0.1752
     50  C        -20.2720  -26.1750    0.7570 C.2   135  HIS135      0.2596
     51  O        -20.6400  -27.0340    1.5520 O.2   135  HIS135     -0.2718
     52  CB       -18.2670  -25.3340    1.9830 C.3   135  HIS135      0.0759
     53  CG       -18.6580  -23.9130    2.3050 C.ar  135  HIS135      0.0818
     54  ND1      -18.2600  -23.3220    3.4950 N.ar  135  HIS135     -0.2268
     55  CD2      -19.3190  -22.9870    1.5720 C.ar  135  HIS135      0.1154
     56  CE1      -18.7150  -22.0860    3.4570 C.ar  135  HIS135      0.1986
     57  NE2      -19.3520  -21.8350    2.3240 N.ar  135  HIS135     -0.2212
     58  N        -21.1350  -25.4110    0.0630 N.am  136  HIS136     -0.1975
     59  CA       -22.5900  -25.5570    0.1970 C.3   136  HIS136      0.1656
     60  C        -23.2270  -26.5970   -0.7010 C.2   136  HIS136      0.2291
     61  O        -24.2760  -27.1200   -0.3300 O.2   136  HIS136     -0.2864
     62  CB       -23.3160  -24.2280   -0.0320 C.3   136  HIS136      0.0771
     63  CG       -23.0060  -23.1760    0.9590 C.ar  136  HIS136      0.0820
     64  ND1      -23.0960  -23.4180    2.3340 N.ar  136  HIS136     -0.2267
     65  CD2      -22.6440  -21.8940    0.7570 C.ar  136  HIS136      0.1154
     66  CE1      -22.7860  -22.2730    2.9130 C.ar  136  HIS136      0.1986
     67  NE2      -22.5020  -21.3280    2.0050 N.ar  136  HIS136     -0.2212
     68  N        -26.0960  -21.5160   -2.0810 N.3   144  GLY144     -0.1210
     69  CA       -25.1600  -20.4290   -1.8070 C.3   144  GLY144      0.1956
     70  C        -24.0640  -20.2040   -2.8230 C.2   144  GLY144      0.2612
     71  O        -22.8980  -20.0810   -2.4410 O.2   144  GLY144     -0.2717
     72  N        -24.4190  -20.1560   -4.1190 N.am  145  PHE145     -0.1962
     73  CA       -23.4970  -19.9260   -5.2460 C.3   145  PHE145      0.1771
     74  C        -22.5980  -21.1480   -5.5590 C.2   145  PHE145      0.2619
     75  O        -21.6860  -21.0550   -6.3880 O.2   145  PHE145     -0.2715
     76  CB       -22.6500  -18.6260   -5.0610 C.3   145  PHE145      0.0574
     77  CG       -23.2770  -17.4400   -4.3340 C.ar  145  PHE145     -0.0200
     78  CD1      -24.6450  -17.1770   -4.4310 C.ar  145  PHE145     -0.0042
     79  CD2      -22.4920  -16.5600   -3.5970 C.ar  145  PHE145     -0.0042
     80  CE1      -25.2150  -16.0810   -3.7700 C.ar  145  PHE145     -0.0003
     81  CE2      -23.0580  -15.4360   -2.9890 C.ar  145  PHE145     -0.0003
     82  CZ       -24.4150  -15.2070   -3.0760 C.ar  145  PHE145     -0.0000
     83  N        -22.8990  -22.2970   -4.9520 N.am  146  CYS146     -0.1968
     84  CA       -22.1270  -23.5200   -5.0970 C.3   146  CYS146      0.1712
     85  C        -22.9120  -24.5580   -5.8740 C.2   146  CYS146      0.2296
     86  O        -23.9790  -24.9310   -5.4370 O.2   146  CYS146     -0.2864
     87  CB       -21.7120  -24.0460   -3.7220 C.3   146  CYS146      0.0983
     88  SG       -20.8520  -22.8330   -2.6810 S.3   146  CYS146     -0.0798
     89  N        -14.6180  -19.7120    6.5030 N.3   171  ASP171     -0.1239
     90  CA       -15.5730  -18.8980    5.7590 C.3   171  ASP171      0.1674
     91  C        -16.5830  -18.3800    6.8140 C.2   171  ASP171      0.2266
     92  O        -16.7560  -19.0340    7.8480 O.2   171  ASP171     -0.2867
     93  CB       -16.3150  -19.8170    4.7890 C.3   171  ASP171      0.1410
     94  CG       -17.1270  -19.1350    3.7090 C.2   171  ASP171      0.3668
     95  OD1      -18.2200  -18.6330    4.0240 O.co2 171  ASP171     -0.2456
     96  OD2      -16.6730  -19.1380    2.5340 O.co2 171  ASP171     -0.2456
     97  N        -19.7260  -18.4600    6.6420 N.3   173  HIS173     -0.1241
     98  CA       -20.8860  -19.3500    6.6130 C.3   173  HIS173      0.1621
     99  C        -20.4990  -20.7790    6.9710 C.2   173  HIS173      0.2264
    100  O        -19.3590  -21.1930    6.7560 O.2   173  HIS173     -0.2867
    101  CB       -21.5660  -19.3170    5.2300 C.3   173  HIS173      0.0745
    102  CG       -21.9830  -17.9460    4.7990 C.ar  173  HIS173      0.0817
    103  ND1      -21.1640  -17.1580    3.9860 N.ar  173  HIS173     -0.2268
    104  CD2      -23.1220  -17.2600    5.0580 C.ar  173  HIS173      0.1154
    105  CE1      -21.8430  -16.0340    3.7690 C.ar  173  HIS173      0.1986
    106  NE2      -23.0180  -16.0430    4.4050 N.ar  173  HIS173     -0.2212
    107  N        -27.5860  -17.4430    6.7860 N.3   200  PHE200     -0.1241
    108  CA       -27.3760  -18.5180    5.8260 C.3   200  PHE200      0.1605
    109  C        -26.1990  -19.4350    6.2410 C.2   200  PHE200      0.2264
    110  O        -25.1730  -18.9170    6.6530 O.2   200  PHE200     -0.2867
    111  CB       -27.1020  -17.9140    4.4430 C.3   200  PHE200      0.0534
    112  CG       -27.0680  -18.9430    3.3380 C.ar  200  PHE200     -0.0203
    113  CD1      -28.2460  -19.3550    2.7040 C.ar  200  PHE200     -0.0042
    114  CD2      -25.8670  -19.5160    2.9380 C.ar  200  PHE200     -0.0042
    115  CE1      -28.2070  -20.3220    1.6960 C.ar  200  PHE200     -0.0003
    116  CE2      -25.8410  -20.4890    1.9490 C.ar  200  PHE200     -0.0003
    117  CZ       -27.0050  -20.8810    1.3270 C.ar  200  PHE200     -0.0000
    118  N        -15.0480  -14.0480    3.1520 N.3   259  ASP259     -0.1239
    119  CA       -16.2480  -13.3020    3.5780 C.3   259  ASP259      0.1674
    120  C        -16.3050  -13.1140    5.1270 C.2   259  ASP259      0.2266
    121  O        -17.2180  -12.4620    5.6480 O.2   259  ASP259     -0.2867
    122  CB       -17.5320  -13.9170    3.0070 C.3   259  ASP259      0.1410
    123  CG       -17.6440  -15.4120    3.1980 C.2   259  ASP259      0.3668
    124  OD1      -16.8370  -15.9870    3.9810 O.co2 259  ASP259     -0.2456
    125  OD2      -18.5500  -15.9980    2.6270 O.co2 259  ASP259     -0.2456
    126  N        -21.3700   -9.3030    2.0470 N.3   266  LEU266     -0.1245
    127  CA       -22.3730  -10.1850    2.6510 C.3   266  LEU266      0.1561
    128  C        -22.0370  -10.6370    4.1070 C.2   266  LEU266      0.2260
    129  O        -22.8920  -11.1910    4.7800 O.2   266  LEU266     -0.2867
    130  CB       -22.7040  -11.4220    1.7890 C.3   266  LEU266      0.0270
    131  CG       -22.8650  -11.3620    0.2710 C.3   266  LEU266      0.0019
    132  CD1      -23.4070  -12.6980   -0.2560 C.3   266  LEU266      0.0001
    133  CD2      -23.6880  -10.1870   -0.2190 C.3   266  LEU266      0.0001
    134  N        -16.3010  -18.0600   -0.1130 N.3   296  GLY296     -0.1225
    135  CA       -16.9450  -16.7600   -0.2660 C.3   296  GLY296      0.1811
    136  C        -15.9620  -15.6030   -0.2020 C.2   296  GLY296      0.2280
    137  O        -14.7690  -15.8030    0.0220 O.2   296  GLY296     -0.2866
    138  N        -16.8760  -11.1530   -0.9770 N.3   298  TYR298     -0.1241
    139  CA       -17.6760  -10.3060   -1.8690 C.3   298  TYR298      0.1605
    140  C        -17.1890   -8.8440   -1.9730 C.2   298  TYR298      0.2264
    141  O        -17.7090   -8.1020   -2.7980 O.2   298  TYR298     -0.2867
    142  CB       -19.1850  -10.4400   -1.4810 C.3   298  TYR298      0.0534
    143  CG       -19.5670  -11.9080   -1.4730 C.ar  298  TYR298     -0.0201
    144  CD1      -19.6380  -12.6320   -2.6630 C.ar  298  TYR298     -0.0009
    145  CD2      -19.6170  -12.6260   -0.2800 C.ar  298  TYR298     -0.0009
    146  CE1      -19.8230  -14.0120   -2.6650 C.ar  298  TYR298      0.0417
    147  CE2      -19.8450  -14.0040   -0.2690 C.ar  298  TYR298      0.0417
    148  CZ       -19.9490  -14.6920   -1.4660 C.ar  298  TYR298      0.1957
    149  OH       -20.1230  -16.0550   -1.4790 O.3   298  TYR298     -0.2866
@<TRIPOS>BOND
     1     8     7    2
     2     5     6    1
     3     5     2    1
     4     7     6    1
     5     7     9   am
     6     1     2    1
     7     2     3    1
     8     3     4    2
     9     3    10   am
    10    10    11    1
    11    11    12    1
    12    31    32    1
    13    18    15    1
    14    18    19    1
    15    14    12   am
    16    14    15    1
    17    12    13    2
    18    32    33    1
    19    32    35    1
    20    15    16    1
    21    19    21   ar
    22    19    20   ar
    23    34    33    2
    24    38    37   ar
    25    17    16    2
    26    21    23   ar
    27    33    40   am
    28    39    37   ar
    29    37    36    1
    30    35    36    1
    31    16    24   am
    32    20    22   ar
    33    23    22   ar
    34    40    41    1
    35    42    43    2
    36    42    41    1
    37    75    74    2
    38    24    25    1
    39    24    30    1
    40    41    44    1
    41    85    86    2
    42    85    84    1
    43    26    27    2
    44    26    25    1
    45    25    28    1
    46    74    73    1
    47    74    83   am
    48    30    29    1
    49    73    76    1
    50    73    72    1
    51    84    83    1
    52    84    87    1
    53    76    77    1
    54    44    45    1
    55    78    77   ar
    56    78    80   ar
    57    77    79   ar
    58    29    28    1
    59    72    70   am
    60    80    82   ar
    61    87    88    1
    62    79    81   ar
    63    46    45   ar
    64    45    47   ar
    65    82    81   ar
    66    70    71    2
    67    70    69    1
    68   141   140    2
    69   146   144   ar
    70   146   148   ar
    71   144   143   ar
    72    68    69    1
    73   140   139    1
    74   139   142    1
    75   139   138    1
    76   142   143    1
    77   149   148    1
    78   143   145   ar
    79   148   147   ar
    80    60    61    2
    81    60    59    1
    82    48    49    1
    83   145   147   ar
    84   135   136    1
    85   135   134    1
    86   132   131    1
    87   133   131    1
    88   136   137    2
    89    62    59    1
    90    62    63    1
    91    58    59    1
    92    58    50   am
    93   131   130    1
    94    49    50    1
    95    49    52    1
    96    65    63   ar
    97    65    67   ar
    98    50    51    2
    99    63    64   ar
   100   117   115   ar
   101   117   116   ar
   102    55    53   ar
   103    55    57   ar
   104   115   113   ar
   105   130   127    1
   106   116   114   ar
   107    52    53    1
   108    67    66   ar
   109   126   127    1
   110    53    54   ar
   111    57    56   ar
   112    64    66   ar
   113    96    94   ar
   114   125   123   ar
   115   127   128    1
   116   113   112   ar
   117   114   112   ar
   118   122   123    1
   119   122   119    1
   120   118   119    1
   121   123   124   ar
   122   112   111    1
   123    56    54   ar
   124   119   120    1
   125    94    95   ar
   126    94    93    1
   127   105   103   ar
   128   105   106   ar
   129   103   102   ar
   130   128   129    2
   131   106   104   ar
   132   111   108    1
   133    93    90    1
   134   102   104   ar
   135   102   101    1
   136   120   121    2
   137   101    98    1
   138    90    89    1
   139    90    91    1
   140   108   109    1
   141   108   107    1
   142   109   110    2
   143    98    97    1
   144    98    99    1
   145   100    99    2
   146    91    92    2
