@<TRIPOS>MOLECULE
tmp/6g3qA00.pdb
 149 144 0 0 0
SMALL
GASTEIGER

@<TRIPOS>ATOM
      1  N         -8.3780    0.4040    5.8430 N.3    67  ASN67      -0.1240
      2  CA        -9.2020    1.3400    6.5930 C.3    67  ASN67       0.1653
      3  C        -10.4040    1.7580    5.7680 C.2    67  ASN67       0.2266
      4  O        -10.2400    2.1640    4.6130 O.2    67  ASN67      -0.2867
      5  CB        -8.4310    2.6080    6.9380 C.3    67  ASN67       0.1155
      6  CG        -7.2470    2.3680    7.8440 C.2    67  ASN67       0.2627
      7  OD1       -7.1530    1.3500    8.5330 O.2    67  ASN67      -0.2716
      8  ND2       -6.3270    3.3250    7.8490 N.am   67  ASN67      -0.0877
      9  N        -12.5100    6.1690   11.2050 N.3    92  GLN92      -0.1245
     10  CA       -12.2590    5.0110   10.3550 C.3    92  GLN92       0.1566
     11  C        -12.5240    3.7470   11.1210 C.2    92  GLN92       0.2260
     12  O        -12.5280    3.7600   12.3480 O.2    92  GLN92      -0.2867
     13  CB       -10.8150    5.0180    9.8300 C.3    92  GLN92       0.0367
     14  CG        -9.7370    5.0780   10.9080 C.3    92  GLN92       0.0905
     15  CD        -9.0050    3.7680   11.1150 C.2    92  GLN92       0.2608
     16  OE1       -9.6060    2.6970   11.1610 O.2    92  GLN92      -0.2717
     17  NE2       -7.6970    3.8520   11.3000 N.am   92  GLN92      -0.0878
     18  N        -11.1300   -0.5480   10.8610 N.3    94  HIS94      -0.1241
     19  CA       -10.2550   -1.5320   10.2490 C.3    94  HIS94       0.1621
     20  C        -10.3360   -2.7990   11.0840 C.2    94  HIS94       0.2264
     21  O        -10.9680   -2.8200   12.1390 O.2    94  HIS94      -0.2867
     22  CB        -8.8120   -1.0220   10.2130 C.3    94  HIS94       0.0745
     23  CG        -8.2700   -0.7660   11.5800 C.ar   94  HIS94       0.0817
     24  ND1       -8.4300    0.4400   12.2230 N.ar   94  HIS94      -0.2268
     25  CD2       -7.6630   -1.5890   12.4680 C.ar   94  HIS94       0.1154
     26  CE1       -7.9450    0.3500   13.4490 C.ar   94  HIS94       0.1986
     27  NE2       -7.4600   -0.8660   13.6190 N.ar   94  HIS94      -0.2212
     28  N         -8.0420   -6.5250   12.4280 N.3    96  HIS96      -0.1241
     29  CA        -6.8410   -7.3290   12.6120 C.3    96  HIS96       0.1621
     30  C         -7.2790   -8.7830   12.4920 C.2    96  HIS96       0.2264
     31  O         -8.3440   -9.1340   12.9850 O.2    96  HIS96      -0.2867
     32  CB        -6.2020   -7.0940   13.9910 C.3    96  HIS96       0.0745
     33  CG        -5.9060   -5.6590   14.2690 C.ar   96  HIS96       0.0817
     34  ND1       -4.6510   -5.1110   14.1270 N.ar   96  HIS96      -0.2268
     35  CD2       -6.7150   -4.6470   14.6580 C.ar   96  HIS96       0.1154
     36  CE1       -4.7050   -3.8250   14.4170 C.ar   96  HIS96       0.1986
     37  NE2       -5.9480   -3.5170   14.7240 N.ar   96  HIS96      -0.2212
     38  N        -11.9430   -2.7310   14.8090 N.3   119  HIS119     -0.1241
     39  CA       -11.7150   -1.5010   15.5620 C.3   119  HIS119      0.1621
     40  C        -12.3940   -0.3280   14.8680 C.2   119  HIS119      0.2264
     41  O        -12.0270    0.0110   13.7370 O.2   119  HIS119     -0.2867
     42  CB       -10.2220   -1.2160   15.6820 C.3   119  HIS119      0.0745
     43  CG        -9.5290   -2.1820   16.5780 C.ar  119  HIS119      0.0817
     44  ND1       -8.1700   -2.3950   16.5750 N.ar  119  HIS119     -0.2268
     45  CD2      -10.0410   -3.0180   17.5110 C.ar  119  HIS119      0.1154
     46  CE1       -7.8710   -3.3050   17.4830 C.ar  119  HIS119      0.1986
     47  NE2       -8.9890   -3.6970   18.0660 N.ar  119  HIS119     -0.2212
     48  N        -12.6290    3.4700   15.1900 N.3   121  VAL121     -0.1245
     49  CA       -11.7690    4.4780   15.8110 C.3   121  VAL121      0.1561
     50  C        -12.4850    5.8230   15.8310 C.2   121  VAL121      0.2260
     51  O        -12.9380    6.2980   14.7890 O.2   121  VAL121     -0.2867
     52  CB       -10.4410    4.6110   15.0380 C.3   121  VAL121      0.0252
     53  CG1       -9.5240    5.6390   15.6940 C.3   121  VAL121      0.0019
     54  CG2       -9.7330    3.2690   14.9290 C.3   121  VAL121      0.0019
     55  N         -8.0340   14.9660   14.7420 N.3   130  PHE130     -0.1227
     56  CA        -7.5050   13.6770   15.1460 C.3   130  PHE130      0.1736
     57  C         -6.0540   13.7820   15.6110 C.2   130  PHE130      0.2596
     58  O         -5.6580   13.1590   16.5960 O.2   130  PHE130     -0.2718
     59  CB        -7.6370   12.6870   13.9850 C.3   130  PHE130      0.0547
     60  CG        -7.1230   11.3220   14.2980 C.ar  130  PHE130     -0.0202
     61  CD1       -7.9280   10.3980   14.9380 C.ar  130  PHE130     -0.0042
     62  CD2       -5.8300   10.9590   13.9680 C.ar  130  PHE130     -0.0042
     63  CE1       -7.4620    9.1300   15.2310 C.ar  130  PHE130     -0.0003
     64  CE2       -5.3600    9.6990   14.2710 C.ar  130  PHE130     -0.0003
     65  CZ        -6.1760    8.7770   14.8980 C.ar  130  PHE130     -0.0000
     66  N         -5.2520   14.5530   14.8820 N.am  131  GLY131     -0.1957
     67  CA        -3.8430   14.6960   15.2150 C.3   131  GLY131      0.1869
     68  C         -3.6170   15.3150   16.5810 C.2   131  GLY131      0.2309
     69  O         -2.6590   14.9730   17.2700 O.2   131  GLY131     -0.2863
     70  N         -4.7700   12.5100   19.4070 N.3   134  VAL134     -0.1245
     71  CA        -3.8680   11.4090   19.7670 C.3   134  VAL134      0.1561
     72  C         -2.7810   11.8180   20.7570 C.2   134  VAL134      0.2260
     73  O         -2.0930   10.9640   21.3040 O.2   134  VAL134     -0.2867
     74  CB        -3.2030   10.7170   18.5590 C.3   134  VAL134      0.0252
     75  CG1       -4.2410   10.0700   17.6550 C.3   134  VAL134      0.0019
     76  CG2       -2.3030   11.6600   17.7730 C.3   134  VAL134      0.0019
     77  N         -8.9290    9.4600   22.1680 N.3   140  LEU140     -0.1245
     78  CA        -9.6110    8.5130   21.2880 C.3   140  LEU140      0.1561
     79  C        -10.4630    7.5440   22.0850 C.2   140  LEU140      0.2260
     80  O        -10.2000    7.2690   23.2510 O.2   140  LEU140     -0.2867
     81  CB        -8.6190    7.6810   20.4620 C.3   140  LEU140      0.0270
     82  CG        -7.6660    8.3480   19.4680 C.3   140  LEU140      0.0019
     83  CD1       -7.0550    7.2810   18.5690 C.3   140  LEU140      0.0001
     84  CD2       -8.3600    9.3870   18.6110 C.3   140  LEU140      0.0001
     85  N        -11.8110    3.6800   21.0380 N.3   142  VAL142     -0.1245
     86  CA       -11.8590    2.6270   20.0360 C.3   142  VAL142      0.1561
     87  C        -12.8230    1.5720   20.5310 C.2   142  VAL142      0.2260
     88  O        -12.6980    1.0620   21.6510 O.2   142  VAL142     -0.2867
     89  CB       -10.4790    2.0340   19.6960 C.3   142  VAL142      0.0252
     90  CG1      -10.6300    1.0200   18.5710 C.3   142  VAL142      0.0019
     91  CG2       -9.5100    3.1420   19.2840 C.3   142  VAL142      0.0019
     92  N         -2.9780    3.0700   21.2400 N.3   197  LEU197     -0.1231
     93  CA        -2.9830    2.5290   19.8890 C.3   197  LEU197      0.1693
     94  C         -2.2260    1.2010   19.8980 C.2   197  LEU197      0.2593
     95  O         -1.2270    1.0640   20.6110 O.2   197  LEU197     -0.2718
     96  CB        -2.2720    3.4830   18.9340 C.3   197  LEU197      0.0284
     97  CG        -2.8170    4.8940   18.8350 C.3   197  LEU197      0.0019
     98  CD1       -1.9490    5.7340   17.9070 C.3   197  LEU197      0.0001
     99  CD2       -4.2550    4.8850   18.3650 C.3   197  LEU197      0.0001
    100  N         -2.6680    0.2420   19.0840 N.am  198  THR198     -0.1939
    101  CA        -1.9940   -1.0510   19.0160 C.3   198  THR198      0.2028
    102  C         -1.0010   -1.1540   17.8670 C.2   198  THR198      0.2643
    103  O         -0.3720   -2.1980   17.7040 O.2   198  THR198     -0.2714
    104  CB        -2.9820   -2.2180   18.9140 C.3   198  THR198      0.1808
    105  OG1       -3.5980   -2.1670   17.6270 O.3   198  THR198     -0.2208
    106  CG2       -4.0120   -2.1710   20.0410 C.3   198  THR198      0.0379
    107  N         -0.8420   -0.0720   17.0980 N.am  199  THR199     -0.1937
    108  CA         0.2240    0.0320   16.1100 C.3   199  THR199      0.2013
    109  C          1.0560    1.2550   16.4300 C.2   199  THR199      0.2484
    110  O          0.5640    2.2030   17.0440 O.2   199  THR199     -0.2729
    111  CB        -0.2960    0.1970   14.6730 C.3   199  THR199      0.1807
    112  OG1       -1.0760    1.3860   14.5610 O.3   199  THR199     -0.2208
    113  CG2       -1.1470   -0.9540   14.2760 C.3   199  THR199      0.0379
    114  N          2.3220    1.2560   15.9900 N.am  200  PRO200     -0.2715
    115  CA         3.1070    2.4760   16.0600 C.3   200  PRO200      0.1521
    116  C          2.2940    3.6430   15.5200 C.2   200  PRO200      0.2440
    117  O          1.6280    3.4800   14.4940 O.2   200  PRO200     -0.2731
    118  CB         4.3120    2.1380   15.1970 C.3   200  PRO200      0.0310
    119  CG         4.5100    0.6870   15.4590 C.3   200  PRO200      0.0237
    120  CD         3.1070    0.1490   15.4220 C.3   200  PRO200      0.0939
    121  N          2.3070    4.8000   16.1800 N.am  201  PRO201     -0.2727
    122  CA         3.2280    5.1770   17.2630 C.3   201  PRO201      0.1402
    123  C          2.8470    4.7520   18.7020 C.2   201  PRO201      0.2269
    124  O          3.5020    5.2010   19.6480 O.2   201  PRO201     -0.2865
    125  CB         3.2360    6.7040   17.1560 C.3   201  PRO201      0.0296
    126  CG         1.8720    7.0450   16.6520 C.3   201  PRO201      0.0237
    127  CD         1.5280    5.9470   15.6870 C.3   201  PRO201      0.0939
    128  N          0.6040    5.3990   20.8440 N.3   203  LEU203     -0.1245
    129  CA         0.3150    6.5020   21.7520 C.3   203  LEU203      0.1561
    130  C         -0.7500    6.1070   22.7640 C.2   203  LEU203      0.2260
    131  O         -1.7230    5.4190   22.4440 O.2   203  LEU203     -0.2867
    132  CB        -0.1300    7.7320   20.9630 C.3   203  LEU203      0.0270
    133  CG         0.9530    8.3270   20.0600 C.3   203  LEU203      0.0019
    134  CD1        0.3400    9.3850   19.1620 C.3   203  LEU203      0.0001
    135  CD2        2.1100    8.9040   20.8630 C.3   203  LEU203      0.0001
    136  N        -10.4550    2.2200   25.6080 N.3   208  TRP208     -0.1241
    137  CA       -10.8970    1.0180   24.9200 C.3   208  TRP208      0.1605
    138  C        -12.2700    0.6100   25.4170 C.2   208  TRP208      0.2264
    139  O        -12.5110    0.5800   26.6240 O.2   208  TRP208     -0.2867
    140  CB        -9.8970   -0.1370   25.1210 C.3   208  TRP208      0.0550
    141  CG        -8.7820   -0.0210   24.1540 C.ar  208  TRP208      0.0003
    142  CD1       -7.5620    0.5540   24.3450 C.ar  208  TRP208      0.0946
    143  CD2       -8.8240   -0.4290   22.7850 C.ar  208  TRP208      0.0152
    144  NE1       -6.8430    0.5310   23.1730 N.ar  208  TRP208     -0.2442
    145  CE2       -7.5930   -0.0780   22.1980 C.ar  208  TRP208      0.0810
    146  CE3       -9.7890   -1.0660   21.9990 C.ar  208  TRP208      0.0012
    147  CZ2       -7.3110   -0.3370   20.8610 C.ar  208  TRP208      0.0191
    148  CZ3       -9.5020   -1.3430   20.6930 C.ar  208  TRP208      0.0001
    149  CH2       -8.2760   -0.9810   20.1280 C.ar  208  TRP208      0.0015
@<TRIPOS>BOND
     1     4     3    2
     2     3     2    1
     3     1     2    1
     4     2     5    1
     5     5     6    1
     6     6     8   am
     7     6     7    2
     8    13    10    1
     9    13    14    1
    10    22    19    1
    11    22    23    1
    12    19    18    1
    13    19    20    1
    14    10    11    1
    15    10     9    1
    16    14    15    1
    17    20    21    2
    18    15    16    2
    19    15    17   am
    20    11    12    2
    21    23    24   ar
    22    23    25   ar
    23    24    26   ar
    24    28    29    1
    25    25    27   ar
    26    30    29    1
    27    30    31    2
    28    29    32    1
    29    26    27   ar
    30    41    40    2
    31    62    64   ar
    32    62    60   ar
    33    59    60    1
    34    59    56    1
    35    32    33    1
    36    34    33   ar
    37    34    36   ar
    38    33    35   ar
    39    64    65   ar
    40   113   111    1
    41    60    61   ar
    42    36    37   ar
    43   117   116    2
    44   112   111    1
    45    35    37   ar
    46   111   108    1
    47    55    56    1
    48    51    50    2
    49    38    39    1
    50    40    39    1
    51    66    67    1
    52    66    57   am
    53    65    63   ar
    54    54    52    1
    55    61    63   ar
    56    52    53    1
    57    52    49    1
    58    56    57    1
    59    48    49    1
    60   118   119    1
    61   118   115    1
    62    67    68    1
    63   120   119    1
    64   120   114    1
    65   116   115    1
    66   116   121   am
    67    39    42    1
    68    57    58    2
    69    42    43    1
    70   127   121    1
    71   127   126    1
    72    49    50    1
    73   114   115    1
    74   114   109   am
    75   108   109    1
    76   108   107    1
    77   121   122    1
    78   109   110    2
    79    44    43   ar
    80    44    46   ar
    81    43    45   ar
    82    68    69    2
    83   126   125    1
    84   107   102   am
    85   125   122    1
    86   122   123    1
    87    46    47   ar
    88    45    47   ar
    89   105   104    1
    90    75    74    1
    91   103   102    2
    92    76    74    1
    93   102   101    1
    94    98    97    1
    95    99    97    1
    96    74    71    1
    97    83    82    1
    98    90    89    1
    99    84    82    1
   100   123   124    2
   101    97    96    1
   102   104   101    1
   103   104   106    1
   104    96    93    1
   105   101   100    1
   106   100    94   am
   107   134   133    1
   108    91    89    1
   109    70    71    1
   110    82    81    1
   111    89    86    1
   112    71    72    1
   113    93    94    1
   114    93    92    1
   115    94    95    2
   116    86    87    1
   117    86    85    1
   118   133   135    1
   119   133   132    1
   120   149   148   ar
   121   149   147   ar
   122    81    78    1
   123    87    88    2
   124   148   146   ar
   125    72    73    2
   126   128   129    1
   127   147   145   ar
   128   132   129    1
   129    78    79    1
   130    78    77    1
   131   129   130    1
   132   146   143   ar
   133    79    80    2
   134   145   143   ar
   135   145   144   ar
   136   131   130    2
   137   143   141   ar
   138   144   142   ar
   139   141   142   ar
   140   141   140    1
   141   137   140    1
   142   137   138    1
   143   137   136    1
   144   138   139    2
