@<TRIPOS>MOLECULE
tmp/6g3uA01.pdb
 122 111 0 0 0
SMALL
GASTEIGER

@<TRIPOS>ATOM
      1  N          8.0280   40.4220   -8.8280 N.3    84  SER84      -0.1217
      2  CA         8.1000   39.2660   -7.9350 C.3    84  SER84       0.1889
      3  C          6.9950   38.3640   -8.4900 C.2    84  SER84       0.2288
      4  O          5.8110   38.5450   -8.1810 O.2    84  SER84      -0.2866
      5  CB         7.8360   39.6170   -6.4700 C.3    84  SER84       0.2089
      6  OG         8.9410   40.2050   -5.8230 O.3    84  SER84      -0.2183
      7  N          9.9550   36.9700   -4.5550 N.3   129  SER129     -0.1217
      8  CA        10.9590   38.0190   -4.4460 C.3   129  SER129      0.1889
      9  C         12.3170   37.3560   -4.3530 C.2   129  SER129      0.2288
     10  O         12.8200   37.0260   -3.2690 O.2   129  SER129     -0.2866
     11  CB        10.6900   38.9830   -3.2920 C.3   129  SER129      0.2089
     12  OG        10.3040   38.3230   -2.1090 O.3   129  SER129     -0.2183
     13  N         15.1680   41.2670   -4.1910 N.3   132  ASN132     -0.1240
     14  CA        15.3470   42.1670   -3.0530 C.3   132  ASN132      0.1653
     15  C         15.9530   41.5080   -1.8120 C.2   132  ASN132      0.2266
     16  O         16.8530   42.1240   -1.2060 O.2   132  ASN132     -0.2867
     17  CB        14.0080   42.8490   -2.7240 C.3   132  ASN132      0.1155
     18  CG        13.5460   43.7700   -3.8320 C.2   132  ASN132      0.2627
     19  OD1       14.3590   44.2900   -4.6030 O.2   132  ASN132     -0.2716
     20  ND2       12.2420   43.9700   -3.9300 N.am  132  ASN132     -0.0877
     21  N         19.2790   43.3500   -0.3240 N.3   136  ARG136     -0.1245
     22  CA        19.0950   44.2180    0.8430 C.3   136  ARG136      0.1563
     23  C         19.9500   43.7510    2.0100 C.2   136  ARG136      0.2260
     24  O         19.4880   43.0070    2.8780 O.2   136  ARG136     -0.2867
     25  CB        17.6230   44.2720    1.2330 C.3   136  ARG136      0.0307
     26  CG        16.7710   44.9400    0.1900 C.3   136  ARG136      0.0489
     27  CD        15.3210   44.9480    0.5510 C.3   136  ARG136      0.2205
     28  NE        14.6090   45.7680   -0.4000 N.pl3 136  ARG136     -0.0865
     29  CZ        13.3120   45.6980   -0.6340 C.cat 136  ARG136      0.5346
     30  NH1       12.5730   44.8370    0.0380 N.pl3 136  ARG136      0.1354
     31  NH2       12.7590   46.4820   -1.5470 N.pl3 136  ARG136      0.1354
     32  N         13.8120   55.5940    4.4030 N.3   142  ARG142     -0.1245
     33  CA        12.8800   56.0110    3.3630 C.3   142  ARG142      0.1563
     34  C         12.1440   57.2440    3.8450 C.2   142  ARG142      0.2260
     35  O         11.5010   57.2050    4.8990 O.2   142  ARG142     -0.2867
     36  CB        11.8940   54.8880    3.0230 C.3   142  ARG142      0.0307
     37  CG        12.4170   53.9140    1.9680 C.3   142  ARG142      0.0489
     38  CD        11.3750   52.8670    1.6200 C.3   142  ARG142      0.2205
     39  NE        11.8850   51.9120    0.6390 N.pl3 142  ARG142     -0.0865
     40  CZ        11.1860   50.9030    0.1230 C.cat 142  ARG142      0.5346
     41  NH1        9.9320   50.6920    0.4850 N.pl3 142  ARG142      0.1354
     42  NH2       11.7550   50.0900   -0.7540 N.pl3 142  ARG142      0.1354
     43  N         -0.6040   39.2670   -0.1620 N.3   251  LYS251     -0.1245
     44  CA         0.6690   39.4210   -0.8670 C.3   251  LYS251      0.1561
     45  C          1.1270   38.0510   -1.3850 C.2   251  LYS251      0.2260
     46  O          2.1080   37.4650   -0.9100 O.2   251  LYS251     -0.2867
     47  CB         1.7310   40.0690    0.0290 C.3   251  LYS251      0.0271
     48  CG         2.9760   40.5070   -0.7670 C.3   251  LYS251      0.0035
     49  CD         3.7000   41.6910   -0.1700 C.3   251  LYS251      0.0206
     50  CE         4.2060   42.5750   -1.2460 C.3   251  LYS251      0.1093
     51  NZ         5.4510   43.2400   -0.8400 N.3   251  LYS251     -0.1314
     52  N          2.5380   37.4230   -4.1070 N.3   253  THR253     -0.1203
     53  CA         3.8260   37.4960   -4.7960 C.3   253  THR253      0.1994
     54  C          4.9820   37.1450   -3.8600 C.2   253  THR253      0.2617
     55  O          5.7370   36.2050   -4.1070 O.2   253  THR253     -0.2717
     56  CB         4.0050   38.8980   -5.3690 C.3   253  THR253      0.1784
     57  OG1        4.2470   39.8170   -4.2860 O.3   253  THR253     -0.2211
     58  CG2        2.7490   39.3140   -6.0970 C.3   253  THR253      0.0376
     59  N          5.1900   37.9570   -2.8270 N.am  254  MET254     -0.1979
     60  CA         6.3540   37.7940   -1.9700 C.3   254  MET254      0.1605
     61  C          6.1970   36.5840   -1.0750 C.2   254  MET254      0.2287
     62  O          7.1680   35.8640   -0.8140 O.2   254  MET254     -0.2864
     63  CB         6.5730   39.0510   -1.1300 C.3   254  MET254      0.0413
     64  CG         7.8070   38.9850   -0.2430 C.3   254  MET254      0.0598
     65  SD         7.4910   38.1980    1.3530 S.3   254  MET254     -0.1393
     66  CE         6.9370   39.5580    2.3780 C.3   254  MET254      0.0692
     67  N         -0.1560   45.8880   -0.2630 N.3   346  ASP346     -0.1239
     68  CA         0.5570   47.1270    0.0280 C.3   346  ASP346      0.1674
     69  C          0.2970   48.2120   -1.0210 C.2   346  ASP346      0.2266
     70  O          0.3140   49.4100   -0.7010 O.2   346  ASP346     -0.2867
     71  CB         2.0550   46.8390    0.1450 C.3   346  ASP346      0.1410
     72  CG         2.6910   46.3640   -1.1830 C.2   346  ASP346      0.3668
     73  OD1        1.9750   45.9260   -2.1150 O.co2 346  ASP346     -0.2456
     74  OD2        3.9370   46.4400   -1.2920 O.co2 346  ASP346     -0.2456
     75  N         10.7040   37.4970    5.6360 N.3   416  TYR416     -0.1241
     76  CA        11.1870   37.4590    4.2620 C.3   416  TYR416      0.1605
     77  C         12.0340   36.2220    3.9890 C.2   416  TYR416      0.2264
     78  O         12.1030   35.7660    2.8370 O.2   416  TYR416     -0.2867
     79  CB        11.9730   38.7280    3.9330 C.3   416  TYR416      0.0534
     80  CG        11.0990   39.8090    3.3380 C.ar  416  TYR416     -0.0201
     81  CD1       10.4220   40.6990    4.1510 C.ar  416  TYR416     -0.0009
     82  CD2       10.9270   39.9190    1.9650 C.ar  416  TYR416     -0.0009
     83  CE1        9.6260   41.6770    3.6350 C.ar  416  TYR416      0.0417
     84  CE2       10.1220   40.9010    1.4260 C.ar  416  TYR416      0.0417
     85  CZ         9.4670   41.7820    2.2730 C.ar  416  TYR416      0.1957
     86  OH         8.6500   42.7770    1.7630 O.3   416  TYR416     -0.2866
     87  N          7.6960   48.1290    7.0200 N.3   543  ARG543     -0.1231
     88  CA         8.4990   48.9910    6.1520 C.3   543  ARG543      0.1694
     89  C          7.8960   49.0470    4.7520 C.2   543  ARG543      0.2592
     90  O          7.7060   50.1240    4.1680 O.2   543  ARG543     -0.2718
     91  CB         9.9390   48.4740    6.1080 C.3   543  ARG543      0.0321
     92  CG        10.8130   49.0160    5.0000 C.3   543  ARG543      0.0489
     93  CD        11.8840   47.9540    4.6620 C.3   543  ARG543      0.2205
     94  NE        11.2080   46.7520    4.1800 N.pl3 543  ARG543     -0.0865
     95  CZ        10.9510   46.5210    2.8970 C.cat 543  ARG543      0.5346
     96  NH1       11.3530   47.3820    1.9800 N.pl3 543  ARG543      0.1354
     97  NH2       10.2770   45.4380    2.5410 N.pl3 543  ARG543      0.1354
     98  N          7.5410   47.8840    4.2220 N.am  544  ASP544     -0.1974
     99  CA         6.8580   47.8310    2.9440 C.3   544  ASP544      0.1709
    100  C          5.5050   48.5520    2.9950 C.2   544  ASP544      0.2293
    101  O          5.2700   49.4900    2.2340 O.2   544  ASP544     -0.2864
    102  CB         6.7110   46.3690    2.5380 C.3   544  ASP544      0.1436
    103  CG         5.8350   46.1900    1.3510 C.2   544  ASP544      0.3671
    104  OD1        5.7130   47.1360    0.5520 O.co2 544  ASP544     -0.2456
    105  OD2        5.2510   45.0980    1.2280 O.co2 544  ASP544     -0.2456
    106  N          4.4370   52.5780    1.2170 N.3   548  ASP548     -0.1239
    107  CA         3.3990   52.6890    0.2050 C.3   548  ASP548      0.1674
    108  C          2.2620   53.5720    0.7130 C.2   548  ASP548      0.2266
    109  O          1.8290   54.4930    0.0230 O.2   548  ASP548     -0.2867
    110  CB         2.8790   51.2940   -0.1440 C.3   548  ASP548      0.1410
    111  CG         3.2680   50.8180   -1.5440 C.2   548  ASP548      0.3668
    112  OD1        3.9170   51.5430   -2.3160 O.co2 548  ASP548     -0.2456
    113  OD2        2.8850   49.6800   -1.8770 O.co2 548  ASP548     -0.2456
    114  N          9.6800   53.9560   -3.4370 N.3   578  ALA578     -0.1231
    115  CA         9.1240   52.8430   -2.6740 C.3   578  ALA578      0.1694
    116  C          7.9840   52.1290   -3.3790 C.2   578  ALA578      0.2592
    117  O          7.1250   51.5630   -2.7020 O.2   578  ALA578     -0.2718
    118  CB         8.6660   53.3020   -1.2850 C.3   578  ALA578      0.0304
    119  N          7.9110   52.1830   -4.7050 N.am  579  GLY579     -0.1957
    120  CA         6.8040   51.6150   -5.4340 C.3   579  GLY579      0.1869
    121  C          7.1990   50.3720   -6.2190 C.2   579  GLY579      0.2309
    122  O          8.3090   49.8410   -6.1020 O.2   579  GLY579     -0.2863
@<TRIPOS>BOND
     1     1     2    1
     2     3     4    2
     3     3     2    1
     4     2     5    1
     5     5     6    1
     6   121   122    2
     7   121   120    1
     8    58    56    1
     9   120   119    1
    10    56    53    1
    11    56    57    1
    12    53    52    1
    13    53    54    1
    14   119   116   am
    15    19    18    2
    16     7     8    1
    17     8     9    1
    18     8    11    1
    19     9    10    2
    20    13    14    1
    21    55    54    2
    22    20    18   am
    23    54    59   am
    24    18    17    1
    25   114   115    1
    26   116   117    2
    27   116   115    1
    28    11    12    1
    29    14    17    1
    30    14    15    1
    31    59    60    1
    32   115   118    1
    33   112   111   ar
    34    73    72   ar
    35    60    63    1
    36    60    61    1
    37   113   111   ar
    38    15    16    2
    39    31    29    1
    40   111   110    1
    41    45    46    2
    42    45    44    1
    43    74    72   ar
    44    50    51    1
    45    50    49    1
    46    72    71    1
    47    63    64    1
    48    61    62    2
    49    69    70    2
    50    69    68    1
    51    44    43    1
    52    44    47    1
    53    48    49    1
    54    48    47    1
    55    42    40    1
    56    29    28    2
    57    29    30    1
    58    28    27    1
    59    21    22    1
    60    67    68    1
    61    64    65    1
    62   110   107    1
    63   109   108    2
    64    68    71    1
    65    40    41    1
    66    40    39    2
    67    26    27    1
    68    26    25    1
    69   107   108    1
    70   107   106    1
    71   104   103   ar
    72    39    38    1
    73    22    25    1
    74    22    23    1
    75   105   103   ar
    76   103   102    1
    77    65    66    1
    78    84    82   ar
    79    84    85   ar
    80    38    37    1
    81    86    85    1
    82    82    80   ar
    83    37    36    1
    84    96    95    1
    85    23    24    2
    86   101   100    2
    87    85    83   ar
    88   102    99    1
    89    97    95    1
    90    78    77    2
    91    95    94    2
    92    99   100    1
    93    99    98    1
    94    36    33    1
    95    80    79    1
    96    80    81   ar
    97    33    34    1
    98    33    32    1
    99    83    81   ar
   100    34    35    2
   101    79    76    1
   102    77    76    1
   103    90    89    2
   104    94    93    1
   105    98    89   am
   106    76    75    1
   107    93    92    1
   108    89    88    1
   109    92    91    1
   110    91    88    1
   111    88    87    1
