@<TRIPOS>MOLECULE
tmp/6g3vA00.pdb
 170 167 0 0 0
SMALL
GASTEIGER

@<TRIPOS>ATOM
      1  N        -10.5660   41.1990   47.1220 N.3    63  HIS63      -0.1241
      2  CA       -11.5250   41.8110   46.2470 C.3    63  HIS63       0.1621
      3  C        -11.3500   43.3360   46.2740 C.2    63  HIS63       0.2264
      4  O        -10.9030   43.9050   47.2980 O.2    63  HIS63      -0.2867
      5  CB       -12.9420   41.5270   46.7950 C.3    63  HIS63       0.0745
      6  CG       -13.3290   40.0760   46.7240 C.ar   63  HIS63       0.0817
      7  ND1      -14.3290   39.5320   47.4860 N.ar   63  HIS63      -0.2268
      8  CD2      -12.8260   39.0690   45.9770 C.ar   63  HIS63       0.1154
      9  CE1      -14.4480   38.2300   47.2170 C.ar   63  HIS63       0.1986
     10  NE2      -13.5600   37.9260   46.2810 N.ar   63  HIS63      -0.2212
     11  N        -19.7760   46.0410   40.4540 N.3    87  PHE87      -0.1227
     12  CA       -19.6120   45.9750   41.9240 C.3    87  PHE87       0.1736
     13  C        -18.2270   45.5460   42.4530 C.2    87  PHE87       0.2595
     14  O        -17.8690   45.8080   43.5830 O.2    87  PHE87      -0.2718
     15  CB       -20.7820   45.1900   42.6010 C.3    87  PHE87       0.0547
     16  CG       -20.7280   43.7150   42.3620 C.ar   87  PHE87      -0.0202
     17  CD1      -21.3660   43.1690   41.2440 C.ar   87  PHE87      -0.0042
     18  CD2      -20.0930   42.9070   43.3090 C.ar   87  PHE87      -0.0042
     19  CE1      -21.3990   41.7910   41.0550 C.ar   87  PHE87      -0.0003
     20  CE2      -20.0820   41.5050   43.1330 C.ar   87  PHE87      -0.0003
     21  CZ       -20.7270   40.9610   42.0040 C.ar   87  PHE87      -0.0000
     22  N        -17.4300   44.8410   41.6400 N.am   88  GLN88      -0.1979
     23  CA       -16.1500   44.3040   42.1720 C.3    88  GLN88       0.1601
     24  C        -15.2810   43.9230   41.0240 C.2    88  GLN88       0.2287
     25  O        -15.8170   43.5670   39.9430 O.2    88  GLN88      -0.2864
     26  CB       -16.4880   42.9950   42.9160 C.3    88  GLN88       0.0394
     27  CG       -15.3030   42.2310   43.4890 C.3    88  GLN88       0.0908
     28  CD       -15.7650   41.0650   44.2750 C.2    88  GLN88       0.2608
     29  OE1      -15.5840   39.8860   43.8590 O.2    88  GLN88      -0.2717
     30  NE2      -16.3270   41.3340   45.4080 N.am   88  GLN88      -0.0878
     31  N        -11.6870   41.1010   40.8580 N.3    90  HIS90      -0.1297
     32  CA       -10.6780   40.3400   41.6320 C.3    90  HIS90       0.1306
     33  C         -9.9010   39.4330   40.5660 C.3    90  HIS90       0.2013
     34  O        -10.2510   39.4950   39.3180 O.3    90  HIS90      -0.2188
     35  CB       -11.4080   39.4860   42.6710 C.3    90  HIS90       0.0691
     36  CG       -12.3640   38.5140   42.0560 C.ar   90  HIS90       0.0814
     37  ND1      -13.7360   38.7110   42.0790 N.ar   90  HIS90      -0.2268
     38  CD2      -12.1680   37.3160   41.4550 C.ar   90  HIS90       0.1154
     39  CE1      -14.3350   37.7100   41.4380 C.ar   90  HIS90       0.1986
     40  NE2      -13.3940   36.8990   40.9930 N.ar   90  HIS90      -0.2212
     41  N         -7.8490   35.5120   39.7250 N.3    92  HIS92      -0.1241
     42  CA        -7.4860   34.1520   40.1890 C.3    92  HIS92       0.1621
     43  C         -6.1100   33.8910   39.6640 C.2    92  HIS92       0.2264
     44  O         -5.6980   34.4710   38.6380 O.2    92  HIS92      -0.2867
     45  CB        -8.4100   33.1180   39.5930 C.3    92  HIS92       0.0745
     46  CG        -9.8270   33.2960   40.0110 C.ar   92  HIS92       0.0817
     47  ND1      -10.4320   32.4890   40.9490 N.ar   92  HIS92      -0.2268
     48  CD2      -10.7300   34.2400   39.6790 C.ar   92  HIS92       0.1154
     49  CE1      -11.6860   32.8950   41.1390 C.ar   92  HIS92       0.1986
     50  NE2      -11.8870   33.9580   40.3800 N.ar   92  HIS92      -0.2212
     51  N        -11.5070   39.0330   36.7470 N.3   115  HIS115     -0.1241
     52  CA       -13.0140   39.0020   36.7370 C.3   115  HIS115      0.1621
     53  C        -13.4960   40.3800   37.1340 C.2   115  HIS115      0.2264
     54  O        -13.0740   40.8820   38.1740 O.2   115  HIS115     -0.2867
     55  CB       -13.4250   37.9970   37.7010 C.3   115  HIS115      0.0745
     56  CG       -13.2180   36.6080   37.1440 C.ar  115  HIS115      0.0817
     57  ND1      -13.3020   35.4460   37.9050 N.ar  115  HIS115     -0.2268
     58  CD2      -12.9410   36.2160   35.8710 C.ar  115  HIS115      0.1154
     59  CE1      -13.1060   34.3880   37.0890 C.ar  115  HIS115      0.1986
     60  NE2      -12.8290   34.8430   35.8790 N.ar  115  HIS115     -0.2212
     61  N        -17.0370   42.1160   37.8790 N.3   117  ALA117     -0.1245
     62  CA       -18.4150   41.5310   38.0920 C.3   117  ALA117      0.1562
     63  C        -19.4400   42.6770   38.2250 C.2   117  ALA117      0.2260
     64  O        -19.0990   43.7390   38.7660 O.2   117  ALA117     -0.2867
     65  CB       -18.4640   40.6350   39.3250 C.3   117  ALA117      0.0290
     66  N        -27.4320   43.6580   44.7720 N.3   127  LEU127     -0.1231
     67  CA       -26.5710   42.4830   44.5160 C.3   127  LEU127      0.1693
     68  C        -27.1170   41.1570   45.1460 C.2   127  LEU127      0.2591
     69  O        -27.1520   40.0800   44.4710 O.2   127  LEU127     -0.2718
     70  CB       -25.1260   42.7620   45.0240 C.3   127  LEU127      0.0284
     71  CG       -24.2400   41.4940   45.0880 C.3   127  LEU127      0.0019
     72  CD1      -24.0610   40.9090   43.6530 C.3   127  LEU127      0.0001
     73  CD2      -22.8720   41.7450   45.7840 C.3   127  LEU127      0.0001
     74  N        -27.5230   41.2160   46.4270 N.am  128  ALA128     -0.1980
     75  CA       -28.0970   40.0550   47.1630 C.3   128  ALA128      0.1597
     76  C        -29.2890   39.4400   46.4270 C.2   128  ALA128      0.2287
     77  O        -29.3680   38.2270   46.2540 O.2   128  ALA128     -0.2864
     78  CB       -28.5180   40.4810   48.5820 C.3   128  ALA128      0.0319
     79  N        -27.9850   37.9360   42.7520 N.3   131  ALA131     -0.1245
     80  CA       -26.8610   37.0150   42.7030 C.3   131  ALA131      0.1562
     81  C        -27.3320   35.5760   42.4570 C.2   131  ALA131      0.2260
     82  O        -26.5540   34.7010   42.0890 O.2   131  ALA131     -0.2867
     83  CB       -26.0840   37.0980   44.0320 C.3   131  ALA131      0.0290
     84  N        -26.1850   38.2610   37.1440 N.3   137  LEU137     -0.1245
     85  CA       -24.7740   38.6790   37.1070 C.3   137  LEU137      0.1561
     86  C        -24.2180   38.6520   35.6810 C.2   137  LEU137      0.2260
     87  O        -24.6410   37.8260   34.8410 O.2   137  LEU137     -0.2867
     88  CB       -23.9510   37.7630   38.0230 C.3   137  LEU137      0.0270
     89  CG       -24.4280   37.7090   39.5040 C.3   137  LEU137      0.0019
     90  CD1      -23.5450   36.8140   40.3150 C.3   137  LEU137      0.0001
     91  CD2      -24.5890   39.0740   40.1590 C.3   137  LEU137      0.0001
     92  N        -20.2070   38.9350   34.2580 N.3   139  VAL139     -0.1245
     93  CA       -18.7680   38.9860   34.6320 C.3   139  VAL139      0.1561
     94  C        -17.8700   39.0010   33.3550 C.2   139  VAL139      0.2260
     95  O        -17.9860   38.1360   32.5020 O.2   139  VAL139     -0.2867
     96  CB       -18.3720   37.8300   35.5930 C.3   139  VAL139      0.0252
     97  CG1      -16.9240   38.0640   36.1420 C.3   139  VAL139      0.0019
     98  CG2      -19.3050   37.7730   36.7820 C.3   139  VAL139      0.0019
     99  N        -21.0110   31.4140   39.1560 N.3   194  LEU194     -0.1231
    100  CA       -19.8730   31.8390   40.0280 C.3   194  LEU194      0.1693
    101  C        -18.8970   30.6720   40.0170 C.2   194  LEU194      0.2593
    102  O        -19.3050   29.5060   40.0640 O.2   194  LEU194     -0.2718
    103  CB       -20.3700   32.0490   41.4530 C.3   194  LEU194      0.0284
    104  CG       -21.4180   33.1340   41.5930 C.3   194  LEU194      0.0019
    105  CD1      -21.7050   33.2610   43.1010 C.3   194  LEU194      0.0001
    106  CD2      -20.9130   34.4360   41.0370 C.3   194  LEU194      0.0001
    107  N        -17.6120   30.9550   39.9810 N.am  195  THR195     -0.1939
    108  CA       -16.6300   29.8620   39.9910 C.3   195  THR195      0.2028
    109  C        -16.1590   29.3840   41.3800 C.2   195  THR195      0.2642
    110  O        -15.2980   28.5280   41.4760 O.2   195  THR195     -0.2714
    111  CB       -15.4200   30.2410   39.1090 C.3   195  THR195      0.1808
    112  OG1      -14.6120   31.1760   39.8430 O.3   195  THR195     -0.2208
    113  CG2      -15.8880   30.8640   37.7710 C.3   195  THR195      0.0379
    114  N        -16.7370   29.9010   42.4880 N.am  196  HIS196     -0.1959
    115  CA       -16.5170   29.3150   43.8150 C.3   196  HIS196      0.1772
    116  C        -17.8550   29.3840   44.5820 C.2   196  HIS196      0.2462
    117  O        -18.7930   30.0780   44.0900 O.2   196  HIS196     -0.2730
    118  CB       -15.2980   29.9380   44.5460 C.3   196  HIS196      0.0785
    119  CG       -15.4140   31.4060   44.7970 C.ar  196  HIS196      0.0821
    120  ND1      -16.3400   31.9480   45.6770 N.ar  196  HIS196     -0.2267
    121  CD2      -14.6780   32.4490   44.3410 C.ar  196  HIS196      0.1154
    122  CE1      -16.2020   33.2660   45.7150 C.ar  196  HIS196      0.1986
    123  NE2      -15.1860   33.5960   44.9320 N.ar  196  HIS196     -0.2212
    124  N        -17.9970   28.6240   45.6920 N.am  197  PRO197     -0.2716
    125  CA       -19.2750   28.6780   46.5100 C.3   197  PRO197      0.1521
    126  C        -19.7120   30.1340   46.7220 C.2   197  PRO197      0.2440
    127  O        -18.8530   31.0030   46.9530 O.2   197  PRO197     -0.2731
    128  CB       -18.8320   28.0580   47.8320 C.3   197  PRO197      0.0310
    129  CG       -17.9290   26.9550   47.3370 C.3   197  PRO197      0.0237
    130  CD       -17.0520   27.6430   46.3000 C.3   197  PRO197      0.0939
    131  N        -21.0030   30.4010   46.6450 N.am  198  PRO198     -0.2727
    132  CA       -22.0570   29.3630   46.4740 C.3   198  PRO198      0.1402
    133  C        -22.3650   28.8450   45.0560 C.2   198  PRO198      0.2269
    134  O        -23.2950   28.0400   44.9260 O.2   198  PRO198     -0.2865
    135  CB       -23.3060   30.0360   47.0660 C.3   198  PRO198      0.0296
    136  CG       -23.0370   31.5130   46.7660 C.3   198  PRO198      0.0237
    137  CD       -21.5480   31.7600   46.6540 C.3   198  PRO198      0.0939
    138  N        -23.6760   29.8150   42.2230 N.3   200  TYR200     -0.1241
    139  CA       -24.9760   30.1220   41.6540 C.3   200  TYR200      0.1605
    140  C        -24.8470   30.2000   40.1300 C.2   200  TYR200      0.2264
    141  O        -23.9060   30.8030   39.6080 O.2   200  TYR200     -0.2867
    142  CB       -25.5120   31.4780   42.1900 C.3   200  TYR200      0.0534
    143  CG       -25.9830   31.4710   43.6790 C.ar  200  TYR200     -0.0201
    144  CD1      -26.5400   30.3380   44.2550 C.ar  200  TYR200     -0.0009
    145  CD2      -25.8560   32.5940   44.4810 C.ar  200  TYR200     -0.0009
    146  CE1      -26.9840   30.3100   45.6020 C.ar  200  TYR200      0.0417
    147  CE2      -26.3090   32.5890   45.8290 C.ar  200  TYR200      0.0417
    148  CZ       -26.8680   31.4400   46.3920 C.ar  200  TYR200      0.1957
    149  OH       -27.2550   31.3790   47.7470 O.3   200  TYR200     -0.2866
    150  N        -24.5880   33.6980   36.2100 N.3   203  VAL203     -0.1245
    151  CA       -23.6110   34.5030   35.4620 C.3   203  VAL203      0.1561
    152  C        -23.6350   34.3550   33.9290 C.2   203  VAL203      0.2260
    153  O        -23.4520   33.2750   33.3790 O.2   203  VAL203     -0.2867
    154  CB       -22.1300   34.2760   36.0050 C.3   203  VAL203      0.0252
    155  CG1      -21.1330   35.1520   35.2380 C.3   203  VAL203      0.0019
    156  CG2      -22.0260   34.4880   37.5550 C.3   203  VAL203      0.0019
    157  N        -21.2440   35.0400   31.2170 N.3   205  TRP205     -0.1241
    158  CA       -19.8030   35.3150   31.0320 C.3   205  TRP205      0.1605
    159  C        -19.5050   36.0480   29.7480 C.2   205  TRP205      0.2264
    160  O        -20.1110   35.7590   28.7300 O.2   205  TRP205     -0.2867
    161  CB       -18.9970   34.0250   31.1030 C.3   205  TRP205      0.0550
    162  CG       -18.8620   33.5690   32.4910 C.ar  205  TRP205      0.0003
    163  CD1      -19.6570   32.6380   33.1670 C.ar  205  TRP205      0.0946
    164  CD2      -17.8910   34.0530   33.4830 C.ar  205  TRP205      0.0152
    165  NE1      -19.2050   32.5080   34.4590 N.ar  205  TRP205     -0.2442
    166  CE2      -18.1510   33.3770   34.6760 C.ar  205  TRP205      0.0810
    167  CE3      -16.8450   35.0110   33.4470 C.ar  205  TRP205      0.0012
    168  CZ2      -17.3810   33.6000   35.8630 C.ar  205  TRP205      0.0191
    169  CZ3      -16.0900   35.1860   34.5850 C.ar  205  TRP205      0.0001
    170  CH2      -16.3500   34.4930   35.7570 C.ar  205  TRP205      0.0015
@<TRIPOS>BOND
     1   160   159    2
     2   159   158    1
     3   158   161    1
     4   158   157    1
     5   161   162    1
     6   162   163   ar
     7   162   164   ar
     8    95    94    2
     9   163   165   ar
    10    94    93    1
    11   153   152    2
    12   167   164   ar
    13   167   169   ar
    14   164   166   ar
    15   152   151    1
    16    92    93    1
    17   165   166   ar
    18   169   170   ar
    19    93    96    1
    20   166   168   ar
    21    87    86    2
    22   155   154    1
    23   151   154    1
    24   151   150    1
    25    96    97    1
    26    96    98    1
    27    86    85    1
    28   170   168   ar
    29    58    60   ar
    30    58    56   ar
    31    60    59   ar
    32   154   156    1
    33    52    51    1
    34    52    53    1
    35    52    55    1
    36    59    57   ar
    37    85    84    1
    38    85    88    1
    39    53    54    2
    40    56    55    1
    41    56    57   ar
    42   113   111    1
    43    61    62    1
    44    88    89    1
    45    62    63    1
    46    62    65    1
    47    63    64    2
    48    44    43    2
    49   111   112    1
    50   111   108    1
    51    99   100    1
    52    34    33    1
    53    89    91    1
    54    89    90    1
    55    45    46    1
    56    45    42    1
    57   141   140    2
    58    43    42    1
    59    48    46   ar
    60    48    50   ar
    61    41    42    1
    62    25    24    2
    63   107   108    1
    64   107   101   am
    65   108   109    1
    66    46    47   ar
    67   101   100    1
    68   101   102    2
    69   100   103    1
    70   140   139    1
    71    50    49   ar
    72    11    12    1
    73    33    32    1
    74    31    32    1
    75    47    49   ar
    76    40    39   ar
    77    40    38   ar
    78    24    23    1
    79   106   104    1
    80    19    17   ar
    81    19    21   ar
    82    17    16   ar
    83   109   110    2
    84   109   114   am
    85    39    37   ar
    86   103   104    1
    87    38    36   ar
    88   104   105    1
    89    32    35    1
    90    22    23    1
    91    22    13   am
    92   139   142    1
    93   139   138    1
    94    12    13    1
    95    12    15    1
    96    21    20   ar
    97    36    37   ar
    98    36    35    1
    99    82    81    2
   100    23    26    1
   101   142   143    1
   102    16    15    1
   103    16    18   ar
   104    13    14    2
   105    81    80    1
   106   114   115    1
   107    80    79    1
   108    80    83    1
   109    26    27    1
   110    20    18   ar
   111    27    28    1
   112    72    71    1
   113   143   144   ar
   114   143   145   ar
   115   115   118    1
   116   115   116    1
   117    29    28    2
   118   117   116    2
   119   144   146   ar
   120    28    30   am
   121   121   119   ar
   122   121   123   ar
   123    69    68    2
   124   145   147   ar
   125    67    66    1
   126    67    70    1
   127    67    68    1
   128   118   119    1
   129   116   124   am
   130   119   120   ar
   131   134   133    2
   132   123   122   ar
   133    70    71    1
   134   133   132    1
   135    71    73    1
   136    68    74   am
   137   146   148   ar
   138   120   122   ar
   139   124   130    1
   140   124   125    1
   141   147   148   ar
   142     8    10   ar
   143     8     6   ar
   144     2     3    1
   145     2     5    1
   146     2     1    1
   147    77    76    2
   148     3     4    2
   149    10     9   ar
   150   130   129    1
   151   148   149    1
   152    74    75    1
   153    76    75    1
   154   132   131    1
   155   132   135    1
   156   125   126    1
   157   125   128    1
   158   131   137    1
   159   131   126   am
   160   137   136    1
   161   126   127    2
   162     6     5    1
   163     6     7   ar
   164   136   135    1
   165    75    78    1
   166     9     7   ar
   167   129   128    1
