@<TRIPOS>MOLECULE
tmp/6g3yB00.pdb
 196 183 0 0 0
SMALL
GASTEIGER

@<TRIPOS>ATOM
      1  N         27.8010  -12.9960   15.7770 N.3    32  SER32      -0.1202
      2  CA        26.3740  -12.7140   15.5020 C.3    32  SER32       0.2020
      3  C         25.3740  -13.7660   16.0160 C.2    32  SER32       0.2619
      4  O         24.2150  -13.7890   15.5820 O.2    32  SER32      -0.2717
      5  CB        26.1550  -12.4860   14.0010 C.3    32  SER32       0.2103
      6  OG        26.4510  -13.6460   13.2360 O.3    32  SER32      -0.2182
      7  N         25.8090  -14.6130   16.9460 N.am   33  GLY33      -0.1942
      8  CA        24.9510  -15.6310   17.5190 C.3    33  GLY33       0.2014
      9  C         24.7180  -16.8450   16.6370 C.2    33  GLY33       0.2638
     10  O         23.6430  -17.4510   16.7050 O.2    33  GLY33      -0.2714
     11  N         25.7050  -17.1950   15.8070 N.am   34  GLN34      -0.1977
     12  CA        25.7290  -18.4870   15.1140 C.3    34  GLN34       0.1601
     13  C         26.6060  -19.4470   15.9000 C.2    34  GLN34       0.2287
     14  O         26.1820  -20.5490   16.2640 O.2    34  GLN34      -0.2864
     15  CB        26.2930  -18.3510   13.7050 C.3    34  GLN34       0.0394
     16  CG        25.5770  -17.3600   12.8100 C.3    34  GLN34       0.0908
     17  CD        26.1780  -17.3250   11.4220 C.2    34  GLN34       0.2608
     18  OE1       26.6640  -18.3380   10.9220 O.2    34  GLN34      -0.2717
     19  NE2       26.1470  -16.1590   10.7930 N.am   34  GLN34      -0.0878
     20  N         29.2880  -19.4640   19.3310 N.3    36  PHE36      -0.1241
     21  CA        29.5590  -18.7550   20.5790 C.3    36  PHE36       0.1605
     22  C         30.9940  -18.9920   21.0750 C.2    36  PHE36       0.2264
     23  O         31.3520  -18.5340   22.1620 O.2    36  PHE36      -0.2867
     24  CB        28.5220  -19.1790   21.6250 C.3    36  PHE36       0.0534
     25  CG        27.1100  -19.1920   21.0970 C.ar   36  PHE36      -0.0203
     26  CD1       26.4120  -18.0030   20.9140 C.ar   36  PHE36      -0.0042
     27  CD2       26.4880  -20.3880   20.7560 C.ar   36  PHE36      -0.0042
     28  CE1       25.1160  -18.0120   20.4100 C.ar   36  PHE36      -0.0003
     29  CE2       25.1930  -20.4030   20.2580 C.ar   36  PHE36      -0.0003
     30  CZ        24.5080  -19.2140   20.0810 C.ar   36  PHE36      -0.0000
     31  N         26.6030  -17.7180    6.5410 N.3   123  LEU123     -0.1245
     32  CA        26.3330  -18.7740    7.5190 C.3   123  LEU123      0.1561
     33  C         27.5160  -19.7200    7.6420 C.2   123  LEU123      0.2260
     34  O         28.0680  -20.1700    6.6350 O.2   123  LEU123     -0.2867
     35  CB        25.0810  -19.5770    7.1340 C.3   123  LEU123      0.0270
     36  CG        23.7650  -19.1160    7.7510 C.3   123  LEU123      0.0019
     37  CD1       23.6650  -19.5760    9.1960 C.3   123  LEU123      0.0001
     38  CD2       23.6170  -17.6050    7.6690 C.3   123  LEU123      0.0001
     39  N         22.4060  -24.5200   20.8730 N.3   135  PHE135     -0.1241
     40  CA        21.0860  -23.9020   20.7040 C.3   135  PHE135      0.1605
     41  C         20.0010  -24.4640   21.6300 C.2   135  PHE135      0.2264
     42  O         18.9210  -23.8800   21.7370 O.2   135  PHE135     -0.2867
     43  CB        20.6610  -23.9330   19.2270 C.3   135  PHE135      0.0534
     44  CG        21.3410  -22.8770   18.4080 C.ar  135  PHE135     -0.0203
     45  CD1       20.9140  -21.5510   18.4810 C.ar  135  PHE135     -0.0042
     46  CD2       22.4390  -23.1830   17.6150 C.ar  135  PHE135     -0.0042
     47  CE1       21.5560  -20.5580   17.7600 C.ar  135  PHE135     -0.0003
     48  CE2       23.0850  -22.1960   16.8890 C.ar  135  PHE135     -0.0003
     49  CZ        22.6440  -20.8810   16.9620 C.ar  135  PHE135     -0.0000
     50  N         20.4790  -21.9070   24.0090 N.3   138  SER138     -0.1217
     51  CA        19.9240  -20.6500   23.4730 C.3   138  SER138      0.1889
     52  C         18.6060  -20.1950   24.1200 C.2   138  SER138      0.2288
     53  O         18.2850  -19.0070   24.0800 O.2   138  SER138     -0.2866
     54  CB        19.7230  -20.7770   21.9440 C.3   138  SER138      0.2089
     55  OG        18.8770  -19.7710   21.4060 O.3   138  SER138     -0.2183
     56  N         17.6450  -16.5560   26.2430 N.3   141  ASN141     -0.1225
     57  CA        19.0520  -16.2520   26.5010 C.3   141  ASN141      0.1785
     58  C         19.6230  -15.2350   25.5150 C.2   141  ASN141      0.2597
     59  O         19.1410  -15.1220   24.3850 O.2   141  ASN141     -0.2718
     60  CB        19.8530  -17.5650   26.4260 C.3   141  ASN141      0.1169
     61  CG        20.7370  -17.7890   27.6360 C.2   141  ASN141      0.2627
     62  OD1       21.3030  -16.8520   28.1920 O.2   141  ASN141     -0.2716
     63  ND2       20.8580  -19.0460   28.0490 N.am  141  ASN141     -0.0877
     64  N         20.6500  -14.5050   25.9560 N.am  142  ASN142     -0.1960
     65  CA        21.3930  -13.5770   25.0900 C.3   142  ASN142      0.1819
     66  C         22.8030  -14.1100   24.7970 C.2   142  ASN142      0.2621
     67  O         23.2410  -15.0680   25.4350 O.2   142  ASN142     -0.2715
     68  CB        21.4370  -12.1610   25.6860 C.3   142  ASN142      0.1195
     69  CG        22.2610  -12.0730   26.9590 C.2   142  ASN142      0.2630
     70  OD1       22.3000  -13.0110   27.7510 O.2   142  ASN142     -0.2716
     71  ND2       22.9100  -10.9330   27.1670 N.am  142  ASN142     -0.0877
     72  N         23.4970  -13.4860   23.8370 N.am  143  ILE143     -0.1977
     73  CA        24.7960  -13.9830   23.3410 C.3   143  ILE143      0.1596
     74  C         25.7850  -14.2110   24.4810 C.2   143  ILE143      0.2287
     75  O         26.3320  -15.3080   24.6190 O.2   143  ILE143     -0.2864
     76  CB        25.4260  -13.0330   22.2820 C.3   143  ILE143      0.0276
     77  CG1       24.6510  -13.1210   20.9640 C.3   143  ILE143      0.0022
     78  CG2       26.8940  -13.3790   22.0130 C.3   143  ILE143      0.0022
     79  CD1       25.0410  -12.0760   19.9380 C.3   143  ILE143      0.0001
     80  N         25.0910  -17.1880   26.7130 N.3   146  ILE146     -0.1245
     81  CA        25.2140  -18.4600   25.9710 C.3   146  ILE146      0.1561
     82  C         26.6850  -18.8410   25.8240 C.2   146  ILE146      0.2260
     83  O         27.0470  -19.9990   26.0260 O.2   146  ILE146     -0.2867
     84  CB        24.5650  -18.4070   24.5670 C.3   146  ILE146      0.0252
     85  CG1       23.0590  -18.1300   24.6610 C.3   146  ILE146      0.0019
     86  CG2       24.7710  -19.7300   23.8280 C.3   146  ILE146      0.0019
     87  CD1       22.5020  -17.4380   23.4370 C.3   146  ILE146      0.0001
     88  N         12.0760  -23.8010   16.4890 N.3   240  LYS240     -0.1245
     89  CA        13.1030  -22.7630   16.3510 C.3   240  LYS240      0.1561
     90  C         14.5340  -23.2890   16.4710 C.2   240  LYS240      0.2260
     91  O         15.4060  -22.8810   15.7060 O.2   240  LYS240     -0.2867
     92  CB        12.8740  -21.6510   17.3790 C.3   240  LYS240      0.0271
     93  CG        13.6890  -20.3950   17.1130 C.3   240  LYS240      0.0035
     94  CD        14.8540  -20.2450   18.0710 C.3   240  LYS240      0.0206
     95  CE        15.8130  -19.1800   17.5780 C.3   240  LYS240      0.1093
     96  NZ        16.7500  -18.7420   18.6500 N.3   240  LYS240     -0.1314
     97  N         17.2880  -23.6810   13.4820 N.3   244  CYS244     -0.1235
     98  CA        18.6600  -23.1890   13.6970 C.3   244  CYS244      0.1677
     99  C         19.7050  -24.2250   13.3100 C.2   244  CYS244      0.2270
    100  O         20.6630  -23.9130   12.6020 O.2   244  CYS244     -0.2867
    101  CB        18.8930  -22.7850   15.1590 C.3   244  CYS244      0.0956
    102  SG        18.3520  -21.1180   15.5810 S.3   244  CYS244     -0.0801
    103  N         19.6430  -25.0430    9.5130 N.3   247  LEU247     -0.1231
    104  CA        20.3050  -23.9720    8.7680 C.3   247  LEU247      0.1693
    105  C         21.8280  -23.9570    8.9280 C.2   247  LEU247      0.2591
    106  O         22.5580  -23.7370    7.9600 O.2   247  LEU247     -0.2718
    107  CB        19.7340  -22.6190    9.2120 C.3   247  LEU247      0.0284
    108  CG        20.3670  -21.3490    8.6680 C.3   247  LEU247      0.0019
    109  CD1       20.2600  -21.3090    7.1560 C.3   247  LEU247      0.0001
    110  CD2       19.6920  -20.1460    9.3000 C.3   247  LEU247      0.0001
    111  N         22.2960  -24.1660   10.1530 N.am  248  MET248     -0.1979
    112  CA        23.6930  -23.9080   10.5090 C.3   248  MET248      0.1605
    113  C         24.5950  -25.1420   10.4890 C.2   248  MET248      0.2287
    114  O         25.8130  -25.0000   10.4100 O.2   248  MET248     -0.2864
    115  CB        23.7520  -23.2500   11.8830 C.3   248  MET248      0.0413
    116  CG        23.0680  -21.8960   11.9300 C.3   248  MET248      0.0598
    117  SD        22.8590  -21.3120   13.6170 S.3   248  MET248     -0.1393
    118  CE        22.4280  -19.5980   13.3260 C.3   248  MET248      0.0692
    119  N         14.6270  -19.8050   11.2550 N.3   257  PRO257     -0.2116
    120  CA        14.2490  -19.9820   12.6600 C.3   257  PRO257      0.1372
    121  C         13.3810  -18.8410   13.1710 C.2   257  PRO257      0.2244
    122  O         13.8150  -17.6830   13.1470 O.2   257  PRO257     -0.2868
    123  CB        15.6030  -20.0080   13.3940 C.3   257  PRO257      0.0268
    124  CG        16.5920  -20.3840   12.3480 C.3   257  PRO257      0.0207
    125  CD        16.0920  -19.7020   11.1140 C.3   257  PRO257      0.0892
    126  N         11.4000  -17.0360   16.1690 N.3   259  ASP259     -0.1239
    127  CA        11.0850  -16.6930   17.5590 C.3   259  ASP259      0.1674
    128  C         10.7490  -15.1940   17.6260 C.2   259  ASP259      0.2266
    129  O         10.5020  -14.5720   16.5910 O.2   259  ASP259     -0.2867
    130  CB        12.2550  -17.0650   18.4820 C.3   259  ASP259      0.1410
    131  CG        13.5620  -16.3400   18.1390 C.2   259  ASP259      0.3668
    132  OD1       13.6730  -15.6310   17.1020 O.co2 259  ASP259     -0.2456
    133  OD2       14.5070  -16.5140   18.9370 O.co2 259  ASP259     -0.2456
    134  N         12.5280  -12.5730   17.8610 N.3   261  HIS261     -0.1241
    135  CA        13.4390  -11.6660   17.1460 C.3   261  HIS261      0.1621
    136  C         12.9950  -11.4220   15.7000 C.2   261  HIS261      0.2264
    137  O         12.9230  -10.2720   15.2630 O.2   261  HIS261     -0.2867
    138  CB        14.8910  -12.1740   17.1890 C.3   261  HIS261      0.0745
    139  CG        15.4060  -12.4190   18.5760 C.ar  261  HIS261      0.0817
    140  ND1       15.7310  -11.4000   19.4470 N.ar  261  HIS261     -0.2268
    141  CD2       15.6330  -13.5720   19.2470 C.ar  261  HIS261      0.1154
    142  CE1       16.1410  -11.9170   20.5920 C.ar  261  HIS261      0.1986
    143  NE2       16.0880  -13.2340   20.4980 N.ar  261  HIS261     -0.2212
    144  N         10.8800   -8.1200   13.7500 N.3   265  ILE265     -0.1245
    145  CA        11.3620   -7.6120   12.4520 C.3   265  ILE265      0.1561
    146  C         10.2930   -7.7140   11.3590 C.2   265  ILE265      0.2260
    147  O         10.1190   -6.7800   10.5720 O.2   265  ILE265     -0.2867
    148  CB        12.6530   -8.3510   11.9970 C.3   265  ILE265      0.0252
    149  CG1       13.8300   -7.9900   12.9200 C.3   265  ILE265      0.0019
    150  CG2       13.0210   -8.0230   10.5470 C.3   265  ILE265      0.0019
    151  CD1       14.9520   -9.0130   12.9320 C.3   265  ILE265      0.0001
    152  N         17.1710  -18.4620    5.0410 N.3   303  GLY303     -0.1225
    153  CA        17.9100  -18.4590    6.3040 C.3   303  GLY303      0.1811
    154  C         19.1590  -17.5940    6.3300 C.2   303  GLY303      0.2280
    155  O         19.4700  -16.9980    7.3560 O.2   303  GLY303     -0.2866
    156  N         18.0620  -13.8950    6.5760 N.3   306  GLN306     -0.1231
    157  CA        17.7360  -13.6170    7.9800 C.3   306  GLN306      0.1698
    158  C         18.9860  -13.2550    8.8020 C.2   306  GLN306      0.2592
    159  O         18.9420  -12.3360    9.6220 O.2   306  GLN306     -0.2718
    160  CB        17.0090  -14.8180    8.5980 C.3   306  GLN306      0.0381
    161  CG        16.4480  -14.5940    9.9990 C.3   306  GLN306      0.0905
    162  CD        15.8310  -15.8500   10.5840 C.2   306  GLN306      0.2608
    163  OE1       15.5220  -16.7960    9.8660 O.2   306  GLN306     -0.2717
    164  NE2       15.6530  -15.8680   11.8910 N.am  306  GLN306     -0.0878
    165  N         20.0930  -13.9590    8.5680 N.am  307  ALA307     -0.1980
    166  CA        21.3510  -13.6810    9.2760 C.3   307  ALA307      0.1597
    167  C         21.9070  -12.2770    9.0120 C.2   307  ALA307      0.2287
    168  O         22.5320  -11.6860    9.8900 O.2   307  ALA307     -0.2864
    169  CB        22.3970  -14.7320    8.9380 C.3   307  ALA307      0.0319
    170  N         19.5670  -10.0630   11.1800 N.3   310  PHE310     -0.1241
    171  CA        19.9510  -10.3060   12.5790 C.3   310  PHE310      0.1605
    172  C         21.2360   -9.5820   12.9300 C.2   310  PHE310      0.2264
    173  O         21.2880   -8.8770   13.9330 O.2   310  PHE310     -0.2867
    174  CB        20.1020  -11.8130   12.8490 C.3   310  PHE310      0.0534
    175  CG        18.8180  -12.5090   13.2310 C.ar  310  PHE310     -0.0203
    176  CD1       17.5570  -11.9480   12.9910 C.ar  310  PHE310     -0.0042
    177  CD2       18.8750  -13.7530   13.8380 C.ar  310  PHE310     -0.0042
    178  CE1       16.4000  -12.6170   13.3660 C.ar  310  PHE310     -0.0003
    179  CE2       17.7180  -14.4260   14.2170 C.ar  310  PHE310     -0.0003
    180  CZ        16.4800  -13.8560   13.9830 C.ar  310  PHE310     -0.0000
    181  N         20.5020   -5.9800   13.2160 N.3   313  ASP313     -0.1225
    182  CA        19.6960   -5.7280   14.4200 C.3   313  ASP313      0.1805
    183  C         20.5190   -5.7890   15.7240 C.2   313  ASP313      0.2597
    184  O         20.1140   -5.2090   16.7310 O.2   313  ASP313     -0.2718
    185  CB        18.5280   -6.7270   14.4820 C.3   313  ASP313      0.1424
    186  CG        17.3950   -6.2640   15.3810 C.2   313  ASP313      0.3668
    187  OD1       16.4600   -5.6060   14.8720 O.co2 313  ASP313     -0.2456
    188  OD2       17.4240   -6.5840   16.5880 O.co2 313  ASP313     -0.2456
    189  N         21.6550   -6.4930   15.7040 N.am  314  LEU314     -0.1979
    190  CA        22.5590   -6.5880   16.8660 C.3   314  LEU314      0.1596
    191  C         23.4490   -5.3570   17.0870 C.2   314  LEU314      0.2287
    192  O         23.9460   -5.1630   18.1990 O.2   314  LEU314     -0.2864
    193  CB        23.4510   -7.8330   16.7620 C.3   314  LEU314      0.0297
    194  CG        22.7440   -9.1720   16.9810 C.3   314  LEU314      0.0022
    195  CD1       23.5820  -10.3180   16.4400 C.3   314  LEU314      0.0001
    196  CD2       22.4170   -9.3920   18.4510 C.3   314  LEU314      0.0001
@<TRIPOS>BOND
     1   152   153    1
     2   153   154    1
     3   154   155    2
     4    31    32    1
     5   156   157    1
     6    34    33    2
     7    35    32    1
     8    35    36    1
     9   109   108    1
    10    32    33    1
    11    38    36    1
    12    36    37    1
    13   106   105    2
    14   157   160    1
    15   157   158    1
    16   165   158   am
    17   165   166    1
    18   160   161    1
    19   108   107    1
    20   108   110    1
    21   104   105    1
    22   104   107    1
    23   104   103    1
    24   158   159    2
    25   105   111   am
    26   169   166    1
    27   167   166    1
    28   167   168    2
    29   163   162    2
    30   161   162    1
    31   111   112    1
    32   114   113    2
    33   113   112    1
    34   112   115    1
    35   150   148    1
    36   147   146    2
    37   162   164   am
    38    19    17   am
    39    18    17    2
    40   125   119    1
    41   125   124    1
    42   170   171    1
    43   119   120    1
    44   146   145    1
    45    17    16    1
    46   115   116    1
    47   116   117    1
    48   148   145    1
    49   148   149    1
    50   124   123    1
    51   145   144    1
    52   171   174    1
    53   171   172    1
    54   100    99    2
    55   120   121    1
    56   120   123    1
    57    16    15    1
    58   174   175    1
    59   149   151    1
    60   172   173    2
    61   176   175   ar
    62   176   178   ar
    63   122   121    2
    64   181   182    1
    65   175   177   ar
    66     6     5    1
    67    99    98    1
    68   118   117    1
    69   178   180   ar
    70    97    98    1
    71    98   101    1
    72    15    12    1
    73   177   179   ar
    74   180   179   ar
    75     5     2    1
    76   182   185    1
    77   182   183    1
    78   185   186    1
    79   187   186   ar
    80    12    11    1
    81    12    13    1
    82   101   102    1
    83   137   136    2
    84   186   188   ar
    85     2     1    1
    86     2     3    1
    87     4     3    2
    88   136   135    1
    89   189   183   am
    90   189   190    1
    91    91    90    2
    92   183   184    2
    93    11     9   am
    94    13    14    2
    95     3     7   am
    96   126   127    1
    97    89    90    1
    98    89    88    1
    99    89    92    1
   100   195   194    1
   101   129   128    2
   102     9    10    2
   103     9     8    1
   104   193   190    1
   105   193   194    1
   106   190   191    1
   107    48    49   ar
   108    48    46   ar
   109     7     8    1
   110    49    47   ar
   111   194   196    1
   112   191   192    2
   113   132   131   ar
   114    93    92    1
   115    93    94    1
   116   135   138    1
   117   135   134    1
   118   138   139    1
   119   127   128    1
   120   127   130    1
   121    95    94    1
   122    95    96    1
   123    46    44   ar
   124    47    45   ar
   125   131   130    1
   126   131   133   ar
   127    44    45   ar
   128    44    43    1
   129   139   141   ar
   130   139   140   ar
   131    43    40    1
   132   141   143   ar
   133    20    21    1
   134   140   142   ar
   135    79    77    1
   136    30    29   ar
   137    30    28   ar
   138    29    27   ar
   139    28    26   ar
   140   143   142   ar
   141    21    22    1
   142    21    24    1
   143    40    39    1
   144    40    41    1
   145    27    25   ar
   146    26    25   ar
   147    77    76    1
   148    22    23    2
   149    25    24    1
   150    55    54    1
   151    41    42    2
   152    54    51    1
   153    78    76    1
   154    76    73    1
   155    73    72    1
   156    73    74    1
   157    87    85    1
   158    51    50    1
   159    51    52    1
   160    86    84    1
   161    72    66   am
   162    53    52    2
   163    59    58    2
   164    74    75    2
   165    84    85    1
   166    84    81    1
   167    66    65    1
   168    66    67    2
   169    65    68    1
   170    65    64    1
   171    58    64   am
   172    58    57    1
   173    68    69    1
   174    82    81    1
   175    82    83    2
   176    81    80    1
   177    56    57    1
   178    60    57    1
   179    60    61    1
   180    69    71   am
   181    69    70    2
   182    61    63   am
   183    61    62    2
