@<TRIPOS>MOLECULE
tmp/6g3zB00.pdb
 133 123 0 0 0
SMALL
GASTEIGER

@<TRIPOS>ATOM
      1  N        -64.5580   36.4410    4.7340 N.3     6  PRO6       -0.2116
      2  CA       -64.9190   37.5300    3.8120 C.3     6  PRO6        0.1372
      3  C        -66.4160   37.7300    3.8610 C.2     6  PRO6        0.2244
      4  O        -67.1580   36.9680    3.2280 O.2     6  PRO6       -0.2868
      5  CB       -64.4660   37.0000    2.4470 C.3     6  PRO6        0.0268
      6  CG       -64.6840   35.5440    2.5470 C.3     6  PRO6        0.0207
      7  CD       -64.4260   35.1560    4.0230 C.3     6  PRO6        0.0892
      8  N        -63.0850   40.0850    6.9990 N.3    38  PHE38      -0.1241
      9  CA       -62.5270   40.7830    5.8330 C.3    38  PHE38       0.1605
     10  C        -63.6910   41.4580    5.1130 C.2    38  PHE38       0.2264
     11  O        -64.5550   40.7830    4.5540 O.2    38  PHE38      -0.2867
     12  CB       -61.7790   39.7880    4.9490 C.3    38  PHE38       0.0534
     13  CG       -61.1840   40.3810    3.6790 C.ar   38  PHE38      -0.0203
     14  CD1      -60.1200   41.2640    3.7350 C.ar   38  PHE38      -0.0042
     15  CD2      -61.6550   39.9930    2.4310 C.ar   38  PHE38      -0.0042
     16  CE1      -59.5630   41.7940    2.5750 C.ar   38  PHE38      -0.0003
     17  CE2      -61.1070   40.5240    1.2660 C.ar   38  PHE38      -0.0003
     18  CZ       -60.0640   41.4230    1.3330 C.ar   38  PHE38      -0.0000
     19  N        -64.7760   42.3340    0.5570 N.3    41  GLY41      -0.1210
     20  CA       -64.1380   41.3950   -0.3270 C.3    41  GLY41       0.1956
     21  C        -65.0710   40.9580   -1.4490 C.2    41  GLY41       0.2613
     22  O        -66.1840   41.4590   -1.6230 O.2    41  GLY41      -0.2717
     23  N        -64.5920   39.9880   -2.2260 N.am   42  THR42      -0.1938
     24  CA       -65.4150   39.4170   -3.2840 C.3    42  THR42       0.2028
     25  C        -66.7430   38.9230   -2.7310 C.2    42  THR42       0.2642
     26  O        -67.8050   39.1840   -3.3110 O.2    42  THR42      -0.2714
     27  CB       -64.6540   38.2820   -3.9670 C.3    42  THR42       0.1808
     28  OG1      -63.4730   38.8190   -4.5700 O.3    42  THR42      -0.2208
     29  CG2      -65.5080   37.6050   -5.0420 C.3    42  THR42       0.0379
     30  N        -66.7060   38.2100   -1.5950 N.am   43  THR43      -0.1950
     31  CA       -67.9330   37.6150   -1.0710 C.3    43  THR43       0.1897
     32  C        -68.9000   38.6830   -0.5720 C.2    43  THR43       0.2313
     33  O        -70.1200   38.4760   -0.6060 O.2    43  THR43      -0.2863
     34  CB       -67.6100   36.6220    0.0470 C.3    43  THR43       0.1794
     35  OG1      -66.7180   35.6100   -0.4400 O.3    43  THR43      -0.2208
     36  CG2      -68.8750   35.9550    0.5370 C.3    43  THR43       0.0378
     37  N        -54.6710   41.5390   -1.5730 N.3   129  TYR129     -0.1241
     38  CA       -55.7130   40.5930   -1.9620 C.3   129  TYR129      0.1605
     39  C        -55.4280   40.2170   -3.4170 C.2   129  TYR129      0.2264
     40  O        -55.8060   40.9410   -4.3350 O.2   129  TYR129     -0.2867
     41  CB       -57.0940   41.2140   -1.7630 C.3   129  TYR129      0.0534
     42  CG       -58.2840   40.3210   -2.0730 C.ar  129  TYR129     -0.0201
     43  CD1      -58.1340   38.9710   -2.3520 C.ar  129  TYR129     -0.0009
     44  CD2      -59.5660   40.8480   -2.0970 C.ar  129  TYR129     -0.0009
     45  CE1      -59.2380   38.1740   -2.6520 C.ar  129  TYR129      0.0417
     46  CE2      -60.6590   40.0700   -2.3950 C.ar  129  TYR129      0.0417
     47  CZ       -60.4980   38.7340   -2.6710 C.ar  129  TYR129      0.1957
     48  OH       -61.6190   37.9640   -2.9460 O.3   129  TYR129     -0.2866
     49  N        -56.1610   37.9020   -6.4540 N.3   131  TYR131     -0.1241
     50  CA       -57.1960   37.0570   -7.0540 C.3   131  TYR131      0.1605
     51  C        -57.0640   37.2010   -8.5830 C.2   131  TYR131      0.2264
     52  O        -57.7370   38.0290   -9.2140 O.2   131  TYR131     -0.2867
     53  CB       -58.5780   37.4710   -6.5340 C.3   131  TYR131      0.0534
     54  CG       -59.7530   36.5370   -6.8110 C.ar  131  TYR131     -0.0201
     55  CD1      -59.6100   35.3850   -7.5730 C.ar  131  TYR131     -0.0009
     56  CD2      -61.0160   36.8220   -6.2860 C.ar  131  TYR131     -0.0009
     57  CE1      -60.6880   34.5330   -7.8030 C.ar  131  TYR131      0.0417
     58  CE2      -62.0990   35.9860   -6.5170 C.ar  131  TYR131      0.0417
     59  CZ       -61.9290   34.8430   -7.2760 C.ar  131  TYR131      0.1957
     60  OH       -62.9910   33.9980   -7.4930 O.3   131  TYR131     -0.2866
     61  N        -53.8350   37.6590    1.0860 N.3   154  LYS154     -0.1245
     62  CA       -54.8300   36.6320    0.8000 C.3   154  LYS154      0.1561
     63  C        -54.6610   36.2150   -0.6580 C.2   154  LYS154      0.2260
     64  O        -54.8430   37.0370   -1.5580 O.2   154  LYS154     -0.2867
     65  CB       -56.2500   37.1560    1.0450 C.3   154  LYS154      0.0271
     66  CG       -57.3530   36.2200    0.5110 C.3   154  LYS154      0.0035
     67  CD       -58.7470   36.8520    0.5630 C.3   154  LYS154      0.0206
     68  CE       -59.8220   35.9330   -0.0620 C.3   154  LYS154      0.1093
     69  NZ       -61.1720   36.5870   -0.2390 N.3   154  LYS154     -0.1314
     70  N        -56.0390   33.9670   -3.4200 N.3   156  THR156     -0.1218
     71  CA       -57.1300   33.1530   -3.9590 C.3   156  THR156      0.1862
     72  C        -56.7070   32.5610   -5.2980 C.2   156  THR156      0.2287
     73  O        -56.7370   33.2300   -6.3370 O.2   156  THR156     -0.2866
     74  CB       -58.3890   33.9790   -4.1160 C.3   156  THR156      0.1770
     75  OG1      -58.8070   34.3930   -2.8230 O.3   156  THR156     -0.2211
     76  CG2      -59.4990   33.1540   -4.7920 C.3   156  THR156      0.0375
     77  N        -57.2460   31.8640    0.0230 N.3   178  GLY178     -0.1225
     78  CA       -58.6340   32.1680   -0.2100 C.3   178  GLY178      0.1811
     79  C        -59.5210   30.9740   -0.4270 C.2   178  GLY178      0.2280
     80  O        -60.7300   31.1500   -0.5980 O.2   178  GLY178     -0.2866
     81  N        -61.7090   27.6890    0.5160 N.3   180  ASP180     -0.1239
     82  CA       -62.3620   26.8990    1.5500 C.3   180  ASP180      0.1674
     83  C        -61.9050   25.4510    1.5210 C.2   180  ASP180      0.2266
     84  O        -61.9830   24.7600    2.5470 O.2   180  ASP180     -0.2867
     85  CB       -63.8730   26.9400    1.3830 C.3   180  ASP180      0.1410
     86  CG       -64.4810   28.1610    1.9960 C.2   180  ASP180      0.3668
     87  OD1      -64.3240   29.2510    1.3960 O.co2 180  ASP180     -0.2456
     88  OD2      -65.0860   28.0240    3.0950 O.co2 180  ASP180     -0.2456
     89  N        -58.8910   32.7130    4.3700 N.3   195  VAL195     -0.1245
     90  CA       -60.0150   33.6180    4.1970 C.3   195  VAL195      0.1561
     91  C        -61.0330   32.8160    3.4040 C.2   195  VAL195      0.2260
     92  O        -60.8570   32.5890    2.2070 O.2   195  VAL195     -0.2867
     93  CB       -59.6110   34.9020    3.4770 C.3   195  VAL195      0.0252
     94  CG1      -60.7640   35.8770    3.4880 C.3   195  VAL195      0.0019
     95  CG2      -58.4140   35.5040    4.1330 C.3   195  VAL195      0.0019
     96  N        -64.8430   32.0230    2.3210 N.3   197  ALA197     -0.1245
     97  CA       -66.2260   32.4620    2.1610 C.3   197  ALA197      0.1562
     98  C        -67.2120   31.4870    2.7870 C.2   197  ALA197      0.2260
     99  O        -68.2700   31.8950    3.2780 O.2   197  ALA197     -0.2867
    100  CB       -66.5470   32.6330    0.6720 C.3   197  ALA197      0.0290
    101  N        -71.7500   26.4100   -5.8970 N.3   236  ARG236     -0.1245
    102  CA       -71.3400   26.8540   -7.2190 C.3   236  ARG236      0.1563
    103  C        -72.3780   26.5380   -8.2890 C.2   236  ARG236      0.2260
    104  O        -72.4000   27.2120   -9.3260 O.2   236  ARG236     -0.2867
    105  CB       -69.9890   26.2250   -7.5610 C.3   236  ARG236      0.0307
    106  CG       -68.8500   26.8420   -6.7590 C.3   236  ARG236      0.0489
    107  CD       -67.5540   26.0590   -6.8740 C.3   236  ARG236      0.2205
    108  NE       -66.4840   26.7200   -6.1290 N.pl3 236  ARG236     -0.0865
    109  CZ       -65.2330   26.2860   -6.0990 C.cat 236  ARG236      0.5346
    110  NH1      -64.8920   25.1880   -6.7750 N.pl3 236  ARG236      0.1354
    111  NH2      -64.3300   26.9500   -5.3920 N.pl3 236  ARG236      0.1354
    112  N        -71.9590   30.8940   -6.6980 N.3   240  SER240     -0.1202
    113  CA       -71.5590   30.8440   -5.3010 C.3   240  SER240      0.2020
    114  C        -71.9790   32.1000   -4.5430 C.2   240  SER240      0.2618
    115  O        -72.3880   32.0220   -3.3800 O.2   240  SER240     -0.2717
    116  CB       -70.0540   30.6420   -5.2220 C.3   240  SER240      0.2103
    117  OG       -69.3820   31.8670   -5.4360 O.3   240  SER240     -0.2182
    118  N        -71.9190   33.2620   -5.1930 N.am  241  LEU241     -0.1979
    119  CA       -72.1640   34.5120   -4.4750 C.3   241  LEU241      0.1596
    120  C        -73.6290   34.6630   -4.0870 C.2   241  LEU241      0.2287
    121  O        -73.9400   35.1520   -2.9910 O.2   241  LEU241     -0.2864
    122  CB       -71.7040   35.7060   -5.3070 C.3   241  LEU241      0.0297
    123  CG       -70.1930   35.7810   -5.5550 C.3   241  LEU241      0.0022
    124  CD1      -69.8840   36.8040   -6.6620 C.3   241  LEU241      0.0001
    125  CD2      -69.4130   36.1200   -4.2700 C.3   241  LEU241      0.0001
    126  N        -74.3970   31.8660   -1.3090 N.3   244  ASN244     -0.1240
    127  CA       -73.9010   32.1680    0.0220 C.3   244  ASN244      0.1653
    128  C        -75.0000   32.7240    0.9190 C.2   244  ASN244      0.2266
    129  O        -74.9700   32.5130    2.1410 O.2   244  ASN244     -0.2867
    130  CB       -72.7290   33.1490   -0.0750 C.3   244  ASN244      0.1155
    131  CG       -71.4670   32.4980   -0.6210 C.2   244  ASN244      0.2627
    132  OD1      -71.3350   31.2720   -0.6290 O.2   244  ASN244     -0.2716
    133  ND2      -70.5330   33.3210   -1.0810 N.am  244  ASN244     -0.0877
@<TRIPOS>BOND
     1   104   103    2
     2    52    51    2
     3    51    50    1
     4   103   102    1
     5    57    55   ar
     6    57    59   ar
     7    55    54   ar
     8   105   102    1
     9   105   106    1
    10    60    59    1
    11    59    58   ar
    12   102   101    1
    13    50    53    1
    14    50    49    1
    15   107   106    1
    16   107   108    1
    17    54    53    1
    18    54    56   ar
    19   110   109    1
    20   112   113    1
    21   124   123    1
    22    58    56   ar
    23    73    72    2
    24   108   109    2
    25   109   111    1
    26   123   122    1
    27   123   125    1
    28   117   116    1
    29   122   119    1
    30   113   116    1
    31   113   114    1
    32    72    71    1
    33   118   114   am
    34   118   119    1
    35    29    27    1
    36    76    74    1
    37    28    27    1
    38   114   115    2
    39   119   120    1
    40    40    39    2
    41    74    71    1
    42    74    75    1
    43   120   121    2
    44    27    24    1
    45    71    70    1
    46    39    38    1
    47    26    25    2
    48    24    25    1
    49    24    23    1
    50    48    47    1
    51    25    30   am
    52    47    45   ar
    53    47    46   ar
    54    45    43   ar
    55    46    44   ar
    56    43    42   ar
    57    23    21   am
    58    44    42   ar
    59    42    41    1
    60    38    41    1
    61    38    37    1
    62    22    21    2
    63    30    31    1
    64    64    63    2
    65    21    20    1
    66   126   127    1
    67   133   131   am
    68    31    32    1
    69    31    34    1
    70    63    62    1
    71   132   131    2
    72   131   130    1
    73    33    32    2
    74    80    79    2
    75    35    34    1
    76    79    78    1
    77    20    19    1
    78    69    68    1
    79    78    77    1
    80   130   127    1
    81    68    67    1
    82   127   128    1
    83    34    36    1
    84    66    67    1
    85    66    65    1
    86    81    82    1
    87   100    97    1
    88    62    65    1
    89    62    61    1
    90   128   129    2
    91    17    18   ar
    92    17    15   ar
    93    18    16   ar
    94    85    82    1
    95    85    86    1
    96    87    86   ar
    97    83    82    1
    98    83    84    2
    99    86    88   ar
   100    97    96    1
   101    97    98    1
   102    92    91    2
   103    15    13   ar
   104     5     6    1
   105     5     2    1
   106     6     7    1
   107    16    14   ar
   108    98    99    2
   109     4     3    2
   110    91    90    1
   111    93    94    1
   112    93    95    1
   113    93    90    1
   114    13    14   ar
   115    13    12    1
   116     2     3    1
   117     2     1    1
   118     7     1    1
   119    90    89    1
   120    11    10    2
   121    12     9    1
   122    10     9    1
   123     9     8    1
