@<TRIPOS>MOLECULE
tmp/6g46A03.pdb
 109 107 0 0 0
SMALL
GASTEIGER

@<TRIPOS>ATOM
      1  N        -69.0420   28.4860  -32.6150 N.3   128  ASP128     -0.1239
      2  CA       -69.5680   29.7230  -33.2040 C.3   128  ASP128      0.1674
      3  C        -70.4430   30.4640  -32.1950 C.2   128  ASP128      0.2266
      4  O        -71.6300   30.7130  -32.4220 O.2   128  ASP128     -0.2867
      5  CB       -70.3660   29.4260  -34.4860 C.3   128  ASP128      0.1410
      6  CG       -69.6020   28.5660  -35.4960 C.2   128  ASP128      0.3668
      7  OD1      -69.2800   27.4110  -35.1780 O.co2 128  ASP128     -0.2456
      8  OD2      -69.3560   29.0180  -36.6320 O.co2 128  ASP128     -0.2456
      9  N        -64.8060   30.4240  -34.2930 N.3   157  ASP157     -0.1239
     10  CA       -65.6520   31.6180  -34.3630 C.3   157  ASP157      0.1674
     11  C        -66.0780   32.0530  -32.9720 C.2   157  ASP157      0.2266
     12  O        -67.0930   31.5740  -32.4540 O.2   157  ASP157     -0.2867
     13  CB       -66.8860   31.3920  -35.2390 C.3   157  ASP157      0.1410
     14  CG       -66.5690   31.4570  -36.7180 C.2   157  ASP157      0.3668
     15  OD1      -65.3960   31.7050  -37.0660 O.co2 157  ASP157     -0.2456
     16  OD2      -67.4920   31.2540  -37.5290 O.co2 157  ASP157     -0.2456
     17  N        -67.0020   37.3370  -32.9530 N.3   160  TYR160     -0.1241
     18  CA       -67.6090   37.9960  -34.1110 C.3   160  TYR160      0.1605
     19  C        -67.4190   39.5040  -34.0670 C.2   160  TYR160      0.2264
     20  O        -68.1900   40.2470  -34.6850 O.2   160  TYR160     -0.2867
     21  CB       -69.1010   37.6560  -34.2590 C.3   160  TYR160      0.0534
     22  CG       -69.3420   36.2170  -34.6520 C.ar  160  TYR160     -0.0201
     23  CD1      -69.1570   35.1790  -33.7300 C.ar  160  TYR160     -0.0009
     24  CD2      -69.7240   35.8850  -35.9490 C.ar  160  TYR160     -0.0009
     25  CE1      -69.3570   33.8450  -34.0960 C.ar  160  TYR160      0.0417
     26  CE2      -69.9260   34.5680  -36.3250 C.ar  160  TYR160      0.0417
     27  CZ       -69.7460   33.5560  -35.3960 C.ar  160  TYR160      0.1957
     28  OH       -69.9530   32.2620  -35.7790 O.3   160  TYR160     -0.2866
     29  N        -67.4840   41.5560  -37.3290 N.3   163  ARG163     -0.1245
     30  CA       -68.6860   42.0800  -37.9660 C.3   163  ARG163      0.1563
     31  C        -68.9370   43.5490  -37.6450 C.2   163  ARG163      0.2260
     32  O        -69.7520   44.1770  -38.3240 O.2   163  ARG163     -0.2867
     33  CB       -69.9150   41.2490  -37.5730 C.3   163  ARG163      0.0307
     34  CG       -70.2080   40.1120  -38.5500 C.3   163  ARG163      0.0489
     35  CD       -71.4300   39.2910  -38.1740 C.3   163  ARG163      0.2205
     36  NE       -72.6980   39.8910  -38.6000 N.pl3 163  ARG163     -0.0865
     37  CZ       -73.2160   39.7780  -39.8220 C.cat 163  ARG163      0.5346
     38  NH1      -72.5700   39.1070  -40.7670 N.pl3 163  ARG163      0.1354
     39  NH2      -74.3750   40.3520  -40.1020 N.pl3 163  ARG163      0.1354
     40  N        -63.1070   31.2000  -39.0920 N.3   194  ASN194     -0.1225
     41  CA       -62.8840   32.2260  -40.1100 C.3   194  ASN194      0.1785
     42  C        -63.0790   33.6220  -39.5320 C.2   194  ASN194      0.2597
     43  O        -62.3910   34.5680  -39.9450 O.2   194  ASN194     -0.2718
     44  CB       -63.7830   31.9900  -41.3320 C.3   194  ASN194      0.1169
     45  CG       -65.2290   31.8730  -40.9590 C.2   194  ASN194      0.2627
     46  OD1      -65.6060   31.0040  -40.1700 O.2   194  ASN194     -0.2716
     47  ND2      -66.0470   32.7740  -41.4740 N.am  194  ASN194     -0.0877
     48  N        -63.9370   33.7680  -38.5230 N.am  195  HIS195     -0.1975
     49  CA       -64.0540   35.0930  -37.9240 C.3   195  HIS195      0.1656
     50  C        -62.8320   35.5070  -37.1240 C.2   195  HIS195      0.2291
     51  O        -62.7200   36.6890  -36.7920 O.2   195  HIS195     -0.2864
     52  CB       -65.3070   35.1750  -37.0750 C.3   195  HIS195      0.0771
     53  CG       -66.5370   35.2550  -37.9050 C.ar  195  HIS195      0.0820
     54  ND1      -67.0980   36.4570  -38.2790 N.ar  195  HIS195     -0.2267
     55  CD2      -67.2530   34.2900  -38.5260 C.ar  195  HIS195      0.1154
     56  CE1      -68.1440   36.2240  -39.0530 C.ar  195  HIS195      0.1986
     57  NE2      -68.2610   34.9180  -39.2170 N.ar  195  HIS195     -0.2212
     58  N        -75.5910   26.6030  -46.3520 N.3   288  HIS288     -0.1226
     59  CA       -74.5660   27.5540  -45.9540 C.3   288  HIS288      0.1752
     60  C        -73.2220   26.8430  -45.8530 C.2   288  HIS288      0.2596
     61  O        -73.1070   25.8200  -45.1700 O.2   288  HIS288     -0.2718
     62  CB       -74.9320   28.1990  -44.6240 C.3   288  HIS288      0.0759
     63  CG       -74.2200   29.4900  -44.3710 C.ar  288  HIS288      0.0818
     64  ND1      -74.1160   30.0510  -43.1170 N.ar  288  HIS288     -0.2268
     65  CD2      -73.5760   30.3310  -45.2140 C.ar  288  HIS288      0.1154
     66  CE1      -73.4410   31.1820  -43.2010 C.ar  288  HIS288      0.1986
     67  NE2      -73.1010   31.3740  -44.4620 N.ar  288  HIS288     -0.2212
     68  N        -72.2210   27.3680  -46.5660 N.am  289  HIS289     -0.1975
     69  CA       -70.8740   26.8050  -46.6100 C.3   289  HIS289      0.1656
     70  C        -70.8580   25.3740  -47.1400 C.2   289  HIS289      0.2291
     71  O        -69.9450   24.6020  -46.8160 O.2   289  HIS289     -0.2864
     72  CB       -70.2040   26.8560  -45.2360 C.3   289  HIS289      0.0771
     73  CG       -70.3150   28.1800  -44.5480 C.ar  289  HIS289      0.0820
     74  ND1      -69.8090   29.3490  -45.0850 N.ar  289  HIS289     -0.2267
     75  CD2      -70.8450   28.5160  -43.3480 C.ar  289  HIS289      0.1154
     76  CE1      -70.0340   30.3460  -44.2510 C.ar  289  HIS289      0.1986
     77  NE2      -70.6540   29.8670  -43.1870 N.ar  289  HIS289     -0.2212
     78  N        -68.8150   26.3670  -37.9300 N.3   316  HIS316     -0.1241
     79  CA       -68.9490   27.0860  -39.2020 C.3   316  HIS316      0.1621
     80  C        -70.3930   27.1020  -39.7190 C.2   316  HIS316      0.2264
     81  O        -70.9370   28.1780  -39.9940 O.2   316  HIS316     -0.2867
     82  CB       -67.9810   26.5080  -40.2510 C.3   316  HIS316      0.0745
     83  CG       -67.6870   27.4320  -41.4060 C.ar  316  HIS316      0.0817
     84  ND1      -67.4300   28.7800  -41.2470 N.ar  316  HIS316     -0.2268
     85  CD2      -67.5820   27.1900  -42.7390 C.ar  316  HIS316      0.1154
     86  CE1      -67.2050   29.3310  -42.4290 C.ar  316  HIS316      0.1986
     87  NE2      -67.2900   28.3870  -43.3500 N.ar  316  HIS316     -0.2212
     88  N        -74.2230   27.0780  -38.9700 N.3   318  HIS318     -0.1241
     89  CA       -74.9350   27.5260  -37.7710 C.3   318  HIS318      0.1621
     90  C        -76.1740   26.6610  -37.5250 C.2   318  HIS318      0.2264
     91  O        -77.3250   27.0990  -37.6080 O.2   318  HIS318     -0.2867
     92  CB       -75.2730   29.0010  -37.9000 C.3   318  HIS318      0.0745
     93  CG       -74.0600   29.8740  -37.9030 C.ar  318  HIS318      0.0817
     94  ND1      -74.0850   31.1870  -38.3080 N.ar  318  HIS318     -0.2268
     95  CD2      -72.7750   29.6090  -37.5640 C.ar  318  HIS318      0.1154
     96  CE1      -72.8720   31.6990  -38.2020 C.ar  318  HIS318      0.1986
     97  NE2      -72.0590   30.7630  -37.7570 N.ar  318  HIS318     -0.2212
     98  N        -74.4100   35.6060  -33.9740 N.3   358  TYR358     -0.1241
     99  CA       -75.0810   36.8880  -33.7750 C.3   358  TYR358      0.1605
    100  C        -76.6040   36.7580  -33.8650 C.2   358  TYR358      0.2264
    101  O        -77.2870   37.7470  -34.1560 O.2   358  TYR358     -0.2867
    102  CB       -74.5590   37.9350  -34.7740 C.3   358  TYR358      0.0534
    103  CG       -74.4790   37.3830  -36.1760 C.ar  358  TYR358     -0.0201
    104  CD1      -73.3680   36.6540  -36.5910 C.ar  358  TYR358     -0.0009
    105  CD2      -75.5300   37.5400  -37.0700 C.ar  358  TYR358     -0.0009
    106  CE1      -73.2940   36.1060  -37.8490 C.ar  358  TYR358      0.0417
    107  CE2      -75.4640   36.9970  -38.3500 C.ar  358  TYR358      0.0417
    108  CZ       -74.3390   36.2790  -38.7370 C.ar  358  TYR358      0.1957
    109  OH       -74.2490   35.7210  -40.0090 O.3   358  TYR358     -0.2866
@<TRIPOS>BOND
     1    70    71    2
     2    70    69    1
     3    69    68    1
     4    69    72    1
     5    68    60   am
     6    58    59    1
     7    59    60    1
     8    59    62    1
     9    60    61    2
    10    72    73    1
    11    65    67   ar
    12    65    63   ar
    13    74    73   ar
    14    74    76   ar
    15    62    63    1
    16    73    75   ar
    17    67    66   ar
    18    63    64   ar
    19    76    77   ar
    20    87    85   ar
    21    87    86   ar
    22    75    77   ar
    23    66    64   ar
    24    85    83   ar
    25    86    84   ar
    26    47    45   am
    27    83    84   ar
    28    83    82    1
    29    44    45    1
    30    44    41    1
    31    45    46    2
    32    38    37    1
    33    82    79    1
    34    41    42    1
    35    41    40    1
    36    39    37    1
    37   109   108    1
    38    81    80    2
    39    43    42    2
    40    37    36    2
    41    80    79    1
    42    42    48   am
    43    57    56   ar
    44    57    55   ar
    45    79    78    1
    46    56    54   ar
    47    88    89    1
    48   108   107   ar
    49   108   106   ar
    50    36    35    1
    51    34    35    1
    52    34    33    1
    53    55    53   ar
    54    48    49    1
    55   107   105   ar
    56    32    31    2
    57    94    96   ar
    58    94    93   ar
    59    54    53   ar
    60    96    97   ar
    61    30    31    1
    62    30    33    1
    63    30    29    1
    64    49    50    1
    65    49    52    1
    66    53    52    1
    67    93    92    1
    68    93    95   ar
    69    92    89    1
    70   106   104   ar
    71    89    90    1
    72    97    95   ar
    73    91    90    2
    74    16    14   ar
    75    50    51    2
    76   105   103   ar
    77    15    14   ar
    78    14    13    1
    79     8     6   ar
    80   104   103   ar
    81    26    24   ar
    82    26    27   ar
    83   103   102    1
    84    24    22   ar
    85    28    27    1
    86     6     7   ar
    87     6     5    1
    88    27    25   ar
    89    13    10    1
    90   102    99    1
    91    20    19    2
    92    22    21    1
    93    22    23   ar
    94     5     2    1
    95    10     9    1
    96    10    11    1
    97    21    18    1
    98   101   100    2
    99    18    19    1
   100    18    17    1
   101    25    23   ar
   102    98    99    1
   103   100    99    1
   104     2     1    1
   105     2     3    1
   106    11    12    2
   107     4     3    2
