@<TRIPOS>MOLECULE
tmp/6g4gD03.pdb
 98 96 0 0 0
SMALL
GASTEIGER

@<TRIPOS>ATOM
      1  N         19.7580   37.8880   96.4330 N.3   165  LEU165     -0.1231
      2  CA        20.6270   38.2350   95.3110 C.3   165  LEU165      0.1693
      3  C         22.1160   37.9510   95.4840 C.2   165  LEU165      0.2592
      4  O         22.6600   37.9520   96.5860 O.2   165  LEU165     -0.2718
      5  CB        20.4520   39.7060   94.9490 C.3   165  LEU165      0.0284
      6  CG        19.0940   40.1240   94.4410 C.3   165  LEU165      0.0019
      7  CD1       18.9990   41.6230   94.4250 C.3   165  LEU165      0.0001
      8  CD2       18.7990   39.5490   93.0430 C.3   165  LEU165      0.0001
      9  N         22.7780   37.7520   94.3470 N.am  166  TYR166     -0.1976
     10  CA        24.2180   37.5430   94.2780 C.3   166  TYR166      0.1639
     11  C         24.8230   38.9380   94.5040 C.2   166  TYR166      0.2290
     12  O         24.1910   39.9200   94.0500 O.2   166  TYR166     -0.2864
     13  CB        24.6470   36.9920   92.8800 C.3   166  TYR166      0.0560
     14  CG        24.2490   35.5590   92.5940 C.ar  166  TYR166     -0.0198
     15  CD1       24.5710   34.5330   93.4790 C.ar  166  TYR166     -0.0009
     16  CD2       23.6180   35.2160   91.4060 C.ar  166  TYR166     -0.0009
     17  CE1       24.2350   33.2040   93.2050 C.ar  166  TYR166      0.0417
     18  CE2       23.2580   33.8940   91.1320 C.ar  166  TYR166      0.0417
     19  CZ        23.5560   32.8910   92.0420 C.ar  166  TYR166      0.1957
     20  OH        23.1710   31.5900   91.8080 O.3   166  TYR166     -0.2866
     21  N         26.9930   40.6740   92.9880 N.3   168  GLU168     -0.1231
     22  CA        27.0830   41.4100   91.6980 C.3   168  GLU168      0.1699
     23  C         25.7860   42.1270   91.3160 C.2   168  GLU168      0.2592
     24  O         25.8290   43.1160   90.5880 O.2   168  GLU168     -0.2718
     25  CB        27.5280   40.5020   90.5540 C.3   168  GLU168      0.0402
     26  CG        26.5510   39.3850   90.2310 C.3   168  GLU168      0.1161
     27  CD        26.8260   38.6130   88.9610 C.2   168  GLU168      0.3649
     28  OE1       25.9190   37.8430   88.5660 O.co2 168  GLU168     -0.2457
     29  OE2       27.9270   38.7710   88.3710 O.co2 168  GLU168     -0.2457
     30  N         24.6400   41.6030   91.8020 N.am  169  SER169     -0.1952
     31  CA        23.3160   42.1360   91.5650 C.3   169  SER169      0.1924
     32  C         22.8460   43.0150   92.7320 C.2   169  SER169      0.2314
     33  O         22.2720   44.0600   92.4600 O.2   169  SER169     -0.2863
     34  CB        22.3330   41.0120   91.2450 C.3   169  SER169      0.2116
     35  OG        22.5750   40.3870   89.9900 O.3   169  SER169     -0.2180
     36  N         29.3980   33.7360   90.0760 N.3   385  HIS385     -0.1241
     37  CA        28.5200   34.8680   89.6890 C.3   385  HIS385      0.1621
     38  C         29.1100   36.1730   90.2080 C.2   385  HIS385      0.2264
     39  O         28.4800   36.8720   91.0230 O.2   385  HIS385     -0.2867
     40  CB        27.0860   34.6490   90.1860 C.3   385  HIS385      0.0745
     41  CG        26.4520   33.4090   89.6370 C.ar  385  HIS385      0.0817
     42  ND1       25.8650   33.3900   88.3750 N.ar  385  HIS385     -0.2268
     43  CD2       26.3260   32.1820   90.1930 C.ar  385  HIS385      0.1154
     44  CE1       25.3650   32.1700   88.2380 C.ar  385  HIS385      0.1986
     45  NE2       25.6430   31.4010   89.2840 N.ar  385  HIS385     -0.2212
     46  N         12.0160   39.6690   92.4160 N.3   451  PRO451     -0.2102
     47  CA        12.9470   38.8390   91.6380 C.3   451  PRO451      0.1504
     48  C         14.3050   38.6740   92.3370 C.2   451  PRO451      0.2576
     49  O         14.9340   39.6450   92.8020 O.2   451  PRO451     -0.2718
     50  CB        13.0620   39.6030   90.3270 C.3   451  PRO451      0.0282
     51  CG        11.8040   40.3350   90.2150 C.3   451  PRO451      0.0208
     52  CD        11.5610   40.8170   91.6090 C.3   451  PRO451      0.0893
     53  N         14.7010   37.4090   92.5000 N.am  452  ASN452     -0.1961
     54  CA        15.9570   37.0600   93.1440 C.3   452  ASN452      0.1819
     55  C         16.6260   35.8820   92.4160 C.2   452  ASN452      0.2621
     56  O         16.1370   35.4610   91.3660 O.2   452  ASN452     -0.2715
     57  CB        15.7500   36.8290   94.6300 C.3   452  ASN452      0.1195
     58  CG        14.9070   35.6400   94.9470 C.2   452  ASN452      0.2630
     59  OD1       15.4210   34.5250   95.0990 O.2   452  ASN452     -0.2716
     60  ND2       13.6020   35.8590   95.0850 N.am  452  ASN452     -0.0877
     61  N         17.7340   35.3650   92.9750 N.am  453  ASN453     -0.1972
     62  CA        18.5250   34.3020   92.3730 C.3   453  ASN453      0.1688
     63  C         18.2720   32.8970   92.9940 C.2   453  ASN453      0.2292
     64  O         18.8070   31.8860   92.5060 O.2   453  ASN453     -0.2864
     65  CB        19.9960   34.7010   92.3880 C.3   453  ASN453      0.1181
     66  CG        20.2430   36.0530   91.7510 C.2   453  ASN453      0.2629
     67  OD1       20.9410   36.8960   92.3120 O.2   453  ASN453     -0.2716
     68  ND2       19.6750   36.2890   90.5720 N.am  453  ASN453     -0.0877
     69  N         26.4710   38.0130   82.0430 N.3   666  ASP666     -0.1225
     70  CA        25.3620   38.3640   82.9300 C.3   666  ASP666      0.1805
     71  C         24.6870   37.1080   83.5420 C.2   666  ASP666      0.2598
     72  O         23.6530   37.1890   84.2150 O.2   666  ASP666     -0.2718
     73  CB        24.3670   39.3360   82.2500 C.3   666  ASP666      0.1424
     74  CG        23.2450   38.7580   81.4030 C.2   666  ASP666      0.3668
     75  OD1       23.2960   37.5370   81.0850 O.co2 666  ASP666     -0.2456
     76  OD2       22.3210   39.5280   81.0450 O.co2 666  ASP666     -0.2456
     77  N         25.3110   35.9650   83.3230 N.am  667  GLY667     -0.1942
     78  CA        24.8630   34.7230   83.9210 C.3   667  GLY667      0.2014
     79  C         23.8250   33.9690   83.1360 C.2   667  GLY667      0.2638
     80  O         23.5840   32.7870   83.4510 O.2   667  GLY667     -0.2714
     81  N         23.1660   34.6450   82.1460 N.am  668  HIS668     -0.1973
     82  CA        22.1520   33.9670   81.3340 C.3   668  HIS668      0.1656
     83  C         22.5020   34.0600   79.9260 C.2   668  HIS668      0.2291
     84  O         23.1830   35.0030   79.5650 O.2   668  HIS668     -0.2864
     85  CB        20.6690   34.3960   81.5780 C.3   668  HIS668      0.0771
     86  CG        20.4450   35.3890   82.6710 C.ar  668  HIS668      0.0820
     87  ND1       20.6560   35.0640   83.9980 N.ar  668  HIS668     -0.2267
     88  CD2       20.0040   36.6620   82.5970 C.ar  668  HIS668      0.1154
     89  CE1       20.3540   36.1500   84.6820 C.ar  668  HIS668      0.1986
     90  NE2       19.9490   37.1340   83.8860 N.ar  668  HIS668     -0.2212
     91  N         20.3710   28.5240   83.3220 N.3   754  LEU754     -0.1245
     92  CA        20.3520   29.9760   83.0930 C.3   754  LEU754      0.1561
     93  C         21.1020   30.3790   81.8640 C.2   754  LEU754      0.2260
     94  O         20.4930   31.0390   81.0150 O.2   754  LEU754     -0.2867
     95  CB        20.8090   30.7930   84.3020 C.3   754  LEU754      0.0270
     96  CG        19.9150   30.7500   85.5420 C.3   754  LEU754      0.0019
     97  CD1       20.6280   30.1230   86.6450 C.3   754  LEU754      0.0001
     98  CD2       19.6230   32.1170   86.0010 C.3   754  LEU754      0.0001
@<TRIPOS>BOND
     1    84    83    2
     2    83    82    1
     3    94    93    2
     4    76    74   ar
     5    75    74   ar
     6    82    85    1
     7    82    81    1
     8    74    73    1
     9    85    86    1
    10    93    92    1
    11    69    70    1
    12    81    79   am
    13    73    70    1
    14    88    86   ar
    15    88    90   ar
    16    86    87   ar
    17    70    71    1
    18    92    91    1
    19    92    95    1
    20    79    80    2
    21    79    78    1
    22    77    71   am
    23    77    78    1
    24    71    72    2
    25    90    89   ar
    26    87    89   ar
    27    95    96    1
    28    96    98    1
    29    96    97    1
    30    44    42   ar
    31    44    45   ar
    32    29    27   ar
    33    42    41   ar
    34    28    27   ar
    35    27    26    1
    36    45    43   ar
    37    41    40    1
    38    41    43   ar
    39    37    36    1
    40    37    40    1
    41    37    38    1
    42    35    34    1
    43    38    39    2
    44    51    50    1
    45    51    52    1
    46    26    25    1
    47    50    47    1
    48    25    22    1
    49    68    66   am
    50    24    23    2
    51    18    16   ar
    52    18    19   ar
    53    34    31    1
    54    23    22    1
    55    23    30   am
    56    56    55    2
    57    16    14   ar
    58    31    30    1
    59    31    32    1
    60    52    46    1
    61    47    48    1
    62    47    46    1
    63    22    21    1
    64    66    67    2
    65    66    65    1
    66    20    19    1
    67    19    17   ar
    68    48    53   am
    69    48    49    2
    70    62    65    1
    71    62    61    1
    72    62    63    1
    73    55    61   am
    74    55    54    1
    75    33    32    2
    76    53    54    1
    77    64    63    2
    78    14    13    1
    79    14    15   ar
    80    13    10    1
    81     8     6    1
    82    54    57    1
    83    17    15   ar
    84    12    11    2
    85    10     9    1
    86    10    11    1
    87     9     3   am
    88     7     6    1
    89     6     5    1
    90    57    58    1
    91    58    60   am
    92    58    59    2
    93     5     2    1
    94     2     3    1
    95     2     1    1
    96     3     4    2
