@<TRIPOS>MOLECULE
tmp/6g4gC03.pdb
 98 96 0 0 0
SMALL
GASTEIGER

@<TRIPOS>ATOM
      1  N         20.3230   65.1360   62.2630 N.3   165  LEU165     -0.1231
      2  CA        21.2760   64.8300   63.3360 C.3   165  LEU165      0.1693
      3  C         22.7550   65.0400   62.9910 C.2   165  LEU165      0.2592
      4  O         23.1360   65.0250   61.8200 O.2   165  LEU165     -0.2718
      5  CB        21.0530   63.3950   63.8370 C.3   165  LEU165      0.0284
      6  CG        19.6860   63.1000   64.4610 C.3   165  LEU165      0.0019
      7  CD1       19.4660   61.6390   64.5910 C.3   165  LEU165      0.0001
      8  CD2       19.5650   63.6880   65.8140 C.3   165  LEU165      0.0001
      9  N         23.5920   65.2380   64.0230 N.am  166  TYR166     -0.1976
     10  CA        25.0450   65.3340   63.8570 C.3   166  TYR166      0.1639
     11  C         25.5260   63.8910   63.6120 C.2   166  TYR166      0.2290
     12  O         24.8830   62.9590   64.1110 O.2   166  TYR166     -0.2864
     13  CB        25.7390   65.9070   65.1230 C.3   166  TYR166      0.0560
     14  CG        25.3940   67.3460   65.4580 C.ar  166  TYR166     -0.0198
     15  CD1       25.6390   68.3740   64.5520 C.ar  166  TYR166     -0.0009
     16  CD2       24.8680   67.6840   66.7000 C.ar  166  TYR166     -0.0009
     17  CE1       25.3230   69.7010   64.8570 C.ar  166  TYR166      0.0417
     18  CE2       24.5540   69.0070   67.0220 C.ar  166  TYR166      0.0417
     19  CZ        24.7810   70.0160   66.0990 C.ar  166  TYR166      0.1957
     20  OH        24.4790   71.3220   66.4380 O.3   166  TYR166     -0.2866
     21  N         27.6840   62.0770   65.0030 N.3   168  GLU168     -0.1231
     22  CA        27.8540   61.3970   66.3040 C.3   168  GLU168      0.1699
     23  C         26.5460   60.8110   66.8270 C.2   168  GLU168      0.2592
     24  O         26.5650   59.8630   67.6150 O.2   168  GLU168     -0.2718
     25  CB        28.4740   62.3380   67.3560 C.3   168  GLU168      0.0402
     26  CG        27.6130   63.5390   67.7110 C.3   168  GLU168      0.1161
     27  CD        28.0500   64.3290   68.9260 C.2   168  GLU168      0.3649
     28  OE1       27.2360   65.1590   69.4030 O.co2 168  GLU168     -0.2457
     29  OE2       29.1980   64.1290   69.3960 O.co2 168  GLU168     -0.2457
     30  N         25.4200   61.4190   66.3970 N.am  169  SER169     -0.1952
     31  CA        24.0710   61.0770   66.7910 C.3   169  SER169      0.1924
     32  C         23.3430   60.2000   65.7670 C.2   169  SER169      0.2314
     33  O         22.5390   59.3730   66.1930 O.2   169  SER169     -0.2863
     34  CB        23.2740   62.3340   67.1400 C.3   169  SER169      0.2116
     35  OG        23.5910   62.9060   68.4070 O.3   169  SER169     -0.2180
     36  N         30.7890   68.9620   67.3530 N.3   381  HIS381     -0.1241
     37  CA        29.8980   67.9030   67.8570 C.3   381  HIS381      0.1621
     38  C         30.3410   66.5510   67.2960 C.2   381  HIS381      0.2264
     39  O         29.5850   65.8710   66.5830 O.2   381  HIS381     -0.2867
     40  CB        28.4270   68.1920   67.5050 C.3   381  HIS381      0.0745
     41  CG        27.9210   69.4750   68.0690 C.ar  381  HIS381      0.0817
     42  ND1       27.4800   69.5660   69.3830 N.ar  381  HIS381     -0.2268
     43  CD2       27.7860   70.6810   67.4720 C.ar  381  HIS381      0.1154
     44  CE1       27.0720   70.8200   69.5250 C.ar  381  HIS381      0.1986
     45  NE2       27.2460   71.5280   68.4030 N.ar  381  HIS381     -0.2212
     46  N         12.8530   63.8720   66.9720 N.3   447  PRO447     -0.2102
     47  CA        13.9040   64.6370   67.6920 C.3   447  PRO447      0.1504
     48  C         15.2170   64.7790   66.9010 C.2   447  PRO447      0.2576
     49  O         15.7840   63.7620   66.4570 O.2   447  PRO447     -0.2718
     50  CB        14.1080   63.8200   68.9600 C.3   447  PRO447      0.0282
     51  CG        12.8230   63.1360   69.1590 C.3   447  PRO447      0.0208
     52  CD        12.3540   62.7630   67.8060 C.3   447  PRO447      0.0893
     53  N         15.6460   66.0380   66.6370 N.am  448  ASN448     -0.1961
     54  CA        16.8550   66.2920   65.8510 C.3   448  ASN448      0.1819
     55  C         17.7040   67.3710   66.4690 C.2   448  ASN448      0.2621
     56  O         17.4370   67.7440   67.6020 O.2   448  ASN448     -0.2715
     57  CB        16.5630   66.5430   64.3600 C.3   448  ASN448      0.1195
     58  CG        15.6080   67.6580   63.9760 C.2   448  ASN448      0.2630
     59  OD1       15.9900   68.6340   63.3190 O.2   448  ASN448     -0.2716
     60  ND2       14.3150   67.4250   64.1270 N.am  448  ASN448     -0.0877
     61  N         18.7510   67.8340   65.7650 N.am  449  ASN449     -0.1972
     62  CA        19.6550   68.8690   66.2810 C.3   449  ASN449      0.1688
     63  C         19.4060   70.2520   65.6360 C.2   449  ASN449      0.2292
     64  O         20.0810   71.2500   65.9480 O.2   449  ASN449     -0.2864
     65  CB        21.1170   68.4170   66.1830 C.3   449  ASN449      0.1181
     66  CG        21.3490   67.0810   66.8340 C.2   449  ASN449      0.2629
     67  OD1       21.9190   66.1800   66.2320 O.2   449  ASN449     -0.2716
     68  ND2       20.8830   66.9320   68.0670 N.am  449  ASN449     -0.0877
     69  N         28.5920   65.2380   75.8180 N.3   627  ASP627     -0.1225
     70  CA        27.3960   64.9760   75.0230 C.3   627  ASP627      0.1805
     71  C         26.8950   66.2700   74.3700 C.2   627  ASP627      0.2598
     72  O         26.0200   66.2130   73.5070 O.2   627  ASP627     -0.2718
     73  CB        26.3020   64.2030   75.8050 C.3   627  ASP627      0.1424
     74  CG        25.6260   64.8990   76.9670 C.2   627  ASP627      0.3668
     75  OD1       26.1640   65.9230   77.4480 O.co2 627  ASP627     -0.2456
     76  OD2       24.5960   64.3800   77.4450 O.co2 627  ASP627     -0.2456
     77  N         27.5270   67.3950   74.7200 N.am  628  GLY628     -0.1942
     78  CA        27.1930   68.7110   74.1970 C.3   628  GLY628      0.2014
     79  C         26.1270   69.3880   75.0300 C.2   628  GLY628      0.2638
     80  O         25.7090   70.5180   74.7240 O.2   628  GLY628     -0.2714
     81  N         25.6900   68.6780   76.1050 N.am  629  HIS629     -0.1973
     82  CA        24.6860   69.0940   77.0790 C.3   629  HIS629      0.1656
     83  C         25.2980   69.2930   78.4100 C.2   629  HIS629      0.2291
     84  O         26.2300   68.5750   78.7710 O.2   629  HIS629     -0.2864
     85  CB        23.5860   68.0470   77.2120 C.3   629  HIS629      0.0771
     86  CG        23.0200   67.7080   75.8970 C.ar  629  HIS629      0.0820
     87  ND1       22.2580   68.6090   75.2100 N.ar  629  HIS629     -0.2267
     88  CD2       23.2410   66.6290   75.1230 C.ar  629  HIS629      0.1154
     89  CE1       21.9800   68.0270   74.0600 C.ar  629  HIS629      0.1986
     90  NE2       22.5650   66.8420   73.9590 N.ar  629  HIS629     -0.2212
     91  N         22.8600   74.8180   74.9640 N.3   715  LEU715     -0.1245
     92  CA        22.8600   73.3670   75.2000 C.3   715  LEU715      0.1561
     93  C         23.7070   72.9070   76.3740 C.2   715  LEU715      0.2260
     94  O         23.2270   72.0840   77.1560 O.2   715  LEU715     -0.2867
     95  CB        23.2510   72.6010   73.9430 C.3   715  LEU715      0.0270
     96  CG        22.3180   72.7870   72.7760 C.3   715  LEU715      0.0019
     97  CD1       22.9990   72.4310   71.5030 C.3   715  LEU715      0.0001
     98  CD2       21.0260   72.0190   72.9560 C.3   715  LEU715      0.0001
@<TRIPOS>BOND
     1     4     3    2
     2     1     2    1
     3     3     2    1
     4     3     9   am
     5    59    58    2
     6     2     5    1
     7    11    10    1
     8    11    12    2
     9     5     6    1
    10    10     9    1
    11    10    13    1
    12    58    60   am
    13    58    57    1
    14    57    54    1
    15     6     7    1
    16     6     8    1
    17    15    17   ar
    18    15    14   ar
    19    17    19   ar
    20    21    22    1
    21    13    14    1
    22    14    16   ar
    23    63    64    2
    24    63    62    1
    25    61    62    1
    26    61    55   am
    27    32    33    2
    28    32    31    1
    29    54    55    1
    30    54    53    1
    31    19    20    1
    32    19    18   ar
    33    65    62    1
    34    65    66    1
    35    67    66    2
    36    22    23    1
    37    22    25    1
    38    30    31    1
    39    30    23   am
    40    49    48    2
    41    55    56    2
    42    39    38    2
    43    53    48   am
    44    16    18   ar
    45    31    34    1
    46    23    24    2
    47    66    68   am
    48    48    47    1
    49    46    47    1
    50    46    52    1
    51    34    35    1
    52    38    37    1
    53    36    37    1
    54    25    26    1
    55    43    41   ar
    56    43    45   ar
    57    40    37    1
    58    40    41    1
    59    47    50    1
    60    26    27    1
    61    52    51    1
    62    41    42   ar
    63    45    44   ar
    64    27    29   ar
    65    27    28   ar
    66    50    51    1
    67    42    44   ar
    68    97    96    1
    69    96    98    1
    70    96    95    1
    71    72    71    2
    72    95    92    1
    73    90    89   ar
    74    90    88   ar
    75    89    87   ar
    76    78    77    1
    77    78    79    1
    78    71    77   am
    79    71    70    1
    80    80    79    2
    81    91    92    1
    82    70    73    1
    83    70    69    1
    84    79    81   am
    85    88    86   ar
    86    92    93    1
    87    87    86   ar
    88    73    74    1
    89    86    85    1
    90    81    82    1
    91    93    94    2
    92    74    76   ar
    93    74    75   ar
    94    82    85    1
    95    82    83    1
    96    83    84    2
