@<TRIPOS>MOLECULE
tmp/6g4mA00.pdb
 153 151 0 0 0
SMALL
GASTEIGER

@<TRIPOS>ATOM
      1  N         -6.1170    4.9880   61.5940 N.3    67  TYR67      -0.1241
      2  CA        -7.3910    4.4700   61.0980 C.3    67  TYR67       0.1605
      3  C         -7.4960    2.9570   61.3150 C.2    67  TYR67       0.2264
      4  O         -6.6200    2.1980   60.8940 O.2    67  TYR67      -0.2867
      5  CB        -7.5230    4.8020   59.6080 C.3    67  TYR67       0.0534
      6  CG        -8.7580    4.2310   58.9420 C.ar   67  TYR67      -0.0201
      7  CD1       -8.7490    2.9510   58.3930 C.ar   67  TYR67      -0.0009
      8  CD2       -9.9230    4.9760   58.8490 C.ar   67  TYR67      -0.0009
      9  CE1       -9.8600    2.4280   57.7960 C.ar   67  TYR67       0.0417
     10  CE2      -11.0510    4.4560   58.2500 C.ar   67  TYR67       0.0417
     11  CZ       -11.0140    3.1830   57.7250 C.ar   67  TYR67       0.1957
     12  OH       -12.1360    2.6590   57.1260 O.3    67  TYR67      -0.2866
     13  N         -9.3950   -0.5100   60.5050 N.3    69  ASP69      -0.1239
     14  CA       -10.1890   -1.0370   59.4000 C.3    69  ASP69       0.1674
     15  C        -11.3830   -1.8130   59.9320 C.2    69  ASP69       0.2266
     16  O        -11.2170   -2.7570   60.7100 O.2    69  ASP69      -0.2867
     17  CB        -9.3260   -1.9320   58.5100 C.3    69  ASP69       0.1410
     18  CG       -10.1440   -2.8570   57.6280 C.2    69  ASP69       0.3668
     19  OD1       -9.6840   -3.9960   57.3890 O.co2  69  ASP69      -0.2456
     20  OD2      -11.2350   -2.4560   57.1670 O.co2  69  ASP69      -0.2456
     21  N        -14.1880   -2.7850   57.6560 N.3    71  GLN71      -0.1245
     22  CA       -15.0580   -3.2820   56.5930 C.3    71  GLN71       0.1566
     23  C        -15.5470   -4.6990   56.9020 C.2    71  GLN71       0.2260
     24  O        -16.7050   -5.0220   56.6230 O.2    71  GLN71      -0.2867
     25  CB       -14.3780   -3.2150   55.2060 C.3    71  GLN71       0.0367
     26  CG       -15.3720   -3.5750   54.0610 C.3    71  GLN71       0.0905
     27  CD       -16.0920   -2.3450   53.5460 C.2    71  GLN71       0.2608
     28  OE1      -15.7350   -1.2130   53.9190 O.2    71  GLN71      -0.2717
     29  NE2      -17.2010   -2.5470   52.8020 N.am   71  GLN71      -0.0878
     30  N         -0.2260    5.0890   56.7620 N.3   118  TYR118     -0.1241
     31  CA        -1.2970    5.6060   57.5890 C.3   118  TYR118      0.1605
     32  C         -1.6580    4.6420   58.7120 C.2   118  TYR118      0.2264
     33  O         -2.4690    4.9980   59.5810 O.2   118  TYR118     -0.2867
     34  CB        -2.5400    5.9190   56.7330 C.3   118  TYR118      0.0534
     35  CG        -3.2820    4.6690   56.3520 C.ar  118  TYR118     -0.0201
     36  CD1       -2.8830    3.9110   55.2520 C.ar  118  TYR118     -0.0009
     37  CD2       -4.3610    4.2200   57.1130 C.ar  118  TYR118     -0.0009
     38  CE1       -3.5420    2.7460   54.9150 C.ar  118  TYR118      0.0417
     39  CE2       -5.0170    3.0640   56.7940 C.ar  118  TYR118      0.0417
     40  CZ        -4.6030    2.3270   55.6910 C.ar  118  TYR118      0.1957
     41  OH        -5.2610    1.1710   55.3620 O.3   118  TYR118     -0.2866
     42  N         -8.8820   10.9970   55.2450 N.3   276  TRP276     -0.1227
     43  CA        -9.0610   10.5690   53.8700 C.3   276  TRP276      0.1737
     44  C         -9.6950   11.6290   52.9850 C.2   276  TRP276      0.2595
     45  O         -9.6540   11.4820   51.7600 O.2   276  TRP276     -0.2718
     46  CB        -9.9080    9.3070   53.8180 C.3   276  TRP276      0.0564
     47  CG        -9.2710    8.0990   54.4580 C.ar  276  TRP276      0.0003
     48  CD1       -9.5440    7.5830   55.6910 C.ar  276  TRP276      0.0946
     49  CD2       -8.2720    7.2540   53.8850 C.ar  276  TRP276      0.0152
     50  NE1       -8.7780    6.4690   55.9190 N.ar  276  TRP276     -0.2442
     51  CE2       -7.9850    6.2490   54.8270 C.ar  276  TRP276      0.0810
     52  CE3       -7.5880    7.2520   52.6680 C.ar  276  TRP276      0.0012
     53  CZ2       -7.0480    5.2530   54.5880 C.ar  276  TRP276      0.0191
     54  CZ3       -6.6580    6.2630   52.4330 C.ar  276  TRP276      0.0001
     55  CH2       -6.3950    5.2770   53.3870 C.ar  276  TRP276      0.0015
     56  N        -10.2680   12.6890   53.5550 N.am  277  ASN277     -0.1974
     57  CA       -10.9370   13.6980   52.7400 C.3   277  ASN277      0.1688
     58  C         -9.9640   14.6400   52.0430 C.2   277  ASN277      0.2292
     59  O        -10.3990   15.6550   51.4880 O.2   277  ASN277     -0.2864
     60  CB       -11.9100   14.5380   53.5790 C.3   277  ASN277      0.1181
     61  CG       -12.8520   13.6980   54.4300 C.2   277  ASN277      0.2629
     62  OD1      -13.1860   12.5660   54.0960 O.2   277  ASN277     -0.2716
     63  ND2      -13.2840   14.2650   55.5480 N.am  277  ASN277     -0.0877
     64  N         -7.2700   13.4880   49.8990 N.3   279  LEU279     -0.1245
     65  CA        -6.7710   12.9710   48.6390 C.3   279  LEU279      0.1561
     66  C         -7.3140   13.8290   47.5030 C.2   279  LEU279      0.2260
     67  O         -8.4640   14.2880   47.5730 O.2   279  LEU279     -0.2867
     68  CB        -7.1770   11.5090   48.4590 C.3   279  LEU279      0.0270
     69  CG        -6.5110   10.4990   49.4140 C.3   279  LEU279      0.0019
     70  CD1       -7.1670    9.1290   49.3230 C.3   279  LEU279      0.0001
     71  CD2       -5.0060   10.3810   49.1480 C.3   279  LEU279      0.0001
     72  N        -10.5420   10.4540   43.5950 N.3   282  ASP282     -0.1225
     73  CA       -11.1110    9.1550   43.9400 C.3   282  ASP282      0.1805
     74  C        -10.1300    8.1000   43.4640 C.2   282  ASP282      0.2598
     75  O         -9.9560    7.9090   42.2550 O.2   282  ASP282     -0.2718
     76  CB       -12.4830    8.9470   43.3020 C.3   282  ASP282      0.1424
     77  CG       -13.5690    9.7820   43.9530 C.2   282  ASP282      0.3668
     78  OD1      -13.9330    9.4820   45.1070 O.co2 282  ASP282     -0.2456
     79  OD2      -14.0720   10.7300   43.3090 O.co2 282  ASP282     -0.2456
     80  N         -9.4730    7.4230   44.4010 N.am  283  SER283     -0.1938
     81  CA        -8.3500    6.5770   44.0480 C.3   283  SER283      0.2055
     82  C         -8.3410    5.3330   44.9150 C.2   283  SER283      0.2642
     83  O         -8.9420    5.2940   45.9890 O.2   283  SER283     -0.2714
     84  CB        -7.0370    7.3430   44.1990 C.3   283  SER283      0.2130
     85  OG        -6.9660    7.9210   45.4930 O.3   283  SER283     -0.2179
     86  N         -7.6670    4.3050   44.4190 N.am  284  ILE284     -0.1977
     87  CA        -7.2780    3.1750   45.2440 C.3   284  ILE284      0.1596
     88  C         -5.7550    3.1250   45.3180 C.2   284  ILE284      0.2287
     89  O         -5.0450    3.6190   44.4300 O.2   284  ILE284     -0.2864
     90  CB        -7.8600    1.8440   44.7250 C.3   284  ILE284      0.0276
     91  CG1       -7.4190    1.5510   43.3060 C.3   284  ILE284      0.0022
     92  CG2       -9.3560    1.8940   44.7310 C.3   284  ILE284      0.0022
     93  CD1       -7.8130    0.1620   42.8870 C.3   284  ILE284      0.0001
     94  N         -3.8890    4.7890   47.3070 N.3   286  ARG286     -0.1231
     95  CA        -3.3820    6.1270   47.5500 C.3   286  ARG286      0.1694
     96  C         -3.6490    6.4830   49.0030 C.2   286  ARG286      0.2592
     97  O         -4.6540    6.0670   49.5860 O.2   286  ARG286     -0.2718
     98  CB        -4.0280    7.1670   46.6290 C.3   286  ARG286      0.0321
     99  CG        -3.6340    7.0620   45.1750 C.3   286  ARG286      0.0489
    100  CD        -2.2030    7.5010   44.9540 C.3   286  ARG286      0.2205
    101  NE        -1.8830    7.5420   43.5340 N.pl3 286  ARG286     -0.0865
    102  CZ        -1.4670    6.4950   42.8290 C.cat 286  ARG286      0.5346
    103  NH1       -1.3130    5.3120   43.4060 N.pl3 286  ARG286      0.1354
    104  NH2       -1.2140    6.6360   41.5380 N.pl3 286  ARG286      0.1354
    105  N         -2.7400    7.2560   49.5930 N.am  287  PHE287     -0.1976
    106  CA        -2.7960    7.5130   51.0230 C.3   287  PHE287      0.1639
    107  C         -2.4930    8.9770   51.2910 C.2   287  PHE287      0.2290
    108  O         -1.6920    9.6020   50.5950 O.2   287  PHE287     -0.2864
    109  CB        -1.8320    6.6090   51.7740 C.3   287  PHE287      0.0560
    110  CG        -1.8930    5.1580   51.3480 C.ar  287  PHE287     -0.0200
    111  CD1       -3.0150    4.3930   51.5950 C.ar  287  PHE287     -0.0042
    112  CD2       -0.8040    4.5510   50.7480 C.ar  287  PHE287     -0.0042
    113  CE1       -3.0570    3.0640   51.2290 C.ar  287  PHE287     -0.0003
    114  CE2       -0.8460    3.2230   50.3820 C.ar  287  PHE287     -0.0003
    115  CZ        -1.9710    2.4770   50.6250 C.ar  287  PHE287     -0.0000
    116  N         -6.2640   -7.2140   47.0170 N.3   327  PHE327     -0.1227
    117  CA        -6.8140   -6.6830   48.2500 C.3   327  PHE327      0.1736
    118  C         -7.2980   -5.2400   48.0750 C.2   327  PHE327      0.2595
    119  O         -8.3910   -4.8870   48.5320 O.2   327  PHE327     -0.2718
    120  CB        -5.7530   -6.8510   49.3420 C.3   327  PHE327      0.0547
    121  CG        -5.7730   -5.8040   50.3830 C.ar  327  PHE327     -0.0202
    122  CD1       -6.9170   -5.5740   51.1370 C.ar  327  PHE327     -0.0042
    123  CD2       -4.6250   -5.0670   50.6410 C.ar  327  PHE327     -0.0042
    124  CE1       -6.9300   -4.6000   52.1000 C.ar  327  PHE327     -0.0003
    125  CE2       -4.6260   -4.0960   51.6100 C.ar  327  PHE327     -0.0003
    126  CZ        -5.7830   -3.8710   52.3400 C.ar  327  PHE327     -0.0000
    127  N         -6.5440   -4.4100   47.3630 N.am  328  PHE328     -0.1976
    128  CA        -6.9520   -3.0170   47.2120 C.3   328  PHE328      0.1639
    129  C         -8.2330   -2.8710   46.3950 C.2   328  PHE328      0.2290
    130  O         -9.0240   -1.9600   46.6630 O.2   328  PHE328     -0.2864
    131  CB        -5.8070   -2.2070   46.6030 C.3   328  PHE328      0.0560
    132  CG        -4.6040   -2.1540   47.4900 C.ar  328  PHE328     -0.0200
    133  CD1       -3.6730   -3.1840   47.4750 C.ar  328  PHE328     -0.0042
    134  CD2       -4.4370   -1.1080   48.3940 C.ar  328  PHE328     -0.0042
    135  CE1       -2.5900   -3.1580   48.3280 C.ar  328  PHE328     -0.0003
    136  CE2       -3.3510   -1.0670   49.2430 C.ar  328  PHE328     -0.0003
    137  CZ        -2.4270   -2.0870   49.2130 C.ar  328  PHE328     -0.0000
    138  N        -11.4810   -3.6000   48.5870 N.3   331  TYR331     -0.1227
    139  CA       -11.9210   -2.5280   49.4730 C.3   331  TYR331      0.1736
    140  C        -12.4070   -1.2920   48.7230 C.2   331  TYR331      0.2596
    141  O        -13.2050   -0.5240   49.2740 O.2   331  TYR331     -0.2718
    142  CB       -10.7870   -2.1160   50.4190 C.3   331  TYR331      0.0548
    143  CG       -10.6170   -2.9930   51.6330 C.ar  331  TYR331     -0.0200
    144  CD1      -10.2470   -4.3300   51.5070 C.ar  331  TYR331     -0.0009
    145  CD2      -10.7980   -2.4840   52.9050 C.ar  331  TYR331     -0.0009
    146  CE1      -10.0800   -5.1330   52.6190 C.ar  331  TYR331      0.0417
    147  CE2      -10.6320   -3.2780   54.0160 C.ar  331  TYR331      0.0417
    148  CZ       -10.2710   -4.5980   53.8670 C.ar  331  TYR331      0.1957
    149  OH       -10.1060   -5.3880   54.9770 O.3   331  TYR331     -0.2866
    150  N        -11.9400   -1.0600   47.4940 N.am  332  GLY332     -0.1957
    151  CA       -12.1560    0.2410   46.8890 C.3   332  GLY332      0.1869
    152  C        -12.8090    0.2940   45.5240 C.2   332  GLY332      0.2309
    153  O        -13.0140    1.3860   44.9870 O.2   332  GLY332     -0.2863
@<TRIPOS>BOND
     1   104   102    1
     2    75    74    2
     3   102   103    1
     4   102   101    2
     5    93    91    1
     6    76    73    1
     7    76    77    1
     8    91    90    1
     9    79    77   ar
    10    74    73    1
    11    74    80   am
    12   101   100    1
    13    72    73    1
    14    77    78   ar
    15    81    84    1
    16    81    80    1
    17    81    82    1
    18    84    85    1
    19    86    82   am
    20    86    87    1
    21    89    88    2
    22    90    92    1
    23    90    87    1
    24    82    83    2
    25   100    99    1
    26   153   152    2
    27    99    98    1
    28    87    88    1
    29   152   151    1
    30   129   130    2
    31   129   128    1
    32   131   128    1
    33   131   132    1
    34    98    95    1
    35   151   150    1
    36   116   117    1
    37   128   127    1
    38    94    95    1
    39   127   118   am
    40   133   132   ar
    41   133   135   ar
    42   132   134   ar
    43   150   140   am
    44    66    67    2
    45    66    65    1
    46    95    96    1
    47   118   117    1
    48   118   119    2
    49   117   120    1
    50   135   137   ar
    51   134   136   ar
    52    68    65    1
    53    68    69    1
    54   138   139    1
    55    65    64    1
    56   140   141    2
    57   140   139    1
    58    96    97    2
    59    96   105   am
    60    71    69    1
    61   137   136   ar
    62    70    69    1
    63   120   121    1
    64   139   142    1
    65   105   106    1
    66   114   115   ar
    67   114   112   ar
    68   121   123   ar
    69   121   122   ar
    70   142   143    1
    71   108   107    2
    72   115   113   ar
    73   123   125   ar
    74   112   110   ar
    75   106   107    1
    76   106   109    1
    77   122   124   ar
    78   113   111   ar
    79   110   111   ar
    80   110   109    1
    81    59    58    2
    82   144   143   ar
    83   144   146   ar
    84   125   126   ar
    85   143   145   ar
    86    45    44    2
    87    58    57    1
    88   124   126   ar
    89    54    52   ar
    90    54    55   ar
    91   146   148   ar
    92    52    49   ar
    93    57    56    1
    94    57    60    1
    95    29    27   am
    96   145   147   ar
    97    44    56   am
    98    44    43    1
    99    55    53   ar
   100    27    28    2
   101    27    26    1
   102    60    61    1
   103    46    43    1
   104    46    47    1
   105   148   147   ar
   106   148   149    1
   107    43    42    1
   108    49    47   ar
   109    49    51   ar
   110    26    25    1
   111    62    61    2
   112    61    63   am
   113    47    48   ar
   114    53    51   ar
   115    51    50   ar
   116    38    36   ar
   117    38    40   ar
   118    25    22    1
   119    36    35   ar
   120    41    40    1
   121    40    39   ar
   122    48    50   ar
   123    35    34    1
   124    35    37   ar
   125    22    23    1
   126    22    21    1
   127    24    23    2
   128    34    31    1
   129    30    31    1
   130    39    37   ar
   131    12    11    1
   132    20    18   ar
   133    19    18   ar
   134    31    32    1
   135    18    17    1
   136    11     9   ar
   137    11    10   ar
   138     9     7   ar
   139    10     8   ar
   140     7     6   ar
   141    17    14    1
   142    32    33    2
   143     8     6   ar
   144     6     5    1
   145    14    15    1
   146    14    13    1
   147     5     2    1
   148    15    16    2
   149     4     3    2
   150     2     3    1
   151     2     1    1
