@<TRIPOS>MOLECULE
tmp/6g4oA00.pdb
 110 107 0 0 0
SMALL
GASTEIGER

@<TRIPOS>ATOM
      1  N         -1.8330   -1.7420   -8.2470 N.3   115  GLY115     -0.1210
      2  CA        -0.4940   -1.2970   -8.5580 C.3   115  GLY115      0.1956
      3  C         -0.2440    0.1210   -8.0760 C.2   115  GLY115      0.2612
      4  O          0.5990    0.8390   -8.6300 O.2   115  GLY115     -0.2717
      5  N         -1.0140    0.5500   -7.0770 N.am  116  GLY116     -0.1956
      6  CA        -0.6920    1.7450   -6.3220 C.3   116  GLY116      0.1869
      7  C         -0.9870    3.0700   -6.9790 C.2   116  GLY116      0.2309
      8  O         -0.4400    4.0900   -6.5440 O.2   116  GLY116     -0.2863
      9  N          0.2240    4.1530   -9.4670 N.3   118  TYR118     -0.1241
     10  CA         1.3740    4.5170  -10.2710 C.3   118  TYR118      0.1605
     11  C          1.6350    3.5110  -11.3760 C.2   118  TYR118      0.2264
     12  O          2.4770    3.7780  -12.2420 O.2   118  TYR118     -0.2867
     13  CB         2.6340    4.6570   -9.3890 C.3   118  TYR118      0.0534
     14  CG         3.2590    3.3420   -8.9190 C.ar  118  TYR118     -0.0201
     15  CD1        4.2110    2.6870   -9.6860 C.ar  118  TYR118     -0.0009
     16  CD2        2.9040    2.7750   -7.7090 C.ar  118  TYR118     -0.0009
     17  CE1        4.7750    1.5010   -9.2710 C.ar  118  TYR118      0.0417
     18  CE2        3.4720    1.5870   -7.2830 C.ar  118  TYR118      0.0417
     19  CZ         4.4080    0.9520   -8.0680 C.ar  118  TYR118      0.1957
     20  OH         4.9750   -0.2390   -7.6470 O.3   118  TYR118     -0.2866
     21  N         -5.9710   -4.2650   -4.1960 N.3   197  SER197     -0.1202
     22  CA        -5.0580   -3.2180   -3.7490 C.3   197  SER197      0.2020
     23  C         -5.5960   -1.8480   -4.1540 C.2   197  SER197      0.2618
     24  O         -6.6530   -1.4280   -3.6750 O.2   197  SER197     -0.2717
     25  CB        -3.6720   -3.4690   -4.3260 C.3   197  SER197      0.2103
     26  OG        -2.6880   -2.7610   -3.6170 O.3   197  SER197     -0.2182
     27  N         -4.9070   -1.1450   -5.0530 N.am  198  ALA198     -0.1979
     28  CA        -5.4800    0.0810   -5.6090 C.3   198  ALA198      0.1597
     29  C         -6.7730   -0.2020   -6.3700 C.2   198  ALA198      0.2287
     30  O         -7.6100    0.6960   -6.5330 O.2   198  ALA198     -0.2864
     31  CB        -4.4610    0.7750   -6.5200 C.3   198  ALA198      0.0319
     32  N         -7.9550   -6.7500   -0.5740 N.3   223  SER223     -0.1217
     33  CA        -6.7230   -6.1700   -0.0320 C.3   223  SER223      0.1889
     34  C         -6.6450   -4.6800   -0.3280 C.2   223  SER223      0.2288
     35  O         -5.5860   -4.1420   -0.6500 O.2   223  SER223     -0.2866
     36  CB        -5.4950   -6.8810   -0.5880 C.3   223  SER223      0.2089
     37  OG        -5.3000   -8.1240    0.0530 O.3   223  SER223     -0.2183
     38  N         -2.4610    5.2440    2.0620 N.3   230  TRP230     -0.1241
     39  CA        -1.7450    5.4730    0.8130 C.3   230  TRP230      0.1605
     40  C         -2.6690    5.8130   -0.3540 C.2   230  TRP230      0.2264
     41  O         -2.1710    6.1800   -1.4270 O.2   230  TRP230     -0.2867
     42  CB        -0.9040    4.2380    0.4600 C.3   230  TRP230      0.0550
     43  CG        -1.6880    2.9710    0.5570 C.ar  230  TRP230      0.0003
     44  CD1       -1.7300    2.1180    1.6140 C.ar  230  TRP230      0.0946
     45  CD2       -2.5730    2.4300   -0.4290 C.ar  230  TRP230      0.0152
     46  NE1       -2.5720    1.0690    1.3480 N.ar  230  TRP230     -0.2442
     47  CE2       -3.1050    1.2380    0.0990 C.ar  230  TRP230      0.0810
     48  CE3       -2.9700    2.8370   -1.7070 C.ar  230  TRP230      0.0012
     49  CZ2       -4.0110    0.4430   -0.6100 C.ar  230  TRP230      0.0191
     50  CZ3       -3.8660    2.0500   -2.4060 C.ar  230  TRP230      0.0001
     51  CH2       -4.3710    0.8620   -1.8590 C.ar  230  TRP230      0.0015
     52  N          2.9310    6.7940   -2.5590 N.3   287  PHE287     -0.1241
     53  CA         2.9170    6.8790   -4.0070 C.3   287  PHE287      0.1605
     54  C          2.6120    8.3110   -4.4090 C.2   287  PHE287      0.2264
     55  O          1.7890    8.9800   -3.7750 O.2   287  PHE287     -0.2867
     56  CB         1.9100    5.9050   -4.5810 C.3   287  PHE287      0.0534
     57  CG         2.0550    4.5250   -4.0320 C.ar  287  PHE287     -0.0203
     58  CD1        1.2730    4.0990   -2.9790 C.ar  287  PHE287     -0.0042
     59  CD2        3.0000    3.6620   -4.5440 C.ar  287  PHE287     -0.0042
     60  CE1        1.4220    2.8270   -2.4590 C.ar  287  PHE287     -0.0003
     61  CE2        3.1450    2.3850   -4.0330 C.ar  287  PHE287     -0.0003
     62  CZ         2.3560    1.9690   -2.9850 C.ar  287  PHE287     -0.0000
     63  N          0.2410   -8.6450    3.8380 N.3   324  GLU324     -0.1245
     64  CA         0.2120   -7.4890    2.9530 C.3   324  GLU324      0.1567
     65  C          1.4740   -6.6310    3.0120 C.2   324  GLU324      0.2260
     66  O          1.6110   -5.7310    2.1770 O.2   324  GLU324     -0.2867
     67  CB        -0.9840   -6.6120    3.2990 C.3   324  GLU324      0.0388
     68  CG        -2.2860   -7.3510    3.2550 C.3   324  GLU324      0.1160
     69  CD        -2.9050   -7.3460    1.8950 C.2   324  GLU324      0.3649
     70  OE1       -2.4650   -6.5420    1.0330 O.co2 324  GLU324     -0.2457
     71  OE2       -3.8080   -8.1880    1.6620 O.co2 324  GLU324     -0.2457
     72  N          5.9590   -7.1820    0.4050 N.3   327  PHE327     -0.1227
     73  CA         6.4590   -6.5630   -0.8230 C.3   327  PHE327      0.1736
     74  C          7.1140   -5.2160   -0.5730 C.2   327  PHE327      0.2595
     75  O          8.0380   -4.8360   -1.2950 O.2   327  PHE327     -0.2718
     76  CB         5.3230   -6.3870   -1.8300 C.3   327  PHE327      0.0547
     77  CG         5.4300   -7.2870   -3.0170 C.ar  327  PHE327     -0.0202
     78  CD1        4.3070   -7.9280   -3.5180 C.ar  327  PHE327     -0.0042
     79  CD2        6.6460   -7.4910   -3.6310 C.ar  327  PHE327     -0.0042
     80  CE1        4.3990   -8.7720   -4.6060 C.ar  327  PHE327     -0.0003
     81  CE2        6.7480   -8.3240   -4.7160 C.ar  327  PHE327     -0.0003
     82  CZ         5.6200   -8.9680   -5.2060 C.ar  327  PHE327     -0.0000
     83  N          6.6570   -4.4810    0.4290 N.am  328  PHE328     -0.1976
     84  CA         7.0440   -3.0840    0.5480 C.3   328  PHE328      0.1639
     85  C          8.2990   -2.9270    1.3640 C.2   328  PHE328      0.2290
     86  O          9.0880   -2.0140    1.0920 O.2   328  PHE328     -0.2864
     87  CB         5.8920   -2.2730    1.1430 C.3   328  PHE328      0.0560
     88  CG         4.6320   -2.3820    0.3360 C.ar  328  PHE328     -0.0200
     89  CD1        3.9490   -3.5990    0.2500 C.ar  328  PHE328     -0.0042
     90  CD2        4.1550   -1.2970   -0.3710 C.ar  328  PHE328     -0.0042
     91  CE1        2.8270   -3.7310   -0.5190 C.ar  328  PHE328     -0.0003
     92  CE2        3.0180   -1.4170   -1.1480 C.ar  328  PHE328     -0.0003
     93  CZ         2.3470   -2.6370   -1.2200 C.ar  328  PHE328     -0.0000
     94  N         -3.1790   -1.7890    5.2650 N.3   397  VAL397     -0.1245
     95  CA        -4.2400   -2.5490    4.6130 C.3   397  VAL397      0.1561
     96  C         -5.2510   -3.0420    5.6400 C.2   397  VAL397      0.2260
     97  O         -6.3430   -2.4820    5.7860 O.2   397  VAL397     -0.2867
     98  CB        -3.6510   -3.7420    3.8400 C.3   397  VAL397      0.0252
     99  CG1       -4.7310   -4.4110    2.9950 C.3   397  VAL397      0.0019
    100  CG2       -2.4660   -3.3000    3.0030 C.3   397  VAL397      0.0019
    101  N          0.6430  -10.2310   -0.8460 N.3   437  HIS437     -0.1241
    102  CA        -0.5260   -9.6360   -1.4790 C.3   437  HIS437      0.1621
    103  C         -0.3740   -9.6860   -2.9910 C.2   437  HIS437      0.2264
    104  O          0.7400   -9.6280   -3.5250 O.2   437  HIS437     -0.2867
    105  CB        -0.7150   -8.1900   -1.0310 C.3   437  HIS437      0.0745
    106  CG        -0.1160   -7.1910   -1.9670 C.ar  437  HIS437      0.0817
    107  ND1       -0.8230   -6.6280   -3.0060 N.ar  437  HIS437     -0.2268
    108  CD2        1.1340   -6.6800   -2.0430 C.ar  437  HIS437      0.1154
    109  CE1       -0.0390   -5.8000   -3.6740 C.ar  437  HIS437      0.1986
    110  NE2        1.1560   -5.8150   -3.1100 N.ar  437  HIS437     -0.2212
@<TRIPOS>BOND
     1    12    11    2
     2    11    10    1
     3    10     9    1
     4    10    13    1
     5    15    17   ar
     6    15    14   ar
     7    13    14    1
     8    17    19   ar
     9    14    16   ar
    10     4     3    2
    11     2     1    1
    12     2     3    1
    13     3     5   am
    14    19    20    1
    15    19    18   ar
    16    16    18   ar
    17     5     6    1
    18     7     8    2
    19     7     6    1
    20    30    29    2
    21    31    28    1
    22    29    28    1
    23    28    27    1
    24    82    81   ar
    25    82    80   ar
    26    27    23   am
    27    81    79   ar
    28    80    78   ar
    29    56    57    1
    30    56    53    1
    31    59    61   ar
    32    59    57   ar
    33    54    53    1
    34    54    55    2
    35    25    22    1
    36    25    26    1
    37    21    22    1
    38    23    22    1
    39    23    24    2
    40    61    62   ar
    41    57    58   ar
    42    53    52    1
    43   109   110   ar
    44   109   107   ar
    45    79    77   ar
    46   104   103    2
    47    78    77   ar
    48   110   108   ar
    49    77    76    1
    50   107   106   ar
    51   103   102    1
    52    62    60   ar
    53    58    60   ar
    54    50    51   ar
    55    50    48   ar
    56   108   106   ar
    57   106   105    1
    58    51    49   ar
    59    76    73    1
    60    48    45   ar
    61   102   105    1
    62   102   101    1
    63    41    40    2
    64    75    74    2
    65    93    92   ar
    66    93    91   ar
    67    92    90   ar
    68    73    74    1
    69    73    72    1
    70    35    34    2
    71    49    47   ar
    72    36    33    1
    73    36    37    1
    74    32    33    1
    75    74    83   am
    76    91    89   ar
    77    45    47   ar
    78    45    43   ar
    79    90    88   ar
    80    40    39    1
    81    34    33    1
    82    47    46   ar
    83    89    88   ar
    84    88    87    1
    85    83    84    1
    86    42    43    1
    87    42    39    1
    88    84    87    1
    89    84    85    1
    90    43    44   ar
    91    39    38    1
    92    70    69   ar
    93    86    85    2
    94    46    44   ar
    95    71    69   ar
    96    69    68    1
    97    66    65    2
    98    64    65    1
    99    64    67    1
   100    64    63    1
   101    99    98    1
   102   100    98    1
   103    68    67    1
   104    98    95    1
   105    95    94    1
   106    95    96    1
   107    96    97    2
