@<TRIPOS>MOLECULE
tmp/6g4oA02.pdb
 154 151 0 0 0
SMALL
GASTEIGER

@<TRIPOS>ATOM
      1  N          5.8530    3.8790  -14.3120 N.3    67  TYR67      -0.1241
      2  CA         7.1340    3.3710  -13.8370 C.3    67  TYR67       0.1605
      3  C          7.2150    1.8660  -14.0790 C.2    67  TYR67       0.2264
      4  O          6.2220    1.1420  -13.9460 O.2    67  TYR67      -0.2867
      5  CB         7.3020    3.7170  -12.3460 C.3    67  TYR67       0.0534
      6  CG         8.3920    2.9630  -11.6150 C.ar   67  TYR67      -0.0201
      7  CD1        9.6620    3.5060  -11.4610 C.ar   67  TYR67      -0.0009
      8  CD2        8.1450    1.7040  -11.0690 C.ar   67  TYR67      -0.0009
      9  CE1       10.6590    2.8050  -10.7910 C.ar   67  TYR67       0.0417
     10  CE2        9.1270    1.0000  -10.3990 C.ar   67  TYR67       0.0417
     11  CZ        10.3820    1.5540  -10.2530 C.ar   67  TYR67       0.1957
     12  OH        11.3570    0.8420   -9.5820 O.3    67  TYR67      -0.2866
     13  N          9.2440   -1.6090  -13.0960 N.3    69  ASP69      -0.1239
     14  CA        10.0560   -2.1630  -12.0180 C.3    69  ASP69       0.1674
     15  C         11.2050   -2.9960  -12.5810 C.2    69  ASP69       0.2266
     16  O         10.9830   -4.0250  -13.2270 O.2    69  ASP69      -0.2867
     17  CB         9.1740   -3.0030  -11.0970 C.3    69  ASP69       0.1410
     18  CG         9.9650   -3.7210  -10.0360 C.2    69  ASP69       0.3668
     19  OD1       11.0740   -3.2540   -9.7150 O.co2  69  ASP69      -0.2456
     20  OD2        9.4830   -4.7480   -9.5240 O.co2  69  ASP69      -0.2456
     21  N          8.4230  -10.6660  -10.3730 N.3    78  SER78      -0.1217
     22  CA         8.2160   -9.2260  -10.4430 C.3    78  SER78       0.1889
     23  C          7.8900   -8.7610  -11.8430 C.2    78  SER78       0.2288
     24  O          7.2280   -7.7330  -12.0050 O.2    78  SER78      -0.2866
     25  CB         9.4520   -8.4580   -9.9670 C.3    78  SER78       0.2089
     26  OG        10.5060   -8.5700  -10.9100 O.3    78  SER78      -0.2183
     27  N          4.0860   -8.4360  -13.1960 N.3    81  TRP81      -0.1241
     28  CA         3.3060   -7.2280  -12.9560 C.3    81  TRP81       0.1605
     29  C          3.7330   -6.0570  -13.8220 C.2    81  TRP81       0.2264
     30  O          3.0240   -5.0500  -13.8680 O.2    81  TRP81      -0.2867
     31  CB         3.3960   -6.8120  -11.4730 C.3    81  TRP81       0.0550
     32  CG         3.2840   -7.9640  -10.5360 C.ar   81  TRP81       0.0003
     33  CD1        4.3000   -8.5920   -9.8880 C.ar   81  TRP81       0.0946
     34  CD2        2.0860   -8.6400  -10.1500 C.ar   81  TRP81       0.0152
     35  NE1        3.8190   -9.6140   -9.1040 N.ar   81  TRP81      -0.2442
     36  CE2        2.4630   -9.6740   -9.2540 C.ar   81  TRP81       0.0810
     37  CE3        0.7250   -8.4740  -10.4710 C.ar   81  TRP81       0.0012
     38  CZ2        1.5410  -10.5400   -8.6840 C.ar   81  TRP81       0.0191
     39  CZ3       -0.1980   -9.3380   -9.8970 C.ar   81  TRP81       0.0001
     40  CH2        0.2200  -10.3610   -9.0130 C.ar   81  TRP81       0.0015
     41  N         -4.8930   -3.1050   -9.6360 N.3   114  GLY114     -0.1210
     42  CA        -4.1330   -2.2800   -8.7250 C.3   114  GLY114      0.1956
     43  C         -2.7140   -2.0250   -9.2050 C.2   114  GLY114      0.2612
     44  O         -2.4020   -2.0970  -10.3990 O.2   114  GLY114     -0.2717
     45  N         -1.8330   -1.7420   -8.2470 N.am  115  GLY115     -0.1956
     46  CA        -0.4940   -1.2970   -8.5580 C.3   115  GLY115      0.1869
     47  C         -0.2440    0.1210   -8.0760 C.2   115  GLY115      0.2309
     48  O          0.5990    0.8390   -8.6300 O.2   115  GLY115     -0.2863
     49  N          0.2240    4.1530   -9.4670 N.3   118  TYR118     -0.1241
     50  CA         1.3740    4.5170  -10.2710 C.3   118  TYR118      0.1605
     51  C          1.6350    3.5110  -11.3760 C.2   118  TYR118      0.2264
     52  O          2.4770    3.7780  -12.2420 O.2   118  TYR118     -0.2867
     53  CB         2.6340    4.6570   -9.3890 C.3   118  TYR118      0.0534
     54  CG         3.2590    3.3420   -8.9190 C.ar  118  TYR118     -0.0201
     55  CD1        4.2110    2.6870   -9.6860 C.ar  118  TYR118     -0.0009
     56  CD2        2.9040    2.7750   -7.7090 C.ar  118  TYR118     -0.0009
     57  CE1        4.7750    1.5010   -9.2710 C.ar  118  TYR118      0.0417
     58  CE2        3.4720    1.5870   -7.2830 C.ar  118  TYR118      0.0417
     59  CZ         4.4080    0.9520   -8.0680 C.ar  118  TYR118      0.1957
     60  OH         4.9750   -0.2390   -7.6470 O.3   118  TYR118     -0.2866
     61  N         -4.4930  -11.5460  -14.9660 N.3   127  TYR127     -0.1241
     62  CA        -5.8060  -10.9280  -15.1450 C.3   127  TYR127      0.1605
     63  C         -6.5350  -11.4420  -16.3870 C.2   127  TYR127      0.2264
     64  O         -7.3840  -10.7320  -16.9270 O.2   127  TYR127     -0.2867
     65  CB        -5.6950   -9.4010  -15.2350 C.3   127  TYR127      0.0534
     66  CG        -4.9640   -8.6860  -14.1060 C.ar  127  TYR127     -0.0201
     67  CD1       -4.8520   -9.2470  -12.8390 C.ar  127  TYR127     -0.0009
     68  CD2       -4.3980   -7.4250  -14.3160 C.ar  127  TYR127     -0.0009
     69  CE1       -4.1850   -8.5750  -11.8140 C.ar  127  TYR127      0.0417
     70  CE2       -3.7330   -6.7470  -13.3070 C.ar  127  TYR127      0.0417
     71  CZ        -3.6290   -7.3240  -12.0560 C.ar  127  TYR127      0.1957
     72  OH        -2.9810   -6.6500  -11.0390 O.3   127  TYR127     -0.2866
     73  N         -8.1380   -5.2560   -6.8270 N.3   196  GLU196     -0.1231
     74  CA        -7.2300   -5.6230   -5.7570 C.3   196  GLU196      0.1699
     75  C         -6.2830   -4.4690   -5.4790 C.2   196  GLU196      0.2592
     76  O         -5.8730   -3.7620   -6.4020 O.2   196  GLU196     -0.2718
     77  CB        -6.4780   -6.8880   -6.1330 C.3   196  GLU196      0.0402
     78  CG        -5.6260   -7.4410   -5.0590 C.3   196  GLU196      0.1161
     79  CD        -4.2390   -6.8680   -5.1300 C.2   196  GLU196      0.3649
     80  OE1       -3.9220   -6.2560   -6.1670 O.co2 196  GLU196     -0.2457
     81  OE2       -3.4750   -7.0080   -4.1560 O.co2 196  GLU196     -0.2457
     82  N         -5.9710   -4.2650   -4.1960 N.am  197  SER197     -0.1952
     83  CA        -5.0580   -3.2180   -3.7490 C.3   197  SER197      0.1924
     84  C         -5.5960   -1.8480   -4.1540 C.2   197  SER197      0.2314
     85  O         -6.6530   -1.4280   -3.6750 O.2   197  SER197     -0.2863
     86  CB        -3.6720   -3.4690   -4.3260 C.3   197  SER197      0.2116
     87  OG        -2.6880   -2.7610   -3.6170 O.3   197  SER197     -0.2180
     88  N          2.9310    6.7940   -2.5590 N.3   287  PHE287     -0.1241
     89  CA         2.9170    6.8790   -4.0070 C.3   287  PHE287      0.1605
     90  C          2.6120    8.3110   -4.4090 C.2   287  PHE287      0.2264
     91  O          1.7890    8.9800   -3.7750 O.2   287  PHE287     -0.2867
     92  CB         1.9100    5.9050   -4.5810 C.3   287  PHE287      0.0534
     93  CG         2.0550    4.5250   -4.0320 C.ar  287  PHE287     -0.0203
     94  CD1        1.2730    4.0990   -2.9790 C.ar  287  PHE287     -0.0042
     95  CD2        3.0000    3.6620   -4.5440 C.ar  287  PHE287     -0.0042
     96  CE1        1.4220    2.8270   -2.4590 C.ar  287  PHE287     -0.0003
     97  CE2        3.1450    2.3850   -4.0330 C.ar  287  PHE287     -0.0003
     98  CZ         2.3560    1.9690   -2.9850 C.ar  287  PHE287     -0.0000
     99  N          5.9590   -7.1820    0.4050 N.3   327  PHE327     -0.1227
    100  CA         6.4590   -6.5630   -0.8230 C.3   327  PHE327      0.1736
    101  C          7.1140   -5.2160   -0.5730 C.2   327  PHE327      0.2595
    102  O          8.0380   -4.8360   -1.2950 O.2   327  PHE327     -0.2718
    103  CB         5.3230   -6.3870   -1.8300 C.3   327  PHE327      0.0547
    104  CG         5.4300   -7.2870   -3.0170 C.ar  327  PHE327     -0.0202
    105  CD1        4.3070   -7.9280   -3.5180 C.ar  327  PHE327     -0.0042
    106  CD2        6.6460   -7.4910   -3.6310 C.ar  327  PHE327     -0.0042
    107  CE1        4.3990   -8.7720   -4.6060 C.ar  327  PHE327     -0.0003
    108  CE2        6.7480   -8.3240   -4.7160 C.ar  327  PHE327     -0.0003
    109  CZ         5.6200   -8.9680   -5.2060 C.ar  327  PHE327     -0.0000
    110  N          6.6570   -4.4810    0.4290 N.am  328  PHE328     -0.1976
    111  CA         7.0440   -3.0840    0.5480 C.3   328  PHE328      0.1639
    112  C          8.2990   -2.9270    1.3640 C.2   328  PHE328      0.2290
    113  O          9.0880   -2.0140    1.0920 O.2   328  PHE328     -0.2864
    114  CB         5.8920   -2.2730    1.1430 C.3   328  PHE328      0.0560
    115  CG         4.6320   -2.3820    0.3360 C.ar  328  PHE328     -0.0200
    116  CD1        3.9490   -3.5990    0.2500 C.ar  328  PHE328     -0.0042
    117  CD2        4.1550   -1.2970   -0.3710 C.ar  328  PHE328     -0.0042
    118  CE1        2.8270   -3.7310   -0.5190 C.ar  328  PHE328     -0.0003
    119  CE2        3.0180   -1.4170   -1.1480 C.ar  328  PHE328     -0.0003
    120  CZ         2.3470   -2.6370   -1.2200 C.ar  328  PHE328     -0.0000
    121  N         11.3690   -4.0770   -1.0030 N.3   331  TYR331     -0.1241
    122  CA        11.8350   -3.0710   -1.9450 C.3   331  TYR331      0.1605
    123  C         12.3590   -1.8030   -1.2870 C.2   331  TYR331      0.2264
    124  O         12.9990   -1.0020   -1.9760 O.2   331  TYR331     -0.2867
    125  CB        10.7120   -2.6850   -2.9120 C.3   331  TYR331      0.0534
    126  CG        10.5270   -3.6380   -4.0580 C.ar  331  TYR331     -0.0201
    127  CD1       10.2730   -4.9890   -3.8280 C.ar  331  TYR331     -0.0009
    128  CD2       10.5770   -3.1860   -5.3780 C.ar  331  TYR331     -0.0009
    129  CE1       10.0930   -5.8640   -4.8780 C.ar  331  TYR331      0.0417
    130  CE2       10.3960   -4.0570   -6.4410 C.ar  331  TYR331      0.0417
    131  CZ        10.1560   -5.3920   -6.1860 C.ar  331  TYR331      0.1957
    132  OH         9.9700   -6.2680   -7.2270 O.3   331  TYR331     -0.2866
    133  N          0.6430  -10.2310   -0.8460 N.3   437  HIS437     -0.1226
    134  CA        -0.5260   -9.6360   -1.4790 C.3   437  HIS437      0.1752
    135  C         -0.3740   -9.6860   -2.9910 C.2   437  HIS437      0.2596
    136  O          0.7400   -9.6280   -3.5250 O.2   437  HIS437     -0.2718
    137  CB        -0.7150   -8.1900   -1.0310 C.3   437  HIS437      0.0759
    138  CG        -0.1160   -7.1910   -1.9670 C.ar  437  HIS437      0.0818
    139  ND1       -0.8230   -6.6280   -3.0060 N.ar  437  HIS437     -0.2268
    140  CD2        1.1340   -6.6800   -2.0430 C.ar  437  HIS437      0.1154
    141  CE1       -0.0390   -5.8000   -3.6740 C.ar  437  HIS437      0.1986
    142  NE2        1.1560   -5.8150   -3.1100 N.ar  437  HIS437     -0.2212
    143  N         -1.5220   -9.7820   -3.6830 N.am  438  GLY438     -0.1957
    144  CA        -1.5730   -9.9910   -5.1160 C.3   438  GLY438      0.1869
    145  C         -1.6750  -11.4450   -5.5450 C.2   438  GLY438      0.2309
    146  O         -2.0950  -11.7180   -6.6790 O.2   438  GLY438     -0.2863
    147  N         -5.0450  -13.3050   -6.6210 N.3   441  ILE441     -0.1245
    148  CA        -5.5950  -13.0780   -7.9550 C.3   441  ILE441      0.1561
    149  C         -5.4590  -14.3280   -8.8150 C.2   441  ILE441      0.2260
    150  O         -6.3860  -14.7050   -9.5330 O.2   441  ILE441     -0.2867
    151  CB        -4.9200  -11.8580   -8.6100 C.3   441  ILE441      0.0252
    152  CG1       -5.0140  -10.6430   -7.6760 C.3   441  ILE441      0.0019
    153  CG2       -5.5920  -11.5500   -9.8970 C.3   441  ILE441      0.0019
    154  CD1       -4.1730   -9.4490   -8.0750 C.3   441  ILE441      0.0001
@<TRIPOS>BOND
     1    64    63    2
     2    63    62    1
     3    65    62    1
     4    65    66    1
     5    62    61    1
     6    68    66   ar
     7    68    70   ar
     8     1     2    1
     9    66    67   ar
    10     3     4    2
    11     3     2    1
    12    30    29    2
    13     2     5    1
    14    29    28    1
    15    70    71   ar
    16    16    15    2
    17    27    28    1
    18    13    14    1
    19    28    31    1
    20    67    69   ar
    21    15    14    1
    22     5     6    1
    23    52    51    2
    24    71    69   ar
    25    71    72    1
    26    14    17    1
    27    24    23    2
    28    23    22    1
    29     6     7   ar
    30     6     8   ar
    31    31    32    1
    32     7     9   ar
    33    51    50    1
    34    17    18    1
    35     8    10   ar
    36    26    25    1
    37     9    11   ar
    38    32    34   ar
    39    32    33   ar
    40    37    34   ar
    41    37    39   ar
    42    22    21    1
    43    22    25    1
    44    44    43    2
    45    10    11   ar
    46    50    49    1
    47    50    53    1
    48    11    12    1
    49    34    36   ar
    50    18    19   ar
    51    18    20   ar
    52    39    40   ar
    53   153   151    1
    54    33    35   ar
    55    55    57   ar
    56    55    54   ar
    57    41    42    1
    58   150   149    2
    59    53    54    1
    60    57    59   ar
    61    36    35   ar
    62    36    38   ar
    63    43    42    1
    64    43    45   am
    65    40    38   ar
    66    54    56   ar
    67   149   148    1
    68    48    47    2
    69   151   148    1
    70   151   152    1
    71    46    45    1
    72    46    47    1
    73   154   152    1
    74    59    60    1
    75    59    58   ar
    76   148   147    1
    77    56    58   ar
    78   132   131    1
    79    73    74    1
    80   146   145    2
    81   130   131   ar
    82   130   128   ar
    83    76    75    2
    84   131   129   ar
    85    80    79   ar
    86    77    74    1
    87    77    78    1
    88    74    75    1
    89   145   144    1
    90    75    82   am
    91   128   126   ar
    92   109   108   ar
    93   109   107   ar
    94    79    78    1
    95    79    81   ar
    96   144   143    1
    97   129   127   ar
    98   108   106   ar
    99   107   105   ar
   100    92    93    1
   101    92    89    1
   102    95    97   ar
   103    95    93   ar
   104    90    89    1
   105    90    91    2
   106    86    83    1
   107    86    87    1
   108    82    83    1
   109    84    83    1
   110    84    85    2
   111   126   127   ar
   112   126   125    1
   113    97    98   ar
   114    93    94   ar
   115    89    88    1
   116   143   135   am
   117   141   142   ar
   118   141   139   ar
   119   106   104   ar
   120   136   135    2
   121   105   104   ar
   122   142   140   ar
   123   104   103    1
   124   139   138   ar
   125   135   134    1
   126    98    96   ar
   127    94    96   ar
   128   125   122    1
   129   140   138   ar
   130   124   123    2
   131   138   137    1
   132   122   123    1
   133   122   121    1
   134   103   100    1
   135   134   137    1
   136   134   133    1
   137   102   101    2
   138   120   119   ar
   139   120   118   ar
   140   119   117   ar
   141   100   101    1
   142   100    99    1
   143   101   110   am
   144   118   116   ar
   145   117   115   ar
   146   116   115   ar
   147   115   114    1
   148   110   111    1
   149   111   114    1
   150   111   112    1
   151   113   112    2
