@<TRIPOS>MOLECULE
tmp/6g4yB00.pdb
 225 212 0 0 0
SMALL
GASTEIGER

@<TRIPOS>ATOM
      1  N        163.5880   35.1020   -8.1720 N.3    63  ARG63      -0.1231
      2  CA       164.4160   36.3030   -8.1640 C.3    63  ARG63       0.1694
      3  C        164.3710   36.9260   -6.7750 C.2    63  ARG63       0.2593
      4  O        163.5180   36.5720   -5.9600 O.2    63  ARG63      -0.2718
      5  CB       163.8970   37.2960   -9.2020 C.3    63  ARG63       0.0321
      6  CG       164.9180   37.7070  -10.2480 C.3    63  ARG63       0.0489
      7  CD       165.0380   36.6560  -11.3430 C.3    63  ARG63       0.2205
      8  NE       165.7220   37.1760  -12.5330 N.pl3  63  ARG63      -0.0865
      9  CZ       165.6530   36.6510  -13.7640 C.cat  63  ARG63       0.5346
     10  NH1      166.3220   37.2360  -14.7580 N.pl3  63  ARG63       0.1354
     11  NH2      164.9250   35.5560  -14.0220 N.pl3  63  ARG63       0.1354
     12  N        165.2870   37.8540   -6.5140 N.am   64  GLY64      -0.1942
     13  CA       165.4080   38.4850   -5.1980 C.3    64  GLY64       0.2014
     14  C        166.2560   37.6640   -4.2480 C.2    64  GLY64       0.2639
     15  O        166.6910   36.5740   -4.5960 O.2    64  GLY64      -0.2714
     16  N        166.4860   38.1910   -3.0440 N.am   65  SER65      -0.1949
     17  CA       167.3350   37.5390   -2.0260 C.3    65  SER65       0.1924
     18  C        166.9180   36.1140   -1.6680 C.2    65  SER65       0.2314
     19  O        167.7770   35.2790   -1.4070 O.2    65  SER65      -0.2863
     20  CB       167.3600   38.3440   -0.7290 C.3    65  SER65       0.2116
     21  OG       167.7360   39.6800   -0.9630 O.3    65  SER65      -0.2180
     22  N        162.0930   34.7520   -4.1240 N.3    68  GLU68      -0.1231
     23  CA       160.6860   34.8990   -3.7720 C.3    68  GLU68       0.1699
     24  C        159.9010   35.7530   -4.7750 C.2    68  GLU68       0.2592
     25  O        158.7000   35.9620   -4.5870 O.2    68  GLU68      -0.2718
     26  CB       160.5560   35.4520   -2.3430 C.3    68  GLU68       0.0402
     27  CG       160.6640   36.9720   -2.1600 C.3    68  GLU68       0.1161
     28  CD       162.0740   37.5510   -2.2860 C.2    68  GLU68       0.3649
     29  OE1      163.0380   36.7940   -2.5750 O.co2  68  GLU68      -0.2457
     30  OE2      162.2060   38.7880   -2.0880 O.co2  68  GLU68      -0.2457
     31  N        160.5790   36.2400   -5.8200 N.am   69  VAL69      -0.1980
     32  CA       159.9630   37.0640   -6.8670 C.3    69  VAL69       0.1595
     33  C        159.9240   36.3330   -8.2150 C.2    69  VAL69       0.2287
     34  O        160.9290   35.7680   -8.6380 O.2    69  VAL69      -0.2864
     35  CB       160.7110   38.4020   -7.0170 C.3    69  VAL69       0.0276
     36  CG1      160.1310   39.2210   -8.1650 C.3    69  VAL69       0.0022
     37  CG2      160.6610   39.1630   -5.6960 C.3    69  VAL69       0.0022
     38  N        158.0450   36.1040  -12.4380 N.3    71  ARG71      -0.1245
     39  CA       157.1360   36.4710  -13.5230 C.3    71  ARG71       0.1563
     40  C        155.8550   35.6550  -13.3540 C.2    71  ARG71       0.2260
     41  O        155.8930   34.5080  -12.9020 O.2    71  ARG71      -0.2867
     42  CB       157.7210   36.1480  -14.9070 C.3    71  ARG71       0.0307
     43  CG       158.8170   37.0720  -15.4180 C.3    71  ARG71       0.0489
     44  CD       159.2830   36.6630  -16.8210 C.3    71  ARG71       0.2205
     45  NE       160.0290   35.3850  -16.8330 N.pl3  71  ARG71      -0.0865
     46  CZ       161.3630   35.2370  -16.7690 C.cat  71  ARG71       0.5346
     47  NH1      162.1920   36.2820  -16.6760 N.pl3  71  ARG71       0.1354
     48  NH2      161.8810   34.0090  -16.7920 N.pl3  71  ARG71       0.1354
     49  N        154.5420   40.8280  -11.9940 N.3    82  ALA82      -0.1245
     50  CA       155.4770   40.1500  -11.1010 C.3    82  ALA82       0.1562
     51  C        154.8440   39.9340   -9.7380 C.2    82  ALA82       0.2260
     52  O        154.0000   40.7260   -9.3210 O.2    82  ALA82      -0.2867
     53  CB       156.7520   40.9660  -10.9710 C.3    82  ALA82       0.0290
     54  N        155.6500   38.9050   -5.5530 N.3    84  LYS84      -0.1245
     55  CA       156.5420   38.6730   -4.4280 C.3    84  LYS84       0.1561
     56  C        155.7990   37.8850   -3.3750 C.2    84  LYS84       0.2260
     57  O        154.8030   38.3620   -2.8440 O.2    84  LYS84      -0.2867
     58  CB       157.0240   39.9830   -3.8210 C.3    84  LYS84       0.0271
     59  CG       158.1230   39.8040   -2.7890 C.3    84  LYS84       0.0035
     60  CD       158.1290   40.9200   -1.7760 C.3    84  LYS84       0.0206
     61  CE       159.2420   40.6990   -0.7730 C.3    84  LYS84       0.1093
     62  NZ       159.2270   41.7500    0.2820 N.3    84  LYS84      -0.1314
     63  N        154.8010   47.1290    4.7110 N.3    95  GLU95      -0.1231
     64  CA       155.1780   46.9200    3.3090 C.3    95  GLU95       0.1699
     65  C        154.0910   47.3500    2.3300 C.2    95  GLU95       0.2592
     66  O        154.4030   47.8580    1.2480 O.2    95  GLU95      -0.2718
     67  CB       155.5770   45.4580    3.0470 C.3    95  GLU95       0.0402
     68  CG       156.0340   45.2010    1.6120 C.3    95  GLU95       0.1161
     69  CD       156.7580   43.8800    1.4100 C.2    95  GLU95       0.3649
     70  OE1      156.8060   43.0500    2.3450 O.co2  95  GLU95      -0.2457
     71  OE2      157.2760   43.6680    0.2890 O.co2  95  GLU95      -0.2457
     72  N        152.8280   47.1380    2.7040 N.am   96  LEU96      -0.1980
     73  CA       151.6980   47.5400    1.8600 C.3    96  LEU96       0.1596
     74  C        151.1820   48.9350    2.2180 C.2    96  LEU96       0.2287
     75  O        150.9500   49.7440    1.3150 O.2    96  LEU96      -0.2864
     76  CB       150.5840   46.4890    1.8980 C.3    96  LEU96       0.0297
     77  CG       150.9860   45.1620    1.2410 C.3    96  LEU96       0.0022
     78  CD1      149.8730   44.1370    1.3790 C.3    96  LEU96       0.0001
     79  CD2      151.3710   45.3460   -0.2240 C.3    96  LEU96       0.0001
     80  N        153.5920   51.4800    0.3750 N.3    99  CYS99      -0.1235
     81  CA       153.4820   51.6850   -1.0750 C.3    99  CYS99       0.1677
     82  C        152.0490   51.7870   -1.6090 C.2    99  CYS99       0.2270
     83  O        151.8560   52.1690   -2.7680 O.2    99  CYS99      -0.2867
     84  CB       154.2880   50.6310   -1.8560 C.3    99  CYS99       0.0956
     85  SG       153.9000   48.8960   -1.5180 S.3    99  CYS99      -0.0801
     86  N        158.3740   51.5370   -7.9160 N.3   108  VAL108     -0.1231
     87  CA       157.6720   50.4610   -8.6200 C.3   108  VAL108      0.1678
     88  C        156.2150   50.4010   -8.1250 C.2   108  VAL108      0.2434
     89  O        155.9730   50.3600   -6.9070 O.2   108  VAL108     -0.2733
     90  CB       158.3800   49.1010   -8.4080 C.3   108  VAL108      0.0265
     91  CG1      157.5620   47.9410   -8.9730 C.3   108  VAL108      0.0020
     92  CG2      159.7580   49.1180   -9.0490 C.3   108  VAL108      0.0020
     93  N        155.2440   50.4230   -9.0570 N.am  109  PRO109     -0.2718
     94  CA       153.8470   50.4790   -8.6310 C.3   109  PRO109      0.1535
     95  C        153.3080   49.1410   -8.1420 C.2   109  PRO109      0.2598
     96  O        153.5580   48.1110   -8.7620 O.2   109  PRO109     -0.2715
     97  CB       153.1060   50.9370   -9.8910 C.3   109  PRO109      0.0310
     98  CG       153.9780   50.5650  -11.0280 C.3   109  PRO109      0.0237
     99  CD       155.3870   50.5470  -10.5210 C.3   109  PRO109      0.0939
    100  N        152.5800   49.1890   -7.0290 N.am  110  LEU110     -0.1978
    101  CA       151.8830   48.0420   -6.4420 C.3   110  LEU110      0.1596
    102  C        150.6170   47.7300   -7.2490 C.2   110  LEU110      0.2287
    103  O        149.8750   48.6360   -7.6020 O.2   110  LEU110     -0.2864
    104  CB       151.5210   48.3800   -4.9950 C.3   110  LEU110      0.0297
    105  CG       150.6450   47.4340   -4.1940 C.3   110  LEU110      0.0022
    106  CD1      151.3730   46.1430   -3.8590 C.3   110  LEU110      0.0001
    107  CD2      150.1740   48.1300   -2.9220 C.3   110  LEU110      0.0001
    108  N        152.2630   39.5060   -3.1350 N.3   122  ILE122     -0.1245
    109  CA       152.1900   40.9150   -3.4790 C.3   122  ILE122      0.1561
    110  C        152.4880   41.0540   -4.9640 C.2   122  ILE122      0.2260
    111  O        153.5470   40.6460   -5.4170 O.2   122  ILE122     -0.2867
    112  CB       153.1740   41.7410   -2.6320 C.3   122  ILE122      0.0252
    113  CG1      152.9990   41.3660   -1.1440 C.3   122  ILE122      0.0019
    114  CG2      152.9450   43.2290   -2.8870 C.3   122  ILE122      0.0019
    115  CD1      153.8600   42.1230   -0.1600 C.3   122  ILE122      0.0001
    116  N        152.9850   43.2970   -8.5270 N.3   124  MET124     -0.1230
    117  CA       153.5570   44.5830   -8.9440 C.3   124  MET124      0.1702
    118  C        153.9590   44.5710  -10.4200 C.2   124  MET124      0.2592
    119  O        153.9350   43.5240  -11.0750 O.2   124  MET124     -0.2718
    120  CB       154.7650   44.9320   -8.0750 C.3   124  MET124      0.0401
    121  CG       156.0410   44.1970   -8.4380 C.3   124  MET124      0.0596
    122  SD       157.1810   43.9990   -7.0500 S.3   124  MET124     -0.1393
    123  CE       156.9490   42.2680   -6.6730 C.3   124  MET124      0.0692
    124  N        154.3390   45.7430  -10.9240 N.am  125  GLU125     -0.1966
    125  CA       154.8000   45.8830  -12.3010 C.3   125  GLU125      0.1733
    126  C        156.0530   45.0450  -12.5380 C.2   125  GLU125      0.2616
    127  O        156.9060   44.9130  -11.6570 O.2   125  GLU125     -0.2715
    128  CB       155.0840   47.3530  -12.6530 C.3   125  GLU125      0.0429
    129  CG       155.4430   47.5880  -14.1230 C.3   125  GLU125      0.1163
    130  CD       155.7160   49.0450  -14.4760 C.2   125  GLU125      0.3649
    131  OE1      155.7930   49.3480  -15.6850 O.co2 125  GLU125     -0.2457
    132  OE2      155.8660   49.8900  -13.5700 O.co2 125  GLU125     -0.2457
    133  N        156.1340   44.4870  -13.7420 N.am  126  LEU126     -0.1963
    134  CA       157.2880   43.7460  -14.1990 C.3   126  LEU126      0.1728
    135  C        158.2030   44.7280  -14.9120 C.2   126  LEU126      0.2616
    136  O        157.8460   45.2350  -15.9710 O.2   126  LEU126     -0.2715
    137  CB       156.8330   42.6610  -15.1610 C.3   126  LEU126      0.0311
    138  CG       157.8750   41.6600  -15.6320 C.3   126  LEU126      0.0022
    139  CD1      158.2350   40.7040  -14.5080 C.3   126  LEU126      0.0001
    140  CD2      157.3270   40.8900  -16.8190 C.3   126  LEU126      0.0001
    141  N        159.3610   45.0140  -14.3180 N.am  127  LEU127     -0.1963
    142  CA       160.4010   45.8300  -14.9540 C.3   127  LEU127      0.1728
    143  C        161.4310   44.9190  -15.6250 C.2   127  LEU127      0.2616
    144  O        162.1540   44.1780  -14.9550 O.2   127  LEU127     -0.2715
    145  CB       161.0640   46.7580  -13.9370 C.3   127  LEU127      0.0311
    146  CG       160.3810   48.1190  -13.7640 C.3   127  LEU127      0.0022
    147  CD1      158.8670   48.0110  -13.6650 C.3   127  LEU127      0.0001
    148  CD2      160.9390   48.8160  -12.5360 C.3   127  LEU127      0.0001
    149  N        161.4970   45.0060  -16.9520 N.am  128  GLU128     -0.1977
    150  CA       162.2050   44.0280  -17.7790 C.3   128  GLU128      0.1602
    151  C        163.7380   44.1670  -17.7860 C.2   128  GLU128      0.2287
    152  O        164.4400   43.1820  -18.0150 O.2   128  GLU128     -0.2864
    153  CB       161.6710   44.0910  -19.2120 C.3   128  GLU128      0.0415
    154  CG       160.1730   43.8180  -19.3520 C.3   128  GLU128      0.1163
    155  CD       159.8410   42.3330  -19.3720 C.2   128  GLU128      0.3649
    156  OE1      160.0280   41.6610  -18.3310 O.co2 128  GLU128     -0.2457
    157  OE2      159.3840   41.8390  -20.4280 O.co2 128  GLU128     -0.2457
    158  N        165.7350   44.4210  -15.2890 N.3   130  GLY130     -0.1210
    159  CA       166.3440   43.7240  -14.1470 C.3   130  GLY130      0.1956
    160  C        166.7950   44.6810  -13.0600 C.2   130  GLY130      0.2612
    161  O        166.6320   45.8950  -13.1880 O.2   130  GLY130     -0.2717
    162  N        167.3590   44.1450  -11.9830 N.am  131  SER131     -0.1952
    163  CA       167.8290   44.9940  -10.8900 C.3   131  SER131      0.1924
    164  C        169.1810   45.6330  -11.2290 C.2   131  SER131      0.2314
    165  O        169.8780   45.2200  -12.1720 O.2   131  SER131     -0.2863
    166  CB       167.8940   44.2300   -9.5550 C.3   131  SER131      0.2116
    167  OG       168.9840   43.3260   -9.5060 O.3   131  SER131     -0.2180
    168  N        172.0660   43.1350  -10.5030 N.3   134  GLN134     -0.1245
    169  CA       172.3300   42.3010  -11.6840 C.3   134  GLN134      0.1566
    170  C        173.1950   43.0280  -12.7130 C.2   134  GLN134      0.2260
    171  O        174.0110   42.4000  -13.3830 O.2   134  GLN134     -0.2867
    172  CB       171.0180   41.8470  -12.3550 C.3   134  GLN134      0.0367
    173  CG       170.1490   40.8850  -11.5420 C.3   134  GLN134      0.0905
    174  CD       168.7740   40.6380  -12.1750 C.2   134  GLN134      0.2608
    175  OE1      167.7180   40.9410  -11.5840 O.2   134  GLN134     -0.2717
    176  NE2      168.7810   40.0840  -13.3900 N.am  134  GLN134     -0.0878
    177  N        170.2730   45.7990   -5.2890 N.3   174  ASP174     -0.1225
    178  CA       169.2870   44.7180   -5.4770 C.3   174  ASP174      0.1805
    179  C        167.8420   45.2250   -5.4700 C.2   174  ASP174      0.2597
    180  O        166.9980   44.6740   -6.1710 O.2   174  ASP174     -0.2718
    181  CB       169.4470   43.6230   -4.4070 C.3   174  ASP174      0.1424
    182  CG       170.7450   42.8250   -4.5530 C.2   174  ASP174      0.3668
    183  OD1      171.2790   42.7200   -5.6820 O.co2 174  ASP174     -0.2456
    184  OD2      171.2330   42.2950   -3.5270 O.co2 174  ASP174     -0.2456
    185  N        167.5750   46.2740   -4.6910 N.am  175  ASN175     -0.1974
    186  CA       166.2450   46.8780   -4.5860 C.3   175  ASN175      0.1688
    187  C        166.0360   48.1090   -5.4870 C.2   175  ASN175      0.2292
    188  O        165.1650   48.9360   -5.2120 O.2   175  ASN175     -0.2864
    189  CB       165.9580   47.2420   -3.1170 C.3   175  ASN175      0.1181
    190  CG       165.9350   46.0300   -2.1980 C.2   175  ASN175      0.2629
    191  OD1      165.6880   44.8990   -2.6330 O.2   175  ASN175     -0.2716
    192  ND2      166.1780   46.2640   -0.9080 N.am  175  ASN175     -0.0877
    193  N        165.2520   48.8010   -9.6040 N.3   177  LEU177     -0.1245
    194  CA       164.8790   48.0840  -10.8260 C.3   177  LEU177      0.1561
    195  C        164.8820   48.9970  -12.0500 C.2   177  LEU177      0.2260
    196  O        164.4080   50.1210  -11.9840 O.2   177  LEU177     -0.2867
    197  CB       163.5000   47.4510  -10.6490 C.3   177  LEU177      0.0270
    198  CG       163.3430   46.4760   -9.4760 C.3   177  LEU177      0.0019
    199  CD1      161.9160   45.9760   -9.4360 C.3   177  LEU177      0.0001
    200  CD2      164.3010   45.3020   -9.5840 C.3   177  LEU177      0.0001
    201  N        162.1970   49.4000   -5.2680 N.3   188  CYS188     -0.1221
    202  CA       161.3150   48.2950   -4.9130 C.3   188  CYS188      0.1808
    203  C        161.7020   47.7380   -3.5390 C.2   188  CYS188      0.2601
    204  O        162.6480   48.2080   -2.9050 O.2   188  CYS188     -0.2717
    205  CB       161.3710   47.1980   -5.9830 C.3   188  CYS188      0.0970
    206  SG       162.8870   46.2130   -5.9500 S.3   188  CYS188     -0.0800
    207  N        160.9380   46.7400   -3.1060 N.am  189  ASP189     -0.1959
    208  CA       161.0860   46.0530   -1.8260 C.3   189  ASP189      0.1840
    209  C        160.8830   46.9620   -0.6110 C.2   189  ASP189      0.2622
    210  O        161.8210   47.5630   -0.1010 O.2   189  ASP189     -0.2715
    211  CB       162.4240   45.3090   -1.7470 C.3   189  ASP189      0.1450
    212  CG       162.3720   44.0970   -0.8070 C.2   189  ASP189      0.3671
    213  OD1      161.3160   43.8770   -0.1570 O.co2 189  ASP189     -0.2456
    214  OD2      163.3860   43.3450   -0.7560 O.co2 189  ASP189     -0.2456
    215  N        159.6390   47.0500   -0.1590 N.am  190  PHE190     -0.1974
    216  CA       159.2820   47.8480    1.0080 C.3   190  PHE190      0.1639
    217  C        159.1430   47.0010    2.2790 C.2   190  PHE190      0.2290
    218  O        158.5690   47.4510    3.2610 O.2   190  PHE190     -0.2864
    219  CB       157.9900   48.6370    0.7140 C.3   190  PHE190      0.0560
    220  CG       158.2140   49.8370   -0.1570 C.ar  190  PHE190     -0.0200
    221  CD1      158.3800   49.6970   -1.5320 C.ar  190  PHE190     -0.0042
    222  CD2      158.2970   51.1010    0.3960 C.ar  190  PHE190     -0.0042
    223  CE1      158.6130   50.7980   -2.3390 C.ar  190  PHE190     -0.0003
    224  CE2      158.5270   52.2040   -0.4040 C.ar  190  PHE190     -0.0003
    225  CZ       158.6860   52.0540   -1.7740 C.ar  190  PHE190     -0.0000
@<TRIPOS>BOND
     1   157   155   ar
     2   155   154    1
     3   155   156   ar
     4   154   153    1
     5   153   150    1
     6   152   151    2
     7   151   150    1
     8   150   149    1
     9   149   143   am
    10    45    44    1
    11    45    46    2
    12    44    43    1
    13   140   138    1
    14    48    46    1
    15    46    47    1
    16   136   135    2
    17   131   130   ar
    18   138   137    1
    19   138   139    1
    20   143   144    2
    21   143   142    1
    22    43    42    1
    23   158   159    1
    24   137   134    1
    25   142   141    1
    26   142   145    1
    27   135   141   am
    28   135   134    1
    29    42    39    1
    30    10     9    1
    31   130   129    1
    32   130   132   ar
    33   134   133    1
    34   159   160    1
    35   129   128    1
    36    11     9    1
    37   145   146    1
    38   146   147    1
    39   146   148    1
    40     9     8    2
    41   133   126   am
    42    39    40    1
    43    39    38    1
    44   176   174   am
    45   171   170    2
    46    40    41    2
    47   161   160    2
    48   160   162   am
    49   170   169    1
    50   128   125    1
    51   126   125    1
    52   126   127    2
    53     8     7    1
    54   172   169    1
    55   172   173    1
    56   125   124    1
    57   174   175    2
    58   174   173    1
    59   165   164    2
    60   195   196    2
    61   195   194    1
    62    49    50    1
    63   162   163    1
    64   169   168    1
    65     7     6    1
    66   164   163    1
    67    50    53    1
    68    50    51    1
    69   119   118    2
    70    98    99    1
    71    98    97    1
    72   124   118   am
    73   163   166    1
    74   194   197    1
    75   194   193    1
    76   197   198    1
    77    99    93    1
    78   118   117    1
    79     6     5    1
    80    97    94    1
    81    51    52    2
    82   200   198    1
    83   166   167    1
    84   198   199    1
    85     5     2    1
    86    93    94    1
    87    93    88   am
    88    92    90    1
    89    91    90    1
    90   117   116    1
    91   117   120    1
    92    96    95    2
    93    34    33    2
    94    94    95    1
    95    87    90    1
    96    87    88    1
    97    87    86    1
    98   121   120    1
    99   121   122    1
   100    33    32    1
   101     1     2    1
   102    36    35    1
   103     2     3    1
   104    95   100   am
   105    88    89    2
   106   103   102    2
   107   102   101    1
   108   122   123    1
   109   100   101    1
   110    35    32    1
   111    35    37    1
   112    32    31    1
   113     3    12   am
   114     3     4    2
   115    12    13    1
   116   101   104    1
   117   180   179    2
   118   205   206    1
   119   205   202    1
   120    31    24   am
   121   183   182   ar
   122    54    55    1
   123   187   188    2
   124   187   186    1
   125   178   179    1
   126   178   177    1
   127   178   181    1
   128   179   185   am
   129   111   110    2
   130   201   202    1
   131    13    14    1
   132   104   105    1
   133   110   109    1
   134   202   203    1
   135    24    25    2
   136    24    23    1
   137   185   186    1
   138    15    14    2
   139   186   189    1
   140   182   181    1
   141   182   184   ar
   142    55    58    1
   143    55    56    1
   144    14    16   am
   145   105   106    1
   146   105   107    1
   147    22    23    1
   148    58    59    1
   149    23    26    1
   150   203   207   am
   151   203   204    2
   152   109   108    1
   153   109   112    1
   154    56    57    2
   155   189   190    1
   156   207   208    1
   157    16    17    1
   158   114   112    1
   159    59    60    1
   160    83    82    2
   161   191   190    2
   162   112   113    1
   163    29    28   ar
   164    26    27    1
   165   223   225   ar
   166   223   221   ar
   167    28    27    1
   168    28    30   ar
   169   190   192   am
   170    17    18    1
   171    17    20    1
   172    84    85    1
   173    84    81    1
   174   208   211    1
   175   208   209    1
   176    60    61    1
   177   225   224   ar
   178   211   212    1
   179    18    19    2
   180    82    81    1
   181   221   220   ar
   182   113   115    1
   183    81    80    1
   184    21    20    1
   185   212   214   ar
   186   212   213   ar
   187    61    62    1
   188   209   215   am
   189   209   210    2
   190   224   222   ar
   191    79    77    1
   192   215   216    1
   193   220   222   ar
   194   220   219    1
   195    71    69   ar
   196   219   216    1
   197   216   217    1
   198    77    78    1
   199    77    76    1
   200    66    65    2
   201    75    74    2
   202    69    68    1
   203    69    70   ar
   204    68    67    1
   205    73    76    1
   206    73    74    1
   207    73    72    1
   208   217   218    2
   209    65    72   am
   210    65    64    1
   211    67    64    1
   212    64    63    1
