@<TRIPOS>MOLECULE
tmp/6g4zA00.pdb
 205 193 0 0 0
SMALL
GASTEIGER

@<TRIPOS>ATOM
      1  N         32.8570   61.2270   -3.6110 N.3    63  ARG63      -0.1231
      2  CA        31.4880   60.7770   -3.3930 C.3    63  ARG63       0.1694
      3  C         31.3730   60.4940   -1.9040 C.2    63  ARG63       0.2593
      4  O         32.3890   60.3430   -1.2270 O.2    63  ARG63      -0.2718
      5  CB        31.2010   59.5070   -4.1870 C.3    63  ARG63       0.0321
      6  CG        31.4250   59.6250   -5.6830 C.3    63  ARG63       0.0489
      7  CD        32.1110   58.3790   -6.2120 C.3    63  ARG63       0.2205
      8  NE        32.4880   58.5130   -7.6130 N.pl3  63  ARG63      -0.0865
      9  CZ        31.9300   57.8220   -8.5980 C.cat  63  ARG63       0.5346
     10  NH1       32.3240   58.0010   -9.8530 N.pl3  63  ARG63       0.1354
     11  NH2       30.9800   56.9460   -8.3200 N.pl3  63  ARG63       0.1354
     12  N         30.1510   60.4230   -1.3880 N.am   64  GLY64      -0.1942
     13  CA        29.9340   60.1530    0.0390 C.3    64  GLY64       0.2014
     14  C         29.7370   61.4100    0.8650 C.2    64  GLY64       0.2639
     15  O         30.0350   62.5040    0.4140 O.2    64  GLY64      -0.2714
     16  N         29.2340   61.2500    2.0840 N.am   65  SER65      -0.1949
     17  CA        28.9500   62.3900    2.9580 C.3    65  SER65       0.1924
     18  C         30.2090   63.1750    3.3110 C.2    65  SER65       0.2314
     19  O         30.1650   64.4020    3.4140 O.2    65  SER65      -0.2863
     20  CB        28.2810   61.9280    4.2540 C.3    65  SER65       0.2116
     21  OG        27.1560   61.1120    3.9880 O.3    65  SER65      -0.2180
     22  N         34.6660   60.7540    1.0730 N.3    68  GLU68      -0.1231
     23  CA        35.5700   59.6820    1.4830 C.3    68  GLU68       0.1699
     24  C         35.6240   58.5070    0.5050 C.2    68  GLU68       0.2592
     25  O         36.4630   57.6150    0.6650 O.2    68  GLU68      -0.2718
     26  CB        35.2020   59.1840    2.8930 C.3    68  GLU68       0.0402
     27  CG        33.9870   58.2600    2.9860 C.3    68  GLU68       0.1161
     28  CD        32.6480   58.9820    2.9240 C.2    68  GLU68       0.3649
     29  OE1       32.6080   60.1830    2.5700 O.co2  68  GLU68      -0.2457
     30  OE2       31.6240   58.3300    3.2250 O.co2  68  GLU68      -0.2457
     31  N         34.7390   58.5020   -0.4920 N.am   69  VAL69      -0.1980
     32  CA        34.7380   57.4630   -1.5130 C.3    69  VAL69       0.1595
     33  C         35.3390   57.9950   -2.7960 C.2    69  VAL69       0.2287
     34  O         35.0180   59.0980   -3.2110 O.2    69  VAL69      -0.2864
     35  CB        33.3220   56.9650   -1.8100 C.3    69  VAL69       0.0276
     36  CG1       33.3530   55.9180   -2.9190 C.3    69  VAL69       0.0022
     37  CG2       32.6970   56.4060   -0.5420 C.3    69  VAL69       0.0022
     38  N         35.8350   51.2310   -6.4750 N.3    82  ALA82      -0.1245
     39  CA        35.7130   52.3410   -5.5230 C.3    82  ALA82       0.1562
     40  C         36.4200   52.0270   -4.2150 C.2    82  ALA82       0.2260
     41  O         36.5650   50.8660   -3.8550 O.2    82  ALA82      -0.2867
     42  CB        34.2490   52.6520   -5.2620 C.3    82  ALA82       0.0290
     43  N         36.4170   53.2610   -0.1090 N.3    84  LYS84      -0.1245
     44  CA        35.9750   54.0500    1.0170 C.3    84  LYS84       0.1561
     45  C         37.1250   54.1190    1.9940 C.2    84  LYS84       0.2260
     46  O         37.6150   53.0870    2.4300 O.2    84  LYS84      -0.2867
     47  CB        34.7660   53.4100    1.6950 C.3    84  LYS84       0.0271
     48  CG        34.0960   54.3080    2.7290 C.3    84  LYS84       0.0035
     49  CD        33.3660   53.5300    3.8130 C.3    84  LYS84       0.0206
     50  CE        32.7200   54.4780    4.8120 C.3    84  LYS84       0.1093
     51  NZ        31.9740   53.7710    5.8930 N.3    84  LYS84      -0.1314
     52  N         31.2310   46.6190    9.8380 N.3    95  GLU95      -0.1231
     53  CA        31.1370   47.1180    8.4770 C.3    95  GLU95       0.1699
     54  C         31.5770   46.0770    7.4470 C.2    95  GLU95       0.2592
     55  O         30.9990   45.9950    6.3640 O.2    95  GLU95      -0.2718
     56  CB        31.9520   48.4000    8.3240 C.3    95  GLU95       0.0402
     57  CG        31.8130   49.0370    6.9490 C.3    95  GLU95       0.1161
     58  CD        32.1910   50.5020    6.9270 C.2    95  GLU95       0.3649
     59  OE1       32.9800   50.9280    7.7940 O.co2  95  GLU95      -0.2457
     60  OE2       31.6990   51.2240    6.0350 O.co2  95  GLU95      -0.2457
     61  N         32.5910   45.2870    7.7910 N.am   96  LEU96      -0.1980
     62  CA        33.0570   44.1960    6.9350 C.3    96  LEU96       0.1596
     63  C         32.3970   42.8680    7.2970 C.2    96  LEU96       0.2287
     64  O         31.8990   42.1730    6.4150 O.2    96  LEU96      -0.2864
     65  CB        34.5770   44.0580    7.0230 C.3    96  LEU96       0.0297
     66  CG        35.3650   45.3250    6.6840 C.3    96  LEU96       0.0022
     67  CD1       36.8600   45.0860    6.8270 C.3    96  LEU96       0.0001
     68  CD2       35.0240   45.8060    5.2810 C.3    96  LEU96       0.0001
     69  N         29.2360   42.8810    5.8380 N.3    99  CYS99      -0.1235
     70  CA        29.3650   43.0130    4.3920 C.3    99  CYS99       0.1677
     71  C         30.0700   41.8340    3.6920 C.2    99  CYS99       0.2270
     72  O         29.8030   41.5600    2.5180 O.2    99  CYS99      -0.2867
     73  CB        30.1070   44.3220    4.1060 C.3    99  CYS99       0.0956
     74  SG        30.0240   44.9070    2.4110 S.3    99  CYS99      -0.0801
     75  N         25.8180   46.1100   -2.5070 N.3   108  VAL108     -0.1231
     76  CA        27.0750   46.4190   -3.1710 C.3   108  VAL108      0.1678
     77  C         28.1410   45.4380   -2.6850 C.2   108  VAL108      0.2434
     78  O         28.3330   45.2830   -1.4760 O.2   108  VAL108     -0.2733
     79  CB        27.5330   47.8570   -2.8690 C.3   108  VAL108      0.0265
     80  CG1       28.9050   48.1230   -3.4740 C.3   108  VAL108      0.0020
     81  CG2       26.5180   48.8560   -3.3980 C.3   108  VAL108      0.0020
     82  N         28.8400   44.7720   -3.6220 N.am  109  PRO109     -0.2718
     83  CA        29.8370   43.7840   -3.2140 C.3   109  PRO109      0.1535
     84  C         31.1500   44.4030   -2.7360 C.2   109  PRO109      0.2598
     85  O         31.5770   45.4500   -3.2330 O.2   109  PRO109     -0.2715
     86  CB        30.0590   42.9670   -4.4850 C.3   109  PRO109      0.0310
     87  CG        29.7660   43.9130   -5.6010 C.3   109  PRO109      0.0237
     88  CD        28.7370   44.8810   -5.0920 C.3   109  PRO109      0.0939
     89  N         31.7610   43.7230   -1.7700 N.am  110  LEU110     -0.1978
     90  CA        33.0350   44.1020   -1.1700 C.3   110  LEU110      0.1596
     91  C         34.1340   43.3730   -1.9120 C.2   110  LEU110      0.2287
     92  O         34.0210   42.1750   -2.1630 O.2   110  LEU110     -0.2864
     93  CB        33.0420   43.6910    0.3040 C.3   110  LEU110      0.0297
     94  CG        34.3150   43.8310    1.1400 C.3   110  LEU110      0.0022
     95  CD1       34.7180   45.2850    1.3160 C.3   110  LEU110      0.0001
     96  CD2       34.0990   43.1850    2.5010 C.3   110  LEU110      0.0001
     97  N         38.6700   50.4720    2.2180 N.3   122  ILE122     -0.1245
     98  CA        37.7100   49.4220    1.8800 C.3   122  ILE122      0.1561
     99  C         37.3530   49.5160    0.3970 C.2   122  ILE122      0.2260
    100  O         36.8880   50.5550   -0.0580 O.2   122  ILE122     -0.2867
    101  CB        36.4360   49.5300    2.7450 C.3   122  ILE122      0.0252
    102  CG1       36.7950   49.5630    4.2370 C.3   122  ILE122      0.0019
    103  CG2       35.5140   48.3570    2.4710 C.3   122  ILE122      0.0019
    104  CD1       35.6350   49.8820    5.1580 C.3   122  ILE122      0.0001
    105  N         35.3670   48.2530   -3.1990 N.3   124  MET124     -0.1230
    106  CA        34.0520   47.7710   -3.5950 C.3   124  MET124      0.1702
    107  C         33.7940   48.0810   -5.0450 C.2   124  MET124      0.2592
    108  O         34.5130   48.8660   -5.6490 O.2   124  MET124     -0.2718
    109  CB        32.9740   48.4510   -2.7610 C.3   124  MET124      0.0401
    110  CG        32.9410   49.9570   -2.9370 C.3   124  MET124      0.0596
    111  SD        31.9020   50.7780   -1.7220 S.3   124  MET124     -0.1393
    112  CE        32.5950   52.4330   -1.7610 C.3   124  MET124      0.0692
    113  N         32.7440   47.4720   -5.5840 N.am  125  GLU125     -0.1966
    114  CA        32.3010   47.7510   -6.9420 C.3   125  GLU125      0.1733
    115  C         31.9560   49.2210   -7.0930 C.2   125  GLU125      0.2616
    116  O         31.3890   49.8350   -6.1890 O.2   125  GLU125     -0.2715
    117  CB        31.0750   46.9060   -7.3100 C.3   125  GLU125      0.0429
    118  CG        30.5200   47.1890   -8.7030 C.3   125  GLU125      0.1163
    119  CD        29.3140   46.3380   -9.0610 C.2   125  GLU125      0.3649
    120  OE1       28.8450   46.4420  -10.2170 O.co2 125  GLU125     -0.2457
    121  OE2       28.8320   45.5700   -8.2000 O.co2 125  GLU125     -0.2457
    122  N         32.3080   49.7610   -8.2530 N.am  126  LEU126     -0.1963
    123  CA        31.9900   51.1230   -8.6250 C.3   126  LEU126      0.1728
    124  C         30.6520   51.1240   -9.3460 C.2   126  LEU126      0.2616
    125  O         30.4880   50.4220  -10.3450 O.2   126  LEU126     -0.2715
    126  CB        33.0770   51.6390   -9.5580 C.3   126  LEU126      0.0311
    127  CG        32.9760   53.0690  -10.0710 C.3   126  LEU126      0.0022
    128  CD1       33.1910   54.0540   -8.9320 C.3   126  LEU126      0.0001
    129  CD2       33.9960   53.2810  -11.1810 C.3   126  LEU126      0.0001
    130  N         29.6930   51.8960   -8.8420 N.am  127  LEU127     -0.1977
    131  CA        28.4080   52.0600   -9.5210 C.3   127  LEU127      0.1596
    132  C         28.3160   53.4350  -10.1640 C.2   127  LEU127      0.2287
    133  O         28.1940   54.4490   -9.4740 O.2   127  LEU127     -0.2864
    134  CB        27.2440   51.8400   -8.5600 C.3   127  LEU127      0.0297
    135  CG        26.8970   50.3640   -8.3580 C.3   127  LEU127      0.0022
    136  CD1       27.8460   49.7080   -7.3660 C.3   127  LEU127      0.0001
    137  CD2       25.4580   50.2180   -7.8950 C.3   127  LEU127      0.0001
    138  N         25.4130   56.6460   -9.9500 N.3   130  GLY130     -0.1210
    139  CA        25.2610   57.5780   -8.8360 C.3   130  GLY130      0.1956
    140  C         24.2830   57.0930   -7.7780 C.2   130  GLY130      0.2612
    141  O         23.6900   56.0190   -7.8990 O.2   130  GLY130     -0.2717
    142  N         24.1070   57.8900   -6.7320 N.am  131  SER131     -0.1952
    143  CA        23.1900   57.5310   -5.6550 C.3   131  SER131      0.1924
    144  C         21.7690   57.9680   -5.9710 C.2   131  SER131      0.2314
    145  O         21.5390   58.8860   -6.7690 O.2   131  SER131     -0.2863
    146  CB        23.6340   58.1450   -4.3220 C.3   131  SER131      0.2116
    147  OG        23.5130   59.5560   -4.3250 O.3   131  SER131     -0.2180
    148  N         21.4280   61.5460   -5.1790 N.3   134  GLN134     -0.1245
    149  CA        21.7230   62.4400   -6.3060 C.3   134  GLN134      0.1566
    150  C         20.5790   62.4960   -7.3090 C.2   134  GLN134      0.2260
    151  O         20.2860   63.5520   -7.8680 O.2   134  GLN134     -0.2867
    152  CB        22.9950   62.0020   -7.0350 C.3   134  GLN134      0.0367
    153  CG        24.2800   62.2530   -6.2600 C.3   134  GLN134      0.0905
    154  CD        25.4900   61.5370   -6.8490 C.2   134  GLN134      0.2608
    155  OE1       25.3600   60.6030   -7.6480 O.2   134  GLN134     -0.2717
    156  NE2       26.6820   61.9710   -6.4450 N.am  134  GLN134     -0.0878
    157  N         20.8310   58.4830   -0.0260 N.3   174  ASP174     -0.1225
    158  CA        22.2730   58.5770   -0.2910 C.3   174  ASP174      0.1805
    159  C         22.9260   57.1990   -0.3050 C.2   174  ASP174      0.2597
    160  O         23.8360   56.9580   -1.0920 O.2   174  ASP174     -0.2718
    161  CB        22.9710   59.4480    0.7580 C.3   174  ASP174      0.1424
    162  CG        22.6010   60.9230    0.6500 C.2   174  ASP174      0.3668
    163  OD1       22.2150   61.3720   -0.4520 O.co2 174  ASP174     -0.2456
    164  OD2       22.7060   61.6360    1.6780 O.co2 174  ASP174     -0.2456
    165  N         22.4500   56.3040    0.5630 N.am  175  ASN175     -0.1974
    166  CA        22.9860   54.9470    0.6720 C.3   175  ASN175      0.1688
    167  C         22.2840   53.9160   -0.2110 C.2   175  ASN175      0.2292
    168  O         22.3400   52.7150    0.0610 O.2   175  ASN175     -0.2864
    169  CB        22.9490   54.4890    2.1310 C.3   175  ASN175      0.1181
    170  CG        23.8660   55.3040    3.0220 C.2   175  ASN175      0.2629
    171  OD1       24.6950   56.0850    2.5450 O.2   175  ASN175     -0.2716
    172  ND2       23.7240   55.1200    4.3310 N.am  175  ASN175     -0.0877
    173  N         22.5520   52.9730   -4.1480 N.3   177  LEU177     -0.1245
    174  CA        23.2950   53.2680   -5.3680 C.3   177  LEU177      0.1561
    175  C         22.6870   52.5930   -6.5870 C.2   177  LEU177      0.2260
    176  O         22.3520   51.4080   -6.5440 O.2   177  LEU177     -0.2867
    177  CB        24.7500   52.8330   -5.2190 C.3   177  LEU177      0.0270
    178  CG        25.5110   53.5010   -4.0780 C.3   177  LEU177      0.0019
    179  CD1       26.9310   52.9650   -3.9970 C.3   177  LEU177      0.0001
    180  CD2       25.5080   55.0120   -4.2470 C.3   177  LEU177      0.0001
    181  N         24.3860   50.3520    0.1470 N.3   188  CYS188     -0.1221
    182  CA        25.7950   50.4890    0.4400 C.3   188  CYS188      0.1808
    183  C         25.9350   51.1630    1.7910 C.2   188  CYS188      0.2601
    184  O         24.9420   51.5020    2.4270 O.2   188  CYS188     -0.2717
    185  CB        26.4700   51.3320   -0.6340 C.3   188  CYS188      0.0970
    186  SG        26.0690   53.0930   -0.5360 S.3   188  CYS188     -0.0800
    187  N         27.1840   51.3440    2.2060 N.am  189  ASP189     -0.1959
    188  CA        27.5610   52.0280    3.4510 C.3   189  ASP189      0.1840
    189  C         27.0760   51.3330    4.7240 C.2   189  ASP189      0.2622
    190  O         26.1220   51.7660    5.3600 O.2   189  ASP189     -0.2715
    191  CB        27.1050   53.4900    3.4220 C.3   189  ASP189      0.1450
    192  CG        27.9010   54.3720    4.3660 C.2   189  ASP189      0.3671
    193  OD1       28.6400   53.8380    5.2290 O.co2 189  ASP189     -0.2456
    194  OD2       27.7920   55.6120    4.2240 O.co2 189  ASP189     -0.2456
    195  N         27.7760   50.2740    5.1090 N.am  190  PHE190     -0.1974
    196  CA        27.4280   49.5130    6.3010 C.3   190  PHE190      0.1639
    197  C         28.1840   50.0160    7.5360 C.2   190  PHE190      0.2290
    198  O         28.5190   49.2370    8.4260 O.2   190  PHE190     -0.2864
    199  CB        27.6980   48.0200    6.0590 C.3   190  PHE190      0.0560
    200  CG        26.9210   47.4480    4.9050 C.ar  190  PHE190     -0.0200
    201  CD1       27.4410   47.4780    3.6170 C.ar  190  PHE190     -0.0042
    202  CD2       25.6630   46.8990    5.1020 C.ar  190  PHE190     -0.0042
    203  CE1       26.7260   46.9660    2.5500 C.ar  190  PHE190     -0.0003
    204  CE2       24.9390   46.3870    4.0340 C.ar  190  PHE190     -0.0003
    205  CZ        25.4730   46.4220    2.7570 C.ar  190  PHE190     -0.0000
@<TRIPOS>BOND
     1   129   127    1
     2   125   124    2
     3   120   119   ar
     4   132   131    1
     5   132   133    2
     6   127   126    1
     7   127   128    1
     8   138   139    1
     9    10     9    1
    10   126   123    1
    11   131   130    1
    12   131   134    1
    13   124   130   am
    14   124   123    1
    15   119   118    1
    16   119   121   ar
    17   139   140    1
    18   118   117    1
    19   123   122    1
    20     9    11    1
    21     9     8    2
    22   134   135    1
    23   135   137    1
    24   135   136    1
    25   122   115   am
    26   141   140    2
    27   151   150    2
    28   140   142   am
    29   155   154    2
    30     8     7    1
    31   117   114    1
    32   150   149    1
    33   115   114    1
    34   115   116    2
    35   152   149    1
    36   152   153    1
    37   114   113    1
    38   154   156   am
    39   154   153    1
    40   145   144    2
    41   142   143    1
    42   175   176    2
    43   175   174    1
    44    38    39    1
    45   149   148    1
    46     7     6    1
    47   144   143    1
    48     6     5    1
    49   143   146    1
    50   108   107    2
    51    87    88    1
    52    87    86    1
    53   113   107   am
    54    39    42    1
    55    39    40    1
    56   174   177    1
    57   174   173    1
    58   177   178    1
    59    88    82    1
    60   107   106    1
    61    86    83    1
    62   147   146    1
    63   180   178    1
    64    40    41    2
    65     5     2    1
    66   178   179    1
    67    82    83    1
    68    82    77   am
    69     1     2    1
    70   106   105    1
    71   106   109    1
    72    80    79    1
    73    81    79    1
    74     2     3    1
    75    85    84    2
    76    83    84    1
    77    34    33    2
    78    76    79    1
    79    76    77    1
    80    76    75    1
    81   110   109    1
    82   110   111    1
    83    36    35    1
    84    33    32    1
    85    84    89   am
    86    77    78    2
    87    92    91    2
    88    91    90    1
    89     3    12   am
    90     3     4    2
    91    35    32    1
    92    35    37    1
    93    89    90    1
    94   112   111    1
    95    32    31    1
    96    12    13    1
    97    90    93    1
    98   160   159    2
    99   185   186    1
   100   185   182    1
   101    31    24   am
   102   163   162   ar
   103   159   158    1
   104   159   165   am
   105   158   157    1
   106   158   161    1
   107   167   168    2
   108   167   166    1
   109    43    44    1
   110   100    99    2
   111    13    14    1
   112   181   182    1
   113    93    94    1
   114    99    98    1
   115    15    14    2
   116   182   183    1
   117    24    25    2
   118    24    23    1
   119   165   166    1
   120   162   161    1
   121   162   164   ar
   122   166   169    1
   123    14    16   am
   124    44    47    1
   125    44    45    1
   126    22    23    1
   127    94    95    1
   128    94    96    1
   129    23    26    1
   130    47    48    1
   131   183   187   am
   132   183   184    2
   133    98    97    1
   134    98   101    1
   135    45    46    2
   136    16    17    1
   137   169   170    1
   138   187   188    1
   139    74    73    1
   140   103   101    1
   141    72    71    2
   142   171   170    2
   143   203   205   ar
   144   203   201   ar
   145    29    28   ar
   146    48    49    1
   147   101   102    1
   148   205   204   ar
   149    26    27    1
   150    28    27    1
   151    28    30   ar
   152    17    18    1
   153    17    20    1
   154   170   172   am
   155    18    19    2
   156   191   188    1
   157   191   192    1
   158   188   189    1
   159   201   200   ar
   160    71    70    1
   161    49    50    1
   162    21    20    1
   163   204   202   ar
   164    73    70    1
   165   194   192   ar
   166   102   104    1
   167   192   193   ar
   168    70    69    1
   169   189   195   am
   170   189   190    2
   171    50    51    1
   172   200   202   ar
   173   200   199    1
   174   195   196    1
   175    68    66    1
   176    60    58   ar
   177   199   196    1
   178   196   197    1
   179    55    54    2
   180    64    63    2
   181    66    67    1
   182    66    65    1
   183    58    57    1
   184    58    59   ar
   185    62    65    1
   186    62    63    1
   187    62    61    1
   188    57    56    1
   189    54    61   am
   190    54    53    1
   191   197   198    2
   192    56    53    1
   193    53    52    1
