@<TRIPOS>MOLECULE
tmp/6g54A00.pdb
 165 156 0 0 0
SMALL
GASTEIGER

@<TRIPOS>ATOM
      1  N         77.9540   12.7170   14.5040 N.3    21  TYR21      -0.1227
      2  CA        76.6330   12.1590   14.7170 C.3    21  TYR21       0.1736
      3  C         75.5890   13.2500   14.5560 C.2    21  TYR21       0.2595
      4  O         75.7700   14.3590   15.0590 O.2    21  TYR21      -0.2718
      5  CB        76.5350   11.5980   16.1230 C.3    21  TYR21       0.0548
      6  CG        75.1840   11.0110   16.4570 C.ar   21  TYR21      -0.0200
      7  CD1       74.8440    9.7270   16.0490 C.ar   21  TYR21      -0.0009
      8  CD2       74.2610   11.7250   17.2110 C.ar   21  TYR21      -0.0009
      9  CE1       73.6170    9.1720   16.3700 C.ar   21  TYR21       0.0417
     10  CE2       73.0260   11.1820   17.5250 C.ar   21  TYR21       0.0417
     11  CZ        72.7200    9.9060   17.1060 C.ar   21  TYR21       0.1957
     12  OH        71.5310    9.3700   17.4300 O.3    21  TYR21      -0.2866
     13  N         74.5140   12.9670   13.8290 N.am   22  ILE22      -0.1966
     14  CA        73.4320   13.9470   13.7620 C.3    22  ILE22       0.1727
     15  C         72.1070   13.3920   14.1850 C.2    22  ILE22       0.2617
     16  O         71.2670   14.1380   14.5800 O.2    22  ILE22      -0.2715
     17  CB        73.3340   14.6670   12.3890 C.3    22  ILE22       0.0290
     18  CG1       73.3090   13.6940   11.2060 C.3    22  ILE22       0.0022
     19  CG2       74.5100   15.6260   12.2290 C.3    22  ILE22       0.0023
     20  CD1       73.5610   14.3930    9.8640 C.3    22  ILE22       0.0001
     21  N         71.9190   12.0900   14.1170 N.am   23  GLY23      -0.1940
     22  CA        70.7280   11.5060   14.6860 C.3    23  GLY23       0.2014
     23  C         70.5000   10.0980   14.2280 C.2    23  GLY23       0.2639
     24  O         71.2900    9.5310   13.4560 O.2    23  GLY23      -0.2714
     25  N         69.4120    9.5410   14.7360 N.am   24  GLU24      -0.1963
     26  CA        68.8820    8.2690   14.3080 C.3    24  GLU24       0.1733
     27  C         67.7970    8.5600   13.2910 C.2    24  GLU24       0.2617
     28  O         66.8380    9.2740   13.5910 O.2    24  GLU24      -0.2715
     29  CB        68.2520    7.5220   15.5000 C.3    24  GLU24       0.0429
     30  CG        69.2540    7.1090   16.5570 C.3    24  GLU24       0.1163
     31  CD        70.3850    6.2830   15.9840 C.2    24  GLU24       0.3649
     32  OE1       70.0930    5.3460   15.2140 O.co2  24  GLU24      -0.2457
     33  OE2       71.5620    6.5790   16.2920 O.co2  24  GLU24      -0.2457
     34  N         67.9530    8.0110   12.0970 N.am   25  GLY25      -0.1940
     35  CA        66.8980    8.0490   11.0900 C.3    25  GLY25       0.2014
     36  C         66.1070    6.7680   11.2180 C.2    25  GLY25       0.2638
     37  O         66.3580    5.9660   12.1320 O.2    25  GLY25      -0.2714
     38  N         65.1740    6.5520   10.2970 N.am   26  ALA26      -0.1977
     39  CA        64.3400    5.3530   10.3270 C.3    26  ALA26       0.1597
     40  C         65.1140    4.0070   10.2340 C.2    26  ALA26       0.2287
     41  O         64.6000    3.0070   10.7110 O.2    26  ALA26      -0.2864
     42  CB        63.2650    5.4290    9.2360 C.3    26  ALA26       0.0319
     43  N         72.7810    8.2120   11.3990 N.3    30  VAL30      -0.1245
     44  CA        73.1110    9.1650   10.3620 C.3    30  VAL30       0.1561
     45  C         74.1950   10.1060   10.9080 C.2    30  VAL30       0.2260
     46  O         74.1480   10.5020   12.0820 O.2    30  VAL30      -0.2867
     47  CB        71.8890   10.0030    9.9470 C.3    30  VAL30       0.0252
     48  CG1       72.2040   10.8680    8.7260 C.3    30  VAL30       0.0019
     49  CG2       70.6840    9.1090    9.6790 C.3    30  VAL30       0.0019
     50  N         75.5870   14.2790    4.1790 N.3    43  ALA43      -0.1245
     51  CA        74.9270   13.4140    5.1230 C.3    43  ALA43       0.1562
     52  C         75.2060   11.9860    4.6870 C.2    43  ALA43       0.2260
     53  O         75.2280   11.6890    3.4850 O.2    43  ALA43      -0.2867
     54  CB        73.4360   13.6850    5.1000 C.3    43  ALA43       0.0290
     55  N         73.9330    8.0410    5.7770 N.3    45  LYS45      -0.1245
     56  CA        73.1870    7.1700    6.6310 C.3    45  LYS45       0.1561
     57  C         73.6280    5.7270    6.4710 C.2    45  LYS45       0.2260
     58  O         73.8140    5.2180    5.3510 O.2    45  LYS45      -0.2867
     59  CB        71.6880    7.3750    6.4480 C.3    45  LYS45       0.0271
     60  CG        71.0980    6.9280    5.1440 C.3    45  LYS45       0.0035
     61  CD        69.6400    7.3860    5.0950 C.3    45  LYS45       0.0206
     62  CE        68.7820    6.5080    4.1840 C.3    45  LYS45       0.1093
     63  NZ        67.5020    7.1590    3.7740 N.3    45  LYS45      -0.1314
     64  N         65.2280   14.4980   -2.2400 N.3    75  ILE75      -0.1245
     65  CA        66.5800   14.2080   -1.8180 C.3    75  ILE75       0.1561
     66  C         67.2400   13.2410   -2.8280 C.2    75  ILE75       0.2260
     67  O         66.6140   12.2790   -3.3430 O.2    75  ILE75      -0.2867
     68  CB        66.6090   13.6410   -0.3860 C.3    75  ILE75       0.0252
     69  CG1       68.0100   13.7540    0.2300 C.3    75  ILE75       0.0019
     70  CG2       66.1210   12.2160   -0.3650 C.3    75  ILE75       0.0019
     71  CD1       68.4980   15.1760    0.4430 C.3    75  ILE75       0.0001
     72  N         74.0340   11.5550    0.9710 N.3    96  GLN96      -0.1231
     73  CA        72.9950   12.5140    0.5100 C.3    96  GLN96       0.1698
     74  C         73.4160   13.9360    0.8360 C.2    96  GLN96       0.2592
     75  O         74.3210   14.1530    1.6610 O.2    96  GLN96      -0.2718
     76  CB        71.6590   12.2020    1.1770 C.3    96  GLN96       0.0381
     77  CG        71.1730   10.8080    0.8290 C.3    96  GLN96       0.0905
     78  CD        69.8430   10.4760    1.4260 C.2    96  GLN96       0.2608
     79  OE1       69.7450   10.3090    2.6460 O.2    96  GLN96      -0.2717
     80  NE2       68.8120   10.3030    0.5720 N.am   96  GLN96      -0.0878
     81  N         72.7640   14.9010    0.1920 N.am   97  ASP97      -0.1960
     82  CA        73.0000   16.3120    0.4870 C.3    97  ASP97       0.1840
     83  C         72.6920   16.5910    1.9350 C.2    97  ASP97       0.2622
     84  O         71.6690   16.1650    2.4370 O.2    97  ASP97      -0.2715
     85  CB        72.0800   17.2330   -0.3360 C.3    97  ASP97       0.1450
     86  CG        72.4340   17.2740   -1.8050 C.2    97  ASP97       0.3671
     87  OD1       73.5750   16.9230   -2.1950 O.co2  97  ASP97      -0.2456
     88  OD2       71.5250   17.6570   -2.5640 O.co2  97  ASP97      -0.2456
     89  N         73.5620   17.3570    2.5710 N.am   98  LEU98      -0.1963
     90  CA        73.3920   17.7040    3.9420 C.3    98  LEU98       0.1728
     91  C         72.4200   18.8560    4.0460 C.2    98  LEU98       0.2616
     92  O         72.5910   19.8780    3.4010 O.2    98  LEU98      -0.2715
     93  CB        74.7420   18.0840    4.5420 C.3    98  LEU98       0.0311
     94  CG        74.7000   18.4220    6.0210 C.3    98  LEU98       0.0022
     95  CD1       74.2060   17.2580    6.8480 C.3    98  LEU98       0.0001
     96  CD2       76.0620   18.8680    6.4580 C.3    98  LEU98       0.0001
     97  N         71.3780   18.6880    4.8410 N.am   99  MET99      -0.1963
     98  CA        70.3420   19.7400    4.9960 C.3    99  MET99       0.1736
     99  C         70.4200   20.2590    6.4190 C.2    99  MET99       0.2616
    100  O         71.1190   19.6650    7.2300 O.2    99  MET99      -0.2715
    101  CB        68.9550   19.1530    4.6950 C.3    99  MET99       0.0427
    102  CG        68.8070   18.6230    3.2620 C.3    99  MET99       0.0599
    103  SD        68.9350   19.9660    2.0850 S.3    99  MET99      -0.1393
    104  CE        67.2710   20.5880    2.1070 C.3    99  MET99       0.0692
    105  N         69.6880   21.3230    6.7340 N.am  100  GLU100     -0.1963
    106  CA        69.7470   21.9720    8.0700 C.3   100  GLU100      0.1733
    107  C         68.8550   21.3240    9.1090 C.2   100  GLU100      0.2617
    108  O         69.2050   21.2650   10.2970 O.2   100  GLU100     -0.2715
    109  CB        69.3060   23.4440    7.9900 C.3   100  GLU100      0.0429
    110  CG        70.1820   24.3490    7.1270 C.3   100  GLU100      0.1163
    111  CD        71.5540   24.6220    7.7240 C.2   100  GLU100      0.3649
    112  OE1       72.4110   25.1420    6.9760 O.co2 100  GLU100     -0.2457
    113  OE2       71.7560   24.3360    8.9440 O.co2 100  GLU100     -0.2457
    114  N         67.6670   20.9180    8.6930 N.am  101  THR101     -0.1937
    115  CA        66.6610   20.4260    9.6400 C.3   101  THR101      0.2028
    116  C         65.5480   19.7130    8.8300 C.2   101  THR101      0.2642
    117  O         65.7290   19.4450    7.6180 O.2   101  THR101     -0.2714
    118  CB        66.0870   21.6060   10.4610 C.3   101  THR101      0.1808
    119  OG1       65.2230   21.1310   11.4820 O.3   101  THR101     -0.2208
    120  CG2       65.3270   22.5850    9.5590 C.3   101  THR101      0.0379
    121  N         64.4330   19.3840    9.4790 N.am  102  ASP102     -0.1971
    122  CA        63.2610   18.8940    8.7710 C.3   102  ASP102      0.1709
    123  C         62.0510   19.6400    9.2860 C.2   102  ASP102      0.2293
    124  O         62.1410   20.3410   10.3120 O.2   102  ASP102     -0.2864
    125  CB        63.1360   17.3880    8.9160 C.3   102  ASP102      0.1436
    126  CG        62.9400   16.9420   10.3670 C.2   102  ASP102      0.3671
    127  OD1       62.1170   17.5560   11.0630 O.co2 102  ASP102     -0.2456
    128  OD2       63.5550   15.9290   10.7610 O.co2 102  ASP102     -0.2456
    129  N         60.8810   19.1980   13.0550 N.3   105  LYS105     -0.1245
    130  CA        61.6350   19.9870   14.0150 C.3   105  LYS105      0.1561
    131  C         61.3130   21.4580   13.9130 C.2   105  LYS105      0.2260
    132  O         61.0820   22.1120   14.9250 O.2   105  LYS105     -0.2867
    133  CB        63.1210   19.7210   13.8650 C.3   105  LYS105      0.0271
    134  CG        63.4650   18.2900   14.2480 C.3   105  LYS105      0.0035
    135  CD        64.6620   17.7300   13.4760 C.3   105  LYS105      0.0206
    136  CE        65.9690   18.1480   14.1120 C.3   105  LYS105      0.1093
    137  NZ        67.1680   17.9030   13.2750 N.3   105  LYS105     -0.1314
    138  N         58.5540   15.0050    9.1100 N.3   144  SER144     -0.1217
    139  CA        59.9090   14.5020    9.3160 C.3   144  SER144      0.1889
    140  C         60.4860   13.9350    8.0010 C.2   144  SER144      0.2288
    141  O         61.6850   13.7050    7.9120 O.2   144  SER144     -0.2866
    142  CB        59.9570   13.4280   10.4410 C.3   144  SER144      0.2089
    143  OG        59.3180   12.2480    9.9970 O.3   144  SER144     -0.2183
    144  N         62.9540   17.4810    4.4100 N.3   147  LEU147     -0.1245
    145  CA        64.1740   18.1620    4.8320 C.3   147  LEU147      0.1561
    146  C         64.1790   19.6030    4.3460 C.2   147  LEU147      0.2260
    147  O         63.7030   19.8810    3.2600 O.2   147  LEU147     -0.2867
    148  CB        65.4230   17.4640    4.2850 C.3   147  LEU147      0.0270
    149  CG        65.5810   15.9970    4.6270 C.3   147  LEU147      0.0019
    150  CD1       66.6230   15.3710    3.7100 C.3   147  LEU147      0.0001
    151  CD2       65.9710   15.9010    6.0740 C.3   147  LEU147      0.0001
    152  N         62.1130   13.2250    1.3330 N.3   157  CYS157     -0.1221
    153  CA        62.9860   12.0980    1.5340 C.3   157  CYS157      0.1808
    154  C         62.2410   10.8620    2.0090 C.2   157  CYS157      0.2601
    155  O         61.0090   10.8690    2.1980 O.2   157  CYS157     -0.2717
    156  CB        64.0640   12.4520    2.5480 C.3   157  CYS157      0.0970
    157  SG        63.3940   12.7150    4.2170 S.3   157  CYS157     -0.0800
    158  N         63.0090    9.8040    2.2250 N.am  158  ASP158     -0.1973
    159  CA        62.5250    8.5760    2.8440 C.3   158  ASP158      0.1709
    160  C         61.4880    7.8480    1.9750 C.2   158  ASP158      0.2293
    161  O         60.2820    7.7510    2.3050 O.2   158  ASP158     -0.2864
    162  CB        61.9910    8.8470    4.2970 C.3   158  ASP158      0.1436
    163  CG        63.0210    8.4800    5.3950 C.2   158  ASP158      0.3671
    164  OD1       64.0850    7.8750    5.0580 O.co2 158  ASP158     -0.2456
    165  OD2       62.7850    8.8320    6.5930 O.co2 158  ASP158     -0.2456
@<TRIPOS>BOND
     1    67    66    2
     2    66    65    1
     3    88    86   ar
     4    64    65    1
     5    87    86   ar
     6    65    68    1
     7    86    85    1
     8    68    70    1
     9    68    69    1
    10    85    82    1
    11    81    82    1
    12    81    74   am
    13    69    71    1
    14    82    83    1
    15    73    74    1
    16    73    72    1
    17    73    76    1
    18    80    78   am
    19    77    76    1
    20    77    78    1
    21    74    75    2
    22   152   153    1
    23    78    79    2
    24   153   154    1
    25   153   156    1
    26    83    84    2
    27    83    89   am
    28   160   161    2
    29   160   159    1
    30   154   155    2
    31   154   158   am
    32   103   104    1
    33   103   102    1
    34   158   159    1
    35   156   157    1
    36    89    90    1
    37   159   162    1
    38   147   146    2
    39   102   101    1
    40    92    91    2
    41    53    52    2
    42   150   149    1
    43    63    62    1
    44    90    91    1
    45    90    93    1
    46    91    97   am
    47    50    51    1
    48    62    61    1
    49   148   149    1
    50   148   145    1
    51   162   163    1
    52   146   145    1
    53   144   145    1
    54    93    94    1
    55   149   151    1
    56    52    51    1
    57   101    98    1
    58    97    98    1
    59    98    99    1
    60   164   163   ar
    61    61    60    1
    62    54    51    1
    63    60    59    1
    64    58    57    2
    65   163   165   ar
    66    55    56    1
    67    94    96    1
    68    94    95    1
    69    99   105   am
    70    99   100    2
    71    59    56    1
    72    57    56    1
    73   105   106    1
    74   112   111   ar
    75   110   111    1
    76   110   109    1
    77   117   116    2
    78   111   113   ar
    79   141   140    2
    80   109   106    1
    81   140   139    1
    82   106   107    1
    83   114   107   am
    84   114   115    1
    85    48    47    1
    86   122   125    1
    87   122   123    1
    88   122   121    1
    89   116   121   am
    90   116   115    1
    91   125   126    1
    92   107   108    2
    93   138   139    1
    94    42    39    1
    95   123   124    2
    96   139   142    1
    97   120   118    1
    98   115   118    1
    99    49    47    1
   100    20    18    1
   101    47    44    1
   102   143   142    1
   103    40    39    1
   104    40    41    2
   105    38    39    1
   106    38    36   am
   107    44    45    1
   108    44    43    1
   109   126   128   ar
   110   126   127   ar
   111   118   119    1
   112    45    46    2
   113    35    36    1
   114    35    34    1
   115    18    17    1
   116    36    37    2
   117    34    27   am
   118    19    17    1
   119    17    14    1
   120   129   130    1
   121   137   136    1
   122    27    28    2
   123    27    26    1
   124    24    23    2
   125   135   136    1
   126   135   134    1
   127    14    13    1
   128    14    15    1
   129    13     3   am
   130   133   130    1
   131   133   134    1
   132   131   130    1
   133   131   132    2
   134    21    15   am
   135    21    22    1
   136    15    16    2
   137    23    22    1
   138    23    25   am
   139    26    25    1
   140    26    29    1
   141     1     2    1
   142     3     2    1
   143     3     4    2
   144     2     5    1
   145    32    31   ar
   146    29    30    1
   147    31    33   ar
   148    31    30    1
   149     7     9   ar
   150     7     6   ar
   151     5     6    1
   152     9    11   ar
   153     6     8   ar
   154    11    12    1
   155    11    10   ar
   156     8    10   ar
