@<TRIPOS>MOLECULE
tmp/6g58B00.pdb
 138 130 0 0 0
SMALL
GASTEIGER

@<TRIPOS>ATOM
      1  N         12.4500   15.6520   67.0130 N.3    37  VAL37      -0.1245
      2  CA        13.0930   15.7980   65.7240 C.3    37  VAL37       0.1561
      3  C         12.1790   15.2610   64.6390 C.2    37  VAL37       0.2260
      4  O         11.9130   14.0490   64.5750 O.2    37  VAL37      -0.2867
      5  CB        14.4620   15.1050   65.6990 C.3    37  VAL37       0.0252
      6  CG1       15.1070   15.2710   64.3160 C.3    37  VAL37       0.0019
      7  CG2       15.3430   15.7180   66.7710 C.3    37  VAL37       0.0019
      8  N         12.5760   16.2950   61.2640 N.3    39  LYS39      -0.1245
      9  CA        13.2500   16.4800   59.9600 C.3    39  LYS39       0.1561
     10  C         12.8580   15.3600   58.9700 C.2    39  LYS39       0.2260
     11  O         12.3840   14.2720   59.3430 O.2    39  LYS39      -0.2867
     12  CB        14.7780   16.5330   60.1370 C.3    39  LYS39       0.0271
     13  CG        15.4590   15.1880   60.4230 C.3    39  LYS39       0.0035
     14  CD        16.8570   15.3660   60.9820 C.3    39  LYS39       0.0206
     15  CE        17.7660   14.0890   60.9270 C.3    39  LYS39       0.1093
     16  NZ        18.5630   14.4400   62.0370 N.3    39  LYS39      -0.1314
     17  N         10.8390   11.5190   59.1700 N.3    43  TYR43      -0.1241
     18  CA        11.4540   10.2620   58.7640 C.3    43  TYR43       0.1605
     19  C         10.4520    9.4600   57.8770 C.2    43  TYR43       0.2264
     20  O         10.3460    8.2320   57.9720 O.2    43  TYR43      -0.2867
     21  CB        11.9340    9.4430   59.9820 C.3    43  TYR43       0.0534
     22  CG        13.0790   10.0100   60.8320 C.ar   43  TYR43      -0.0201
     23  CD1       13.1730   11.3400   61.1220 C.ar   43  TYR43      -0.0009
     24  CD2       13.9980    9.1860   61.4290 C.ar   43  TYR43      -0.0009
     25  CE1       14.1670   11.8450   61.9520 C.ar   43  TYR43       0.0417
     26  CE2       15.0180    9.7000   62.2280 C.ar   43  TYR43       0.0417
     27  CZ        15.0880   11.0230   62.4990 C.ar   43  TYR43       0.1957
     28  OH        16.0630   11.6310   63.3090 O.3    43  TYR43      -0.2866
     29  N         18.2920   22.8270   62.1210 N.3    85  LEU85      -0.1245
     30  CA        19.6000   22.1950   62.4630 C.3    85  LEU85       0.1561
     31  C         20.6940   22.3930   61.4190 C.2    85  LEU85       0.2260
     32  O         21.8710   22.3280   61.7540 O.2    85  LEU85      -0.2867
     33  CB        19.3790   20.7090   62.6620 C.3    85  LEU85       0.0270
     34  CG        18.4560   20.3540   63.8370 C.3    85  LEU85       0.0019
     35  CD1       18.0660   18.8990   63.7170 C.3    85  LEU85       0.0001
     36  CD2       19.0540   20.6830   65.1890 C.3    85  LEU85       0.0001
     37  N         26.0690   25.8360   67.4790 N.3   131  LYS131     -0.1245
     38  CA        26.4380   24.4470   67.3450 C.3   131  LYS131      0.1561
     39  C         27.9220   24.2690   67.5860 C.2   131  LYS131      0.2260
     40  O         28.7540   24.8920   66.9030 O.2   131  LYS131     -0.2867
     41  CB        26.1170   23.9490   65.9290 C.3   131  LYS131      0.0271
     42  CG        26.3710   22.4720   65.6820 C.3   131  LYS131      0.0035
     43  CD        26.2280   22.2330   64.1730 C.3   131  LYS131      0.0206
     44  CE        26.2920   20.7700   63.8150 C.3   131  LYS131      0.1093
     45  NZ        26.4280   20.5610   62.3130 N.3   131  LYS131     -0.1314
     46  N         31.3750   17.5530   61.4530 N.3   138  ARG138     -0.1245
     47  CA        30.6720   18.2420   60.3550 C.3   138  ARG138      0.1563
     48  C         30.8650   19.7460   60.6160 C.2   138  ARG138      0.2260
     49  O         31.9370   20.1580   61.0830 O.2   138  ARG138     -0.2867
     50  CB        29.2060   17.7710   60.2640 C.3   138  ARG138      0.0307
     51  CG        29.1150   16.2800   59.9510 C.3   138  ARG138      0.0489
     52  CD        27.6830   15.7970   59.7380 C.3   138  ARG138      0.2205
     53  NE        26.8010   16.1360   60.8720 N.pl3 138  ARG138     -0.0865
     54  CZ        25.4950   15.8350   60.9470 C.cat 138  ARG138      0.5346
     55  NH1       24.8680   15.1900   59.9670 N.pl3 138  ARG138      0.1354
     56  NH2       24.7900   16.1990   62.0130 N.pl3 138  ARG138      0.1354
     57  N         24.3370   23.6030   71.5180 N.3   166  PHE166     -0.1241
     58  CA        24.2230   22.1820   71.3460 C.3   166  PHE166      0.1605
     59  C         25.4160   21.5290   70.6600 C.2   166  PHE166      0.2264
     60  O         26.2550   22.1970   70.0420 O.2   166  PHE166     -0.2867
     61  CB        22.9120   21.8490   70.6270 C.3   166  PHE166      0.0534
     62  CG        22.8750   22.1420   69.1410 C.ar  166  PHE166     -0.0203
     63  CD1       22.6140   23.4270   68.6720 C.ar  166  PHE166     -0.0042
     64  CD2       22.9410   21.1180   68.2180 C.ar  166  PHE166     -0.0042
     65  CE1       22.4940   23.6840   67.3180 C.ar  166  PHE166     -0.0003
     66  CE2       22.8110   21.3670   66.8400 C.ar  166  PHE166     -0.0003
     67  CZ        22.5790   22.6540   66.3910 C.ar  166  PHE166     -0.0000
     68  N         26.3420   17.1690   69.0390 N.3   168  HIS168     -0.1241
     69  CA        25.7430   15.9440   68.5180 C.3   168  HIS168      0.1621
     70  C         26.7620   14.8230   68.6050 C.2   168  HIS168      0.2264
     71  O         27.9350   15.0040   68.2640 O.2   168  HIS168     -0.2867
     72  CB        25.3330   16.1680   67.0840 C.3   168  HIS168      0.0745
     73  CG        24.4520   15.1060   66.5110 C.ar  168  HIS168      0.0817
     74  ND1       23.2330   14.7760   67.0610 N.ar  168  HIS168     -0.2268
     75  CD2       24.5730   14.3620   65.3780 C.ar  168  HIS168      0.1154
     76  CE1       22.6620   13.8370   66.3200 C.ar  168  HIS168      0.1986
     77  NE2       23.4570   13.5620   65.2950 N.ar  168  HIS168     -0.2212
     78  N         20.6520   12.6690   71.0680 N.3   203  ASN203     -0.1225
     79  CA        19.7850   12.0690   70.0580 C.3   203  ASN203      0.1785
     80  C         19.0330   10.9010   70.7260 C.2   203  ASN203      0.2598
     81  O         19.0440   10.7890   71.9610 O.2   203  ASN203     -0.2718
     82  CB        20.5900   11.6600   68.7830 C.3   203  ASN203      0.1169
     83  CG        21.7700   10.7120   69.0970 C.2   203  ASN203      0.2627
     84  OD1       21.9600   10.2980   70.2560 O.2   203  ASN203     -0.2716
     85  ND2       22.5760   10.4040   68.0920 N.am  203  ASN203     -0.0877
     86  N         18.3760   10.0320   69.9520 N.am  204  SER204     -0.1938
     87  CA        17.6630    8.9090   70.5400 C.3   204  SER204      0.2055
     88  C         18.5830    8.0520   71.4020 C.2   204  SER204      0.2642
     89  O         18.2290    7.6740   72.5490 O.2   204  SER204     -0.2714
     90  CB        16.9670    8.0260   69.4670 C.3   204  SER204      0.2130
     91  OG        15.9080    8.7350   68.8330 O.3   204  SER204     -0.2179
     92  N         19.7260    7.6890   70.8450 N.am  205  ALA205     -0.1977
     93  CA        20.6640    6.8000   71.5520 C.3   205  ALA205      0.1597
     94  C         21.1530    7.4490   72.8500 C.2   205  ALA205      0.2287
     95  O         21.1540    6.8310   73.9340 O.2   205  ALA205     -0.2864
     96  CB        21.8520    6.4480   70.6720 C.3   205  ALA205      0.0319
     97  N         16.9460   15.6850   71.9770 N.3   219  ARG219     -0.1245
     98  CA        16.5560   15.7050   70.5650 C.3   219  ARG219      0.1563
     99  C         16.3640   14.3020   70.0140 C.2   219  ARG219      0.2260
    100  O         17.1100   13.8680   69.1550 O.2   219  ARG219     -0.2867
    101  CB        17.6110   16.3980   69.7280 C.3   219  ARG219      0.0307
    102  CG        17.8760   17.8330   70.0380 C.3   219  ARG219      0.0489
    103  CD        18.7080   18.4980   68.9110 C.3   219  ARG219      0.2205
    104  NE        19.9150   17.7280   68.6160 N.pl3 219  ARG219     -0.0865
    105  CZ        21.0520   17.7630   69.3000 C.cat 219  ARG219      0.5346
    106  NH1       21.2020   18.5330   70.3760 N.pl3 219  ARG219      0.1354
    107  NH2       22.0420   16.9800   68.9310 N.pl3 219  ARG219      0.1354
    108  N         14.8080   11.5650   67.6130 N.3   221  GLY221     -0.1210
    109  CA        14.1540   11.4180   66.3340 C.3   221  GLY221      0.1956
    110  C         13.6110   10.0040   66.1700 C.2   221  GLY221      0.2611
    111  O         12.4580    9.7300   66.4810 O.2   221  GLY221     -0.2717
    112  N         14.4540    9.0790   65.7170 N.am  222  ILE222     -0.1979
    113  CA        13.9600    7.7740   65.3030 C.3   222  ILE222      0.1595
    114  C         13.1890    7.0110   66.3790 C.2   222  ILE222      0.2287
    115  O         12.2440    6.2770   66.0570 O.2   222  ILE222     -0.2864
    116  CB        15.0880    6.8730   64.7100 C.3   222  ILE222      0.0276
    117  CG1       14.4210    5.8390   63.7520 C.3   222  ILE222      0.0022
    118  CG2       15.9820    6.3330   65.7890 C.3   222  ILE222      0.0022
    119  CD1       15.3520    4.8860   63.1470 C.3   222  ILE222      0.0001
    120  N         17.8190    3.0080   67.7260 N.3   229  PRO229     -0.2116
    121  CA        18.8390    3.4540   66.8140 C.3   229  PRO229      0.1372
    122  C         19.8450    2.4010   66.4030 C.2   229  PRO229      0.2244
    123  O         20.4780    2.5580   65.3720 O.2   229  PRO229     -0.2868
    124  CB        19.5490    4.5940   67.5490 C.3   229  PRO229      0.0268
    125  CG        19.0510    4.5830   68.9340 C.3   229  PRO229      0.0207
    126  CD        17.8530    3.7210   69.0140 C.3   229  PRO229      0.0892
    127  N         16.6700    3.9220   59.5050 N.3   354  TYR354     -0.1241
    128  CA        16.4490    5.3130   59.1000 C.3   354  TYR354      0.1605
    129  C         16.1840    5.4490   57.5780 C.2   354  TYR354      0.2264
    130  O         15.2680    6.1620   57.1600 O.2   354  TYR354     -0.2867
    131  CB        17.6500    6.2020   59.4150 C.3   354  TYR354      0.0534
    132  CG        18.0910    6.3290   60.8700 C.ar  354  TYR354     -0.0201
    133  CD1       18.8950    5.3520   61.4790 C.ar  354  TYR354     -0.0009
    134  CD2       17.7930    7.4680   61.5970 C.ar  354  TYR354     -0.0009
    135  CE1       19.3200    5.4920   62.8140 C.ar  354  TYR354      0.0417
    136  CE2       18.2300    7.6330   62.9030 C.ar  354  TYR354      0.0417
    137  CZ        18.9720    6.6320   63.5190 C.ar  354  TYR354      0.1957
    138  OH        19.4100    6.8270   64.7970 O.3   354  TYR354     -0.2866
@<TRIPOS>BOND
     1   130   129    2
     2   129   128    1
     3    19    20    2
     4    19    18    1
     5    18    17    1
     6    18    21    1
     7    10    11    2
     8    10     9    1
     9   128   131    1
    10   128   127    1
    11   131   132    1
    12    52    51    1
    13    52    53    1
    14    51    50    1
    15     9    12    1
    16     9     8    1
    17    55    54    1
    18    21    22    1
    19    12    13    1
    20    50    47    1
    21    47    48    1
    22    47    46    1
    23    13    14    1
    24    48    49    2
    25    22    23   ar
    26    22    24   ar
    27   132   133   ar
    28   132   134   ar
    29    53    54    2
    30    15    14    1
    31    15    16    1
    32    54    56    1
    33    23    25   ar
    34    31    32    2
    35    31    30    1
    36    24    26   ar
    37   133   135   ar
    38   134   136   ar
    39    25    27   ar
    40    29    30    1
    41    26    27   ar
    42    45    44    1
    43    30    33    1
    44    27    28    1
    45    33    34    1
    46   135   137   ar
    47   136   137   ar
    48   119   117    1
    49   137   138    1
    50    35    34    1
    51   117   116    1
    52    44    43    1
    53    34    36    1
    54    43    42    1
    55     6     5    1
    56     4     3    2
    57     3     2    1
    58   116   113    1
    59   116   118    1
    60    77    75   ar
    61    77    76   ar
    62   113   112    1
    63   113   114    1
    64   123   122    2
    65    75    73   ar
    66    42    41    1
    67     5     2    1
    68     5     7    1
    69   112   110   am
    70     2     1    1
    71    41    38    1
    72   115   114    2
    73   110   109    1
    74   110   111    2
    75    76    74   ar
    76   109   108    1
    77    67    66   ar
    78    67    65   ar
    79   122   121    1
    80    73    74   ar
    81    73    72    1
    82   121   124    1
    83   121   120    1
    84    66    64   ar
    85    40    39    2
    86    72    69    1
    87    65    63   ar
    88    38    37    1
    89    38    39    1
    90   124   125    1
    91   120   126    1
    92    85    83   am
    93    64    62   ar
    94    71    70    2
    95    69    70    1
    96    69    68    1
    97   104   103    1
    98   104   105    2
    99    63    62   ar
   100    82    83    1
   101    82    79    1
   102    91    90    1
   103   103   102    1
   104   107   105    1
   105   125   126    1
   106    83    84    2
   107    62    61    1
   108   100    99    2
   109   105   106    1
   110    90    87    1
   111   101   102    1
   112   101    98    1
   113    86    87    1
   114    86    80   am
   115    99    98    1
   116    60    59    2
   117    79    80    1
   118    79    78    1
   119    87    88    1
   120    98    97    1
   121    61    58    1
   122    59    58    1
   123    96    93    1
   124    80    81    2
   125    92    88   am
   126    92    93    1
   127    58    57    1
   128    88    89    2
   129    93    94    1
   130    94    95    2
