@<TRIPOS>MOLECULE
tmp/6g59A00.pdb
 133 125 0 0 0
SMALL
GASTEIGER

@<TRIPOS>ATOM
      1  N          5.2130    8.2910   28.5810 N.3    42  VAL42      -0.1245
      2  CA         5.0470    7.6940   29.9020 C.3    42  VAL42       0.1561
      3  C          5.5960    8.6490   30.9630 C.2    42  VAL42       0.2260
      4  O          6.8060    8.9010   31.0110 O.2    42  VAL42      -0.2867
      5  CB         5.7110    6.3110   29.9940 C.3    42  VAL42       0.0252
      6  CG1        5.4010    5.6610   31.3450 C.3    42  VAL42       0.0019
      7  CG2        5.2280    5.4150   28.8550 C.3    42  VAL42       0.0019
      8  N          4.6120    8.3000   34.3990 N.3    44  LYS44      -0.1245
      9  CA         4.4060    7.6860   35.7150 C.3    44  LYS44       0.1561
     10  C          5.5410    8.0040   36.6930 C.2    44  LYS44       0.2260
     11  O          6.6220    8.4700   36.2960 O.2    44  LYS44      -0.2867
     12  CB         4.2850    6.1730   35.5750 C.3    44  LYS44       0.0271
     13  CG         5.5790    5.4560   35.2170 C.3    44  LYS44       0.0035
     14  CD         5.3260    4.0970   34.5830 C.3    44  LYS44       0.0206
     15  CE         6.6030    3.2800   34.5350 C.3    44  LYS44       0.1093
     16  NZ         6.3840    1.9530   33.9540 N.3    44  LYS44      -0.1314
     17  N          9.3430    9.9300   36.3880 N.3    48  TYR48      -0.1241
     18  CA        10.6050    9.3250   36.8070 C.3    48  TYR48       0.1605
     19  C         11.3990   10.3060   37.6940 C.2    48  TYR48       0.2264
     20  O         12.6260   10.3790   37.5890 O.2    48  TYR48      -0.2867
     21  CB        11.4240    8.8500   35.5780 C.3    48  TYR48       0.0534
     22  CG        10.8240    7.6970   34.7620 C.ar   48  TYR48      -0.0201
     23  CD1        9.5050    7.7120   34.3270 C.ar   48  TYR48      -0.0009
     24  CD2       11.6120    6.6300   34.3620 C.ar   48  TYR48      -0.0009
     25  CE1        8.9840    6.6910   33.5630 C.ar   48  TYR48       0.0417
     26  CE2       11.0980    5.6020   33.5940 C.ar   48  TYR48       0.0417
     27  CZ         9.7810    5.6390   33.2010 C.ar   48  TYR48       0.1957
     28  OH         9.2650    4.6240   32.4300 O.3    48  TYR48      -0.2866
     29  N         -1.9780    2.4740   33.5790 N.3    90  LEU90      -0.1245
     30  CA        -1.3800    1.1720   33.2440 C.3    90  LEU90       0.1561
     31  C         -1.5880    0.1130   34.3110 C.2    90  LEU90       0.2260
     32  O         -1.5890   -1.0700   34.0070 O.2    90  LEU90      -0.2867
     33  CB         0.1260    1.3220   32.9990 C.3    90  LEU90       0.0270
     34  CG         0.5240    2.2270   31.8330 C.3    90  LEU90       0.0019
     35  CD1        2.0020    2.5860   31.9060 C.3    90  LEU90       0.0001
     36  CD2        0.1640    1.5630   30.4890 C.3    90  LEU90       0.0001
     37  N         -5.1760   -5.2370   28.3260 N.3   136  LYS136     -0.1245
     38  CA        -3.7870   -5.6680   28.4680 C.3   136  LYS136      0.1561
     39  C         -3.7120   -7.1420   28.0990 C.2   136  LYS136      0.2260
     40  O         -4.4700   -7.9430   28.6450 O.2   136  LYS136     -0.2867
     41  CB        -3.3200   -5.4540   29.9050 C.3   136  LYS136      0.0271
     42  CG        -1.9240   -5.9500   30.2680 C.3   136  LYS136      0.0035
     43  CD        -0.8180   -5.0300   29.7840 C.3   136  LYS136      0.0206
     44  CE         0.5470   -5.4550   30.3450 C.3   136  LYS136      0.1093
     45  NZ         1.2070   -6.5520   29.5490 N.3   136  LYS136     -0.1314
     46  N          3.1760  -10.8830   33.9120 N.3   143  ARG143     -0.1245
     47  CA         2.7050   -9.8910   34.8590 C.3   143  ARG143      0.1563
     48  C          1.2020   -9.7580   34.6540 C.2   143  ARG143      0.2260
     49  O          0.4830  -10.7470   34.6940 O.2   143  ARG143     -0.2867
     50  CB         3.4200   -8.5780   34.5650 C.3   143  ARG143      0.0307
     51  CG         3.5700   -7.5750   35.7060 C.3   143  ARG143      0.0489
     52  CD         4.4350   -6.3780   35.2970 C.3   143  ARG143      0.2205
     53  NE         4.6730   -6.3160   33.8510 N.pl3 143  ARG143     -0.0865
     54  CZ         3.7190   -6.1920   32.9350 C.cat 143  ARG143      0.5346
     55  NH1        2.4530   -6.0820   33.2960 N.pl3 143  ARG143      0.1354
     56  NH2        4.0340   -6.1720   31.6590 N.pl3 143  ARG143      0.1354
     57  N         -3.0020   -3.6750   24.2100 N.3   171  PHE171     -0.1241
     58  CA        -1.5640   -3.5520   24.3800 C.3   171  PHE171      0.1605
     59  C         -0.9030   -4.7120   25.0990 C.2   171  PHE171      0.2264
     60  O         -1.5670   -5.5220   25.7430 O.2   171  PHE171     -0.2867
     61  CB        -1.1840   -2.2000   25.0210 C.3   171  PHE171      0.0534
     62  CG        -1.5400   -2.0510   26.4780 C.ar  171  PHE171     -0.0203
     63  CD1       -2.8640   -1.9420   26.8940 C.ar  171  PHE171     -0.0042
     64  CD2       -0.5360   -1.9370   27.4480 C.ar  171  PHE171     -0.0042
     65  CE1       -3.1780   -1.7670   28.2390 C.ar  171  PHE171     -0.0003
     66  CE2       -0.8490   -1.7600   28.7900 C.ar  171  PHE171     -0.0003
     67  CZ        -2.1660   -1.6740   29.1840 C.ar  171  PHE171     -0.0000
     68  N          3.4220   -5.7090   26.7840 N.3   173  HIS173     -0.1241
     69  CA         4.6620   -5.1300   27.2840 C.3   173  HIS173      0.1621
     70  C          5.7760   -6.1610   27.2180 C.2   173  HIS173      0.2264
     71  O          5.5600   -7.3320   27.5680 O.2   173  HIS173     -0.2867
     72  CB         4.4390   -4.6410   28.7110 C.3   173  HIS173      0.0745
     73  CG         5.4950   -3.7110   29.2250 C.ar  173  HIS173      0.0817
     74  ND1        6.0280   -2.6770   28.4820 N.ar  173  HIS173     -0.2268
     75  CD2        6.0790   -3.6280   30.4480 C.ar  173  HIS173      0.1154
     76  CE1        6.9100   -2.0160   29.2160 C.ar  173  HIS173      0.1986
     77  NE2        6.9630   -2.5750   30.4110 N.ar  173  HIS173     -0.2212
     78  N          8.0010   -0.0470   24.6310 N.3   208  ASN208     -0.1225
     79  CA         8.6350    0.8790   25.5880 C.3   208  ASN208      0.1785
     80  C          9.7960    1.6390   24.8890 C.2   208  ASN208      0.2597
     81  O          9.8940    1.6140   23.6520 O.2   208  ASN208     -0.2718
     82  CB         9.1000    0.1180   26.8470 C.3   208  ASN208      0.1169
     83  CG         9.9640   -1.0940   26.5270 C.2   208  ASN208      0.2627
     84  OD1       10.4510   -1.2690   25.3960 O.2   208  ASN208     -0.2716
     85  ND2       10.1070   -1.9700   27.5020 N.am  208  ASN208     -0.0877
     86  N         10.6570    2.3190   25.6570 N.am  209  SER209     -0.1952
     87  CA        11.8260    3.0190   25.0920 C.3   209  SER209      0.1924
     88  C         12.7060    2.1060   24.2220 C.2   209  SER209      0.2314
     89  O         13.1270    2.4740   23.1240 O.2   209  SER209     -0.2863
     90  CB        12.6850    3.6380   26.2150 C.3   209  SER209      0.2116
     91  OG        12.0480    4.7450   26.8580 O.3   209  SER209     -0.2180
     92  N          5.0330    3.7640   23.6710 N.3   224  ARG224     -0.1245
     93  CA         5.0050    4.1730   25.0830 C.3   224  ARG224      0.1563
     94  C          6.4090    4.3770   25.6390 C.2   224  ARG224      0.2260
     95  O          6.8320    3.6340   26.5150 O.2   224  ARG224     -0.2867
     96  CB         4.2680    3.1240   25.9220 C.3   224  ARG224      0.0307
     97  CG         2.7940    2.9340   25.5800 C.3   224  ARG224      0.0489
     98  CD         2.0940    2.1540   26.6840 C.3   224  ARG224      0.2205
     99  NE         2.8820    0.9790   27.0500 N.pl3 224  ARG224     -0.0865
    100  CZ         2.9430   -0.1640   26.3590 C.cat 224  ARG224      0.5346
    101  NH1        2.2220   -0.3610   25.2590 N.pl3 224  ARG224      0.1354
    102  NH2        3.7110   -1.1440   26.7920 N.pl3 224  ARG224      0.1354
    103  N          9.2930    5.7840   27.9550 N.3   226  GLY226     -0.1210
    104  CA         9.4470    6.3710   29.2840 C.3   226  GLY226      0.1956
    105  C         10.8200    6.9820   29.4660 C.2   226  GLY226      0.2611
    106  O         11.0520    8.1400   29.0940 O.2   226  GLY226     -0.2717
    107  N         11.7370    6.1990   30.0200 N.am  227  ILE227     -0.1979
    108  CA        13.0220    6.7180   30.4380 C.3   227  ILE227      0.1595
    109  C         13.8120    7.4670   29.3560 C.2   227  ILE227      0.2287
    110  O         14.5400    8.4090   29.6800 O.2   227  ILE227     -0.2864
    111  CB        13.9140    5.6140   31.0690 C.3   227  ILE227      0.0276
    112  CG1       15.0130    6.2700   31.9130 C.3   227  ILE227      0.0022
    113  CG2       14.4920    4.6940   30.0060 C.3   227  ILE227      0.0022
    114  CD1       15.8400    5.3060   32.7100 C.3   227  ILE227      0.0001
    115  N         17.7860    2.7170   28.0220 N.3   234  PRO234     -0.2116
    116  CA        17.3250    1.6990   28.9750 C.3   234  PRO234      0.1372
    117  C         18.3590    0.6210   29.3440 C.2   234  PRO234      0.2244
    118  O         18.1610   -0.0650   30.3330 O.2   234  PRO234     -0.2868
    119  CB        16.1030    1.0860   28.2700 C.3   234  PRO234      0.0268
    120  CG        16.3350    1.3190   26.8210 C.3   234  PRO234      0.0207
    121  CD        17.0800    2.6170   26.7260 C.3   234  PRO234      0.0892
    122  N         16.9530    3.8510   36.2390 N.3   359  TYR359     -0.1241
    123  CA        15.5430    4.0590   36.6090 C.3   359  TYR359      0.1605
    124  C         15.3640    4.3200   38.1210 C.2   359  TYR359      0.2264
    125  O         14.6220    5.2260   38.5390 O.2   359  TYR359     -0.2867
    126  CB        14.7170    2.8090   36.2680 C.3   359  TYR359      0.0534
    127  CG        14.5510    2.4050   34.7980 C.ar  359  TYR359     -0.0201
    128  CD1       15.4830    1.5920   34.1460 C.ar  359  TYR359     -0.0009
    129  CD2       13.4090    2.7740   34.0880 C.ar  359  TYR359     -0.0009
    130  CE1       15.2980    1.2150   32.8130 C.ar  359  TYR359      0.0417
    131  CE2       13.2190    2.4000   32.7770 C.ar  359  TYR359      0.0417
    132  CZ        14.1570    1.6170   32.1430 C.ar  359  TYR359      0.1957
    133  OH        13.9350    1.2690   30.8410 O.3   359  TYR359     -0.2866
@<TRIPOS>BOND
     1    89    88    2
     2    81    80    2
     3    92    93    1
     4    57    58    1
     5    88    87    1
     6    58    61    1
     7    58    59    1
     8    78    79    1
     9    80    79    1
    10    80    86   am
    11    61    62    1
    12    93    94    1
    13    93    96    1
    14    87    86    1
    15    87    90    1
    16    59    60    2
    17   101   100    1
    18    84    83    2
    19    97    96    1
    20    97    98    1
    21    79    82    1
    22    94    95    2
    23    90    91    1
    24   100   102    1
    25   100    99    2
    26    62    63   ar
    27    62    64   ar
    28    83    82    1
    29    83    85   am
    30    98    99    1
    31   121   120    1
    32   121   115    1
    33    68    69    1
    34   120   119    1
    35    63    65   ar
    36    70    69    1
    37    70    71    2
    38    69    72    1
    39    64    66   ar
    40   103   104    1
    41   115   116    1
    42    39    38    1
    43    39    40    2
    44    65    67   ar
    45   119   116    1
    46    37    38    1
    47    38    41    1
    48    74    76   ar
    49    74    73   ar
    50     1     2    1
    51    72    73    1
    52    66    67   ar
    53     7     5    1
    54   116   117    1
    55   106   105    2
    56    76    77   ar
    57    73    75   ar
    58   104   105    1
    59   117   118    2
    60   109   110    2
    61   109   108    1
    62   105   107   am
    63    45    44    1
    64    43    42    1
    65    43    44    1
    66     2     5    1
    67     2     3    1
    68    41    42    1
    69     5     6    1
    70   113   111    1
    71   107   108    1
    72    77    75   ar
    73   108   111    1
    74    36    34    1
    75   133   132    1
    76     3     4    2
    77   111   112    1
    78    56    54    1
    79    34    35    1
    80    34    33    1
    81   112   114    1
    82   132   131   ar
    83   132   130   ar
    84    28    27    1
    85   131   129   ar
    86   130   128   ar
    87    54    55    1
    88    54    53    2
    89    33    30    1
    90    27    25   ar
    91    27    26   ar
    92    30    29    1
    93    30    31    1
    94    25    23   ar
    95    26    24   ar
    96    53    52    1
    97    46    47    1
    98    16    15    1
    99    32    31    2
   100   129   127   ar
   101   128   127   ar
   102    23    22   ar
   103    24    22   ar
   104     8     9    1
   105    15    14    1
   106    50    47    1
   107    50    51    1
   108    14    13    1
   109    48    49    2
   110    48    47    1
   111    22    21    1
   112   127   126    1
   113    13    12    1
   114    52    51    1
   115    12     9    1
   116    21    18    1
   117     9    10    1
   118   122   123    1
   119   126   123    1
   120    11    10    2
   121    17    18    1
   122   123   124    1
   123    18    19    1
   124    20    19    2
   125   124   125    2
