@<TRIPOS>MOLECULE
tmp/6g5gB00.pdb
 128 120 0 0 0
SMALL
GASTEIGER

@<TRIPOS>ATOM
      1  N         24.5010   48.8740   28.8300 N.3   174  ILE174     -0.1231
      2  CA        24.9370   50.1640   28.2900 C.3   174  ILE174      0.1692
      3  C         23.8900   50.6400   27.2840 C.2   174  ILE174      0.2593
      4  O         23.6070   49.9430   26.3240 O.2   174  ILE174     -0.2718
      5  CB        26.2780   50.0300   27.5360 C.3   174  ILE174      0.0266
      6  CG1       27.3480   49.3670   28.4070 C.3   174  ILE174      0.0019
      7  CG2       26.7310   51.3820   26.9930 C.3   174  ILE174      0.0020
      8  CD1       27.4370   49.9100   29.8130 C.3   174  ILE174      0.0001
      9  N         23.3290   51.8300   27.4710 N.am  175  SER175     -0.1938
     10  CA        22.2400   52.2790   26.5930 C.3   175  SER175      0.2055
     11  C         22.7100   52.4220   25.1490 C.2   175  SER175      0.2642
     12  O         22.1250   51.8350   24.2450 O.2   175  SER175     -0.2714
     13  CB        21.6010   53.5880   27.0920 C.3   175  SER175      0.2130
     14  OG        22.5500   54.4910   27.6350 O.3   175  SER175     -0.2179
     15  N         23.7690   53.1970   24.9580 N.am  176  LEU176     -0.1977
     16  CA        24.3140   53.5030   23.6440 C.3   176  LEU176      0.1596
     17  C         25.7940   53.6780   23.8490 C.2   176  LEU176      0.2287
     18  O         26.2380   54.0450   24.9270 O.2   176  LEU176     -0.2864
     19  CB        23.7420   54.8020   23.0750 C.3   176  LEU176      0.0297
     20  CG        24.1370   55.1210   21.6120 C.3   176  LEU176      0.0022
     21  CD1       23.2630   54.3460   20.6350 C.3   176  LEU176      0.0001
     22  CD2       24.0820   56.6160   21.2890 C.3   176  LEU176      0.0001
     23  N         34.6150   50.5930   29.2690 N.3   200  PHE200     -0.1241
     24  CA        33.5040   51.4610   29.5760 C.3   200  PHE200      0.1605
     25  C         32.4840   50.7710   30.4770 C.2   200  PHE200      0.2264
     26  O         31.8600   51.4210   31.3200 O.2   200  PHE200     -0.2867
     27  CB        32.8240   51.9400   28.2950 C.3   200  PHE200      0.0534
     28  CG        31.8010   52.9960   28.5280 C.ar  200  PHE200     -0.0203
     29  CD1       32.1750   54.3280   28.6060 C.ar  200  PHE200     -0.0042
     30  CD2       30.4760   52.6690   28.6890 C.ar  200  PHE200     -0.0042
     31  CE1       31.2380   55.3150   28.8210 C.ar  200  PHE200     -0.0003
     32  CE2       29.5270   53.6500   28.9330 C.ar  200  PHE200     -0.0003
     33  CZ        29.9130   54.9770   28.9970 C.ar  200  PHE200     -0.0000
     34  N         31.6810   56.7230   32.1000 N.3   205  ALA205     -0.1245
     35  CA        32.0660   58.0030   31.5080 C.3   205  ALA205      0.1562
     36  C         33.4440   58.5060   31.9140 C.2   205  ALA205      0.2260
     37  O         34.1030   59.2070   31.1410 O.2   205  ALA205     -0.2867
     38  CB        31.0160   59.0630   31.8500 C.3   205  ALA205      0.0290
     39  N         24.6700   62.0900   21.2790 N.3   330  ASN330     -0.1225
     40  CA        23.8130   61.4580   22.2820 C.3   330  ASN330      0.1785
     41  C         24.6340   60.6590   23.2800 C.2   330  ASN330      0.2597
     42  O         24.4030   60.7350   24.4670 O.2   330  ASN330     -0.2718
     43  CB        22.7750   60.5310   21.6280 C.3   330  ASN330      0.1169
     44  CG        21.6400   61.2920   20.9740 C.2   330  ASN330      0.2627
     45  OD1       21.2670   61.0000   19.8460 O.2   330  ASN330     -0.2716
     46  ND2       21.0920   62.2730   21.6750 N.am  330  ASN330     -0.0877
     47  N         25.5990   59.8910   22.7980 N.am  331  PHE331     -0.1976
     48  CA        26.4210   59.0910   23.6840 C.3   331  PHE331      0.1639
     49  C         27.2080   59.9730   24.6550 C.2   331  PHE331      0.2290
     50  O         27.2010   59.7460   25.8610 O.2   331  PHE331     -0.2864
     51  CB        27.3860   58.2070   22.8700 C.3   331  PHE331      0.0560
     52  CG        28.4140   57.5070   23.7140 C.ar  331  PHE331     -0.0200
     53  CD1       28.0250   56.6730   24.7400 C.ar  331  PHE331     -0.0042
     54  CD2       29.7650   57.7050   23.5030 C.ar  331  PHE331     -0.0042
     55  CE1       28.9580   56.0350   25.5430 C.ar  331  PHE331     -0.0003
     56  CE2       30.7040   57.0710   24.3060 C.ar  331  PHE331     -0.0003
     57  CZ        30.2950   56.2310   25.3270 C.ar  331  PHE331     -0.0000
     58  N         25.1640   61.8250   27.2320 N.3   334  GLY334     -0.1210
     59  CA        24.7740   60.8630   28.2600 C.3   334  GLY334      0.1956
     60  C         25.8890   60.5880   29.2410 C.2   334  GLY334      0.2612
     61  O         25.6550   60.5040   30.4560 O.2   334  GLY334     -0.2717
     62  N         27.1110   60.4520   28.7230 N.am  335  CYS335     -0.1970
     63  CA        28.2830   60.3460   29.5770 C.3   335  CYS335      0.1712
     64  C         28.4240   61.5450   30.5130 C.2   335  CYS335      0.2296
     65  O         28.7870   61.3960   31.6840 O.2   335  CYS335     -0.2864
     66  CB        29.5690   60.2130   28.7560 C.3   335  CYS335      0.0983
     67  SG        29.7770   58.6360   27.9070 S.3   335  CYS335     -0.0798
     68  N         25.7750   61.4340   33.1050 N.3   338  SER338     -0.1217
     69  CA        26.0700   60.3140   33.9750 C.3   338  SER338      0.1889
     70  C         27.0860   60.7200   35.0250 C.2   338  SER338      0.2288
     71  O         26.9750   60.3270   36.1920 O.2   338  SER338     -0.2866
     72  CB        26.5740   59.1070   33.1610 C.3   338  SER338      0.2089
     73  OG        27.0810   58.1150   34.0130 O.3   338  SER338     -0.2183
     74  N         26.0870   60.5550   38.8900 N.3   342  LYS342     -0.1245
     75  CA        26.6760   59.4470   39.6360 C.3   342  LYS342      0.1561
     76  C         27.9100   59.8080   40.3950 C.2   342  LYS342      0.2260
     77  O         28.1570   59.2180   41.4360 O.2   342  LYS342     -0.2867
     78  CB        27.0050   58.2770   38.7170 C.3   342  LYS342      0.0271
     79  CG        25.7540   57.6530   38.1670 C.3   342  LYS342      0.0035
     80  CD        26.0310   56.4930   37.2610 C.3   342  LYS342      0.0206
     81  CE        24.7070   55.8460   36.8990 C.3   342  LYS342      0.1093
     82  NZ        24.9580   54.7910   35.8890 N.3   342  LYS342     -0.1314
     83  N         19.1440   66.9920   27.2140 N.3   409  MET409     -0.1245
     84  CA        20.0260   65.8460   27.4840 C.3   409  MET409      0.1570
     85  C         19.7830   65.2510   28.8770 C.2   409  MET409      0.2261
     86  O         19.8920   64.0390   29.0740 O.2   409  MET409     -0.2867
     87  CB        21.5130   66.1430   27.1960 C.3   409  MET409      0.0387
     88  CG        22.2930   66.9520   28.2120 C.3   409  MET409      0.0595
     89  SD        23.9450   67.5080   27.6390 S.3   409  MET409     -0.1393
     90  CE        23.4520   68.5640   26.3370 C.3   409  MET409      0.0692
     91  N         16.4890   63.2270   28.3810 N.3   412  LYS412     -0.1231
     92  CA        16.8360   61.9750   27.7420 C.3   412  LYS412      0.1693
     93  C         17.4610   60.9980   28.7330 C.2   412  LYS412      0.2592
     94  O         17.0830   59.8390   28.7660 O.2   412  LYS412     -0.2718
     95  CB        17.8230   62.1820   26.6110 C.3   412  LYS412      0.0285
     96  CG        17.2130   62.2950   25.2350 C.3   412  LYS412      0.0035
     97  CD        18.2840   62.0150   24.1870 C.3   412  LYS412      0.0206
     98  CE        17.8780   62.4740   22.7890 C.3   412  LYS412      0.1093
     99  NZ        17.8560   63.9610   22.6620 N.3   412  LYS412     -0.1314
    100  N         18.4220   61.4680   29.5230 N.am  413  TYR413     -0.1976
    101  CA        19.0500   60.6370   30.5460 C.3   413  TYR413      0.1639
    102  C         18.0490   59.9760   31.5110 C.2   413  TYR413      0.2290
    103  O         18.1560   58.7790   31.8170 O.2   413  TYR413     -0.2864
    104  CB        20.0370   61.4810   31.3380 C.3   413  TYR413      0.0560
    105  CG        20.8260   60.7010   32.3370 C.ar  413  TYR413     -0.0198
    106  CD1       21.9950   60.0650   31.9620 C.ar  413  TYR413     -0.0009
    107  CD2       20.4060   60.6010   33.6520 C.ar  413  TYR413     -0.0009
    108  CE1       22.7280   59.3400   32.8730 C.ar  413  TYR413      0.0417
    109  CE2       21.1360   59.8820   34.5740 C.ar  413  TYR413      0.0417
    110  CZ        22.2780   59.2500   34.1750 C.ar  413  TYR413      0.1957
    111  OH        23.0170   58.5470   35.0700 O.3   413  TYR413     -0.2866
    112  N         15.7590   57.1680   30.1010 N.3   416  GLU416     -0.1245
    113  CA        16.4260   55.9230   29.7420 C.3   416  GLU416      0.1567
    114  C         16.4650   55.0040   30.9830 C.2   416  GLU416      0.2260
    115  O         17.1080   55.2900   32.0030 O.2   416  GLU416     -0.2867
    116  CB        17.8170   56.1970   29.1580 C.3   416  GLU416      0.0388
    117  CG        18.7510   54.9940   29.0210 C.3   416  GLU416      0.1160
    118  CD        18.1310   53.8470   28.2240 C.2   416  GLU416      0.3649
    119  OE1       17.9220   54.0290   26.9950 O.co2 416  GLU416     -0.2457
    120  OE2       17.8590   52.7680   28.8300 O.co2 416  GLU416     -0.2457
    121  N         19.4640   53.9900   33.2000 N.3   419  ASN419     -0.1240
    122  CA        19.9950   55.0090   34.1090 C.3   419  ASN419      0.1653
    123  C         19.2610   55.0180   35.4380 C.2   419  ASN419      0.2266
    124  O         19.6320   55.7340   36.3370 O.2   419  ASN419     -0.2867
    125  CB        19.9280   56.4030   33.4670 C.3   419  ASN419      0.1155
    126  CG        20.8280   56.5320   32.2690 C.2   419  ASN419      0.2627
    127  OD1       21.9020   55.9190   32.2070 O.2   419  ASN419     -0.2716
    128  ND2       20.4050   57.3540   31.3120 N.am  419  ASN419     -0.0877
@<TRIPOS>BOND
     1    45    44    2
     2    21    20    1
     3    44    43    1
     4    44    46   am
     5    39    40    1
     6    22    20    1
     7    20    19    1
     8    43    40    1
     9    40    41    1
    10    99    98    1
    11    98    97    1
    12    47    41   am
    13    47    48    1
    14    51    48    1
    15    51    52    1
    16    19    16    1
    17    41    42    2
    18    54    52   ar
    19    54    56   ar
    20    16    17    1
    21    16    15    1
    22    48    49    1
    23    52    53   ar
    24    17    18    2
    25    97    96    1
    26    12    11    2
    27    56    57   ar
    28    49    50    2
    29    53    55   ar
    30    15    11   am
    31    11    10    1
    32    96    95    1
    33    57    55   ar
    34     4     3    2
    35    90    89    1
    36    10    13    1
    37    10     9    1
    38    95    92    1
    39     7     5    1
    40   119   118   ar
    41    13    14    1
    42    87    84    1
    43    87    88    1
    44    83    84    1
    45    58    59    1
    46     3     9   am
    47     3     2    1
    48    84    85    1
    49     5     2    1
    50     5     6    1
    51    89    88    1
    52    92    91    1
    53    92    93    1
    54    67    66    1
    55   118   120   ar
    56   118   117    1
    57    59    60    1
    58     2     1    1
    59    27    28    1
    60    27    24    1
    61     6     8    1
    62    28    29   ar
    63    28    30   ar
    64    29    31   ar
    65    30    32   ar
    66    62    60   am
    67    62    63    1
    68    93    94    2
    69    93   100   am
    70    66    63    1
    71    31    33   ar
    72    85    86    2
    73    32    33   ar
    74   117   116    1
    75   116   113    1
    76    60    61    2
    77    23    24    1
    78   100   101    1
    79    24    25    1
    80    63    64    1
    81   113   112    1
    82   113   114    1
    83    25    26    2
    84    64    65    2
    85   101   104    1
    86   101   102    1
    87   114   115    2
    88    37    36    2
    89   128   126   am
    90   104   105    1
    91    35    38    1
    92    35    36    1
    93    35    34    1
    94   102   103    2
    95   106   105   ar
    96   106   108   ar
    97   127   126    2
    98   126   125    1
    99   105   107   ar
   100   108   110   ar
   101    68    69    1
   102    72    69    1
   103    72    73    1
   104   121   122    1
   105   125   122    1
   106   107   109   ar
   107    69    70    1
   108   122   123    1
   109   110   109   ar
   110   110   111    1
   111    70    71    2
   112   123   124    2
   113    82    81    1
   114    81    80    1
   115    80    79    1
   116    79    78    1
   117    78    75    1
   118    74    75    1
   119    75    76    1
   120    76    77    2
