@<TRIPOS>MOLECULE
tmp/6g5lA00.pdb
 201 195 0 0 0
SMALL
GASTEIGER

@<TRIPOS>ATOM
      1  N         17.0700   14.0360   17.2000 N.3     2  TRP2       -0.1241
      2  CA        16.2600   12.9860   16.6220 C.3     2  TRP2        0.1605
      3  C         16.2180   11.8820   17.6110 C.2     2  TRP2        0.2264
      4  O         17.1630   11.6440   18.4050 O.2     2  TRP2       -0.2867
      5  CB        16.7910   12.6140   15.2610 C.3     2  TRP2        0.0550
      6  CG        18.1410   11.9650   15.2350 C.ar    2  TRP2        0.0003
      7  CD1       19.3460   12.5860   15.1000 C.ar    2  TRP2        0.0946
      8  CD2       18.4080   10.5530   15.3360 C.ar    2  TRP2        0.0152
      9  NE1       20.3420   11.6450   15.0260 N.ar    2  TRP2       -0.2442
     10  CE2       19.8010   10.3970   15.2300 C.ar    2  TRP2        0.0810
     11  CE3       17.6050    9.4160   15.5050 C.ar    2  TRP2        0.0012
     12  CZ2       20.4120    9.1360   15.2690 C.ar    2  TRP2        0.0191
     13  CZ3       18.1850    8.1370   15.5040 C.ar    2  TRP2        0.0001
     14  CH2       19.5870    8.0250   15.3960 C.ar    2  TRP2        0.0015
     15  N         13.8600    7.8070   18.3810 N.3     4  TYR4       -0.1241
     16  CA        13.0660    6.7390   17.8020 C.3     4  TYR4        0.1605
     17  C         11.6350    6.7560   18.3610 C.2     4  TYR4        0.2264
     18  O         10.9160    5.7850   18.2080 O.2     4  TYR4       -0.2867
     19  CB        13.6900    5.3700   18.0840 C.3     4  TYR4        0.0534
     20  CG        14.9460    5.1120   17.2830 C.ar    4  TYR4       -0.0201
     21  CD1       14.8730    4.5740   15.9970 C.ar    4  TYR4       -0.0009
     22  CD2       16.1840    5.4040   17.8330 C.ar    4  TYR4       -0.0009
     23  CE1       16.0290    4.3080   15.2810 C.ar    4  TYR4        0.0417
     24  CE2       17.3330    5.1180   17.1490 C.ar    4  TYR4        0.0417
     25  CZ        17.2640    4.5640   15.8560 C.ar    4  TYR4        0.1957
     26  OH        18.4210    4.2470   15.1740 O.3     4  TYR4       -0.2866
     27  N         26.2050    7.0170   22.4520 N.3    62  ASN62      -0.1240
     28  CA        25.9860    8.2860   21.7860 C.3    62  ASN62       0.1653
     29  C         24.5280    8.7630   21.8810 C.2    62  ASN62       0.2266
     30  O         24.1040    9.7200   21.1530 O.2    62  ASN62      -0.2867
     31  CB        26.4300    8.2360   20.2970 C.3    62  ASN62       0.1155
     32  CG        25.7130    7.1580   19.4970 C.2    62  ASN62       0.2627
     33  OD1       24.6490    6.6800   19.9640 O.2    62  ASN62      -0.2716
     34  ND2       26.2320    6.8120   18.2850 N.am   62  ASN62      -0.0877
     35  N         22.0120    7.0860   20.9350 N.3    64  HIS64      -0.1226
     36  CA        21.2220    6.3610   19.8790 C.3    64  HIS64       0.1752
     37  C         21.5020    4.9060   19.8990 C.2    64  HIS64       0.2596
     38  O         20.6620    4.1450   19.4090 O.2    64  HIS64      -0.2718
     39  CB        21.4310    7.0280   18.5410 C.3    64  HIS64       0.0759
     40  CG        21.1470    8.5170   18.5220 C.ar   64  HIS64       0.0818
     41  ND1       19.8730    9.0590   18.6080 N.ar   64  HIS64      -0.2268
     42  CD2       22.0150    9.5360   18.3700 C.ar   64  HIS64       0.1154
     43  CE1       19.9940   10.4050   18.4820 C.ar   64  HIS64       0.1986
     44  NE2       21.2870   10.6740   18.3280 N.ar   64  HIS64      -0.2212
     45  N         22.7320    4.4990   20.2390 N.am   65  SER65      -0.1952
     46  CA        23.1640    3.0990   20.2290 C.3    65  SER65       0.1924
     47  C         24.4020    3.0540   21.1780 C.2    65  SER65       0.2314
     48  O         24.7600    4.0540   21.7830 O.2    65  SER65      -0.2863
     49  CB        23.5220    2.7120   18.8300 C.3    65  SER65       0.2116
     50  OG        23.8770    1.2980   18.8040 O.3    65  SER65      -0.2180
     51  N         28.3040    2.2690   20.4840 N.3    67  LYS67      -0.1245
     52  CA        29.2290    2.1940   19.3500 C.3    67  LYS67       0.1561
     53  C         30.6490    1.9390   19.7690 C.2    67  LYS67       0.2260
     54  O         31.1070    2.4470   20.7860 O.2    67  LYS67      -0.2867
     55  CB        29.1250    3.3390   18.4340 C.3    67  LYS67       0.0271
     56  CG        29.7620    4.6060   18.7320 C.3    67  LYS67       0.0035
     57  CD        30.0390    5.3950   17.4590 C.3    67  LYS67       0.0206
     58  CE        30.6320    6.7060   17.9370 C.3    67  LYS67       0.1093
     59  NZ        30.6120    7.7230   16.8640 N.3    67  LYS67      -0.1314
     60  N         35.1670    1.8170   10.3400 N.3    86  THR86      -0.1203
     61  CA        35.1360    2.9960   11.1740 C.3    86  THR86       0.1994
     62  C         34.4520    2.7770   12.4980 C.2    86  THR86       0.2617
     63  O         34.9160    3.3270   13.5280 O.2    86  THR86      -0.2717
     64  CB        34.4830    4.1970   10.4240 C.3    86  THR86       0.1784
     65  OG1       34.4480    5.3380   11.2050 O.3    86  THR86      -0.2211
     66  CG2       33.0880    3.9520    9.8830 C.3    86  THR86       0.0376
     67  N         33.3640    1.9980   12.5930 N.am   87  GLN87      -0.1979
     68  CA        32.7000    1.7500   13.8880 C.3    87  GLN87       0.1601
     69  C         31.7610    0.5880   13.7190 C.2    87  GLN87       0.2287
     70  O         31.3340    0.2710   12.6180 O.2    87  GLN87      -0.2864
     71  CB        31.9670    2.9790   14.4410 C.3    87  GLN87       0.0394
     72  CG        31.0460    3.6090   13.4070 C.3    87  GLN87       0.0908
     73  CD        29.6250    3.5110   13.7920 C.2    87  GLN87       0.2608
     74  OE1       29.1580    2.3570   14.1210 O.2    87  GLN87      -0.2717
     75  NE2       28.8520    4.5040   13.6120 N.am   87  GLN87      -0.0878
     76  N         28.0340   -0.9200   15.8160 N.3    89  HIS89      -0.1241
     77  CA        26.9960   -0.5890   16.7820 C.3    89  HIS89       0.1621
     78  C         25.8270   -1.5520   16.6160 C.2    89  HIS89       0.2264
     79  O         25.8500   -2.3920   15.7190 O.2    89  HIS89      -0.2867
     80  CB        26.4970    0.8780   16.5930 C.3    89  HIS89       0.0745
     81  CG        25.8910    1.0810   15.2650 C.ar   89  HIS89       0.0817
     82  ND1       26.5780    1.5380   14.1680 N.ar   89  HIS89      -0.2268
     83  CD2       24.6430    0.7630   14.8060 C.ar   89  HIS89       0.1154
     84  CE1       25.7510    1.4970   13.0980 C.ar   89  HIS89       0.1986
     85  NE2       24.5630    1.0370   13.4600 N.ar   89  HIS89      -0.2212
     86  N         21.3490   -2.4800   17.1530 N.3    91  HIS91      -0.1241
     87  CA        19.9430   -2.0290   17.2530 C.3    91  HIS91       0.1621
     88  C         19.1750   -3.1670   17.9050 C.2    91  HIS91       0.2264
     89  O         19.4360   -4.3510   17.6550 O.2    91  HIS91      -0.2867
     90  CB        19.3610   -1.8430   15.8080 C.3    91  HIS91       0.0745
     91  CG        20.1250   -0.8180   15.0120 C.ar   91  HIS91       0.0817
     92  ND1       19.7820    0.4960   14.9940 N.ar   91  HIS91      -0.2268
     93  CD2       21.2020   -0.9320   14.2130 C.ar   91  HIS91       0.1154
     94  CE1       20.6270    1.1810   14.1780 C.ar   91  HIS91       0.1986
     95  NE2       21.5220    0.3450   13.7130 N.ar   91  HIS91      -0.2212
     96  N         25.7060   -3.7920   13.1700 N.3   115  HIS115     -0.1241
     97  CA        26.2220   -3.1630   11.9370 C.3   115  HIS115      0.1621
     98  C         27.6630   -2.8280   12.1160 C.2   115  HIS115      0.2264
     99  O         28.0380   -2.1590   13.0680 O.2   115  HIS115     -0.2867
    100  CB        25.4240   -1.8660   11.7150 C.3   115  HIS115      0.0745
    101  CG        24.0260   -2.1340   11.3190 C.ar  115  HIS115      0.0817
    102  ND1       23.0140   -1.1980   11.4670 N.ar  115  HIS115     -0.2268
    103  CD2       23.4900   -3.2340   10.7760 C.ar  115  HIS115      0.1154
    104  CE1       21.8970   -1.7690   10.9850 C.ar  115  HIS115      0.1986
    105  NE2       22.1430   -2.9950   10.5710 N.ar  115  HIS115     -0.2212
    106  N         30.3030   -0.7370   10.2460 N.3   117  VAL117     -0.1245
    107  CA        30.2810    0.3450    9.2120 C.3   117  VAL117      0.1561
    108  C         31.7070    0.5160    8.6960 C.2   117  VAL117      0.2260
    109  O         32.6660    0.6680    9.4930 O.2   117  VAL117     -0.2867
    110  CB        29.7830    1.6280    9.8250 C.3   117  VAL117      0.0252
    111  CG1       29.6860    2.7390    8.7660 C.3   117  VAL117      0.0019
    112  CG2       28.4040    1.4940   10.5120 C.3   117  VAL117      0.0019
    113  N         35.7700    8.6150    7.0930 N.3   127  ALA127     -0.1231
    114  CA        34.4300    8.1770    7.0440 C.3   127  ALA127      0.1694
    115  C         33.4300    9.3660    6.9570 C.2   127  ALA127      0.2592
    116  O         32.3990    9.2840    6.2550 O.2   127  ALA127     -0.2718
    117  CB        34.0680    7.2880    8.2250 C.3   127  ALA127      0.0304
    118  N         33.7460   10.3950    7.7110 N.am  128  SER128     -0.1952
    119  CA        32.8370   11.5530    7.6660 C.3   128  SER128      0.1924
    120  C         32.6760   12.1190    6.2270 C.2   128  SER128      0.2314
    121  O         31.5340   12.3790    5.7630 O.2   128  SER128     -0.2863
    122  CB        33.3470   12.6170    8.6760 C.3   128  SER128      0.2116
    123  OG        32.5610   13.8190    8.5980 O.3   128  SER128     -0.2180
    124  N         30.6820    9.7790    3.8650 N.3   131  SER131     -0.1217
    125  CA        29.2680    9.3550    4.1730 C.3   131  SER131      0.1889
    126  C         28.2090    9.9370    3.3360 C.2   131  SER131      0.2288
    127  O         27.1380    9.3130    3.2310 O.2   131  SER131     -0.2866
    128  CB        29.0330    9.6480    5.6820 C.3   131  SER131      0.2089
    129  OG        28.8860   11.0510    5.9750 O.3   131  SER131     -0.2183
    130  N         29.9660    4.2510    1.5630 N.3   137  LEU137     -0.1245
    131  CA        29.9190    3.3720    2.7540 C.3   137  LEU137      0.1561
    132  C         29.5220    1.9490    2.3860 C.2   137  LEU137      0.2260
    133  O         28.8570    1.7200    1.3900 O.2   137  LEU137     -0.2867
    134  CB        28.9150    3.8930    3.8140 C.3   137  LEU137      0.0270
    135  CG        29.1550    5.3350    4.3320 C.3   137  LEU137      0.0019
    136  CD1       27.9210    5.7190    5.1520 C.3   137  LEU137      0.0001
    137  CD2       30.4590    5.4220    5.1000 C.3   137  LEU137      0.0001
    138  N         28.1840   -1.4960    4.7860 N.3   139  VAL139     -0.1245
    139  CA        27.8600   -2.0010    6.1380 C.3   139  VAL139      0.1561
    140  C         27.7060   -3.4890    6.0380 C.2   139  VAL139      0.2260
    141  O         27.0940   -4.0230    5.1020 O.2   139  VAL139     -0.2867
    142  CB        26.6170   -1.3600    6.7130 C.3   139  VAL139      0.0252
    143  CG1       26.2870   -1.9370    8.1210 C.3   139  VAL139      0.0019
    144  CG2       26.7740    0.1760    6.7780 C.3   139  VAL139      0.0019
    145  N         21.9960    4.9640    5.0780 N.3   195  LEU195     -0.1231
    146  CA        22.0390    4.9520    6.5220 C.3   195  LEU195      0.1693
    147  C         20.6130    4.6890    7.0440 C.2   195  LEU195      0.2593
    148  O         19.6590    5.2970    6.5100 O.2   195  LEU195     -0.2718
    149  CB        22.5280    6.2480    7.1250 C.3   195  LEU195      0.0284
    150  CG        24.0280    6.5170    7.1510 C.3   195  LEU195      0.0019
    151  CD1       24.5650    6.8430    5.7760 C.3   195  LEU195      0.0001
    152  CD2       24.2730    7.6940    8.1150 C.3   195  LEU195      0.0001
    153  N         20.4520    3.9410    8.1310 N.am  196  THR196     -0.1939
    154  CA        19.1610    3.7420    8.7350 C.3   196  THR196      0.2028
    155  C         18.8940    4.7490    9.8280 C.2   196  THR196      0.2643
    156  O         17.8230    4.7040   10.4610 O.2   196  THR196     -0.2714
    157  CB        19.0100    2.3350    9.2950 C.3   196  THR196      0.1808
    158  OG1       19.8820    2.2550   10.4120 O.3   196  THR196     -0.2208
    159  CG2       19.2640    1.2430    8.3190 C.3   196  THR196      0.0379
    160  N         19.8190    5.6710   10.0660 N.am  197  THR197     -0.1937
    161  CA        19.6670    6.7370   11.0120 C.3   197  THR197      0.2013
    162  C         19.8570    8.0730   10.2080 C.2   197  THR197      0.2484
    163  O         20.5250    8.0090    9.1760 O.2   197  THR197     -0.2729
    164  CB        20.6980    6.7390   12.1470 C.3   197  THR197      0.1807
    165  OG1       22.0040    6.9640   11.5740 O.3   197  THR197     -0.2208
    166  CG2       20.7040    5.4050   12.8280 C.3   197  THR197      0.0379
    167  N         19.3760    9.1870   10.7520 N.am  198  PRO198     -0.2715
    168  CA        19.8130   10.4810   10.1860 C.3   198  PRO198      0.1521
    169  C         21.3300   10.4930   10.0430 C.2   198  PRO198      0.2440
    170  O         22.0200    9.9770   10.9170 O.2   198  PRO198     -0.2731
    171  CB        19.3050   11.4700   11.2030 C.3   198  PRO198      0.0310
    172  CG        18.0560   10.8180   11.7610 C.3   198  PRO198      0.0237
    173  CD        18.4840    9.3910   11.8980 C.3   198  PRO198      0.0939
    174  N         21.8640   11.0980    8.9860 N.am  199  PRO199     -0.2727
    175  CA        21.0970   11.8430    7.9440 C.3   199  PRO199      0.1402
    176  C         20.5220   10.9890    6.8200 C.2   199  PRO199      0.2269
    177  O         20.0320   11.5720    5.8810 O.2   199  PRO199     -0.2865
    178  CB        22.1620   12.8310    7.3460 C.3   199  PRO199      0.0296
    179  CG        23.2680   12.8010    8.2810 C.3   199  PRO199      0.0237
    180  CD        23.2790   11.3790    8.9380 C.3   199  PRO199      0.0939
    181  N         25.0030    3.6890    1.0700 N.3   204  VAL204     -0.1245
    182  CA        25.4600    2.4230    1.6870 C.3   204  VAL204      0.1561
    183  C         25.3010    1.2540    0.7980 C.2   204  VAL204      0.2260
    184  O         24.1700    0.9460    0.3290 O.2   204  VAL204     -0.2867
    185  CB        24.7180    2.2030    3.0370 C.3   204  VAL204      0.0252
    186  CG1       25.1770    0.8910    3.6740 C.3   204  VAL204      0.0019
    187  CG2       24.9560    3.3570    3.9880 C.3   204  VAL204      0.0019
    188  N         24.8370   -2.4000    1.2460 N.3   206  TRP206     -0.1241
    189  CA        24.4870   -3.3130    2.3620 C.3   206  TRP206      0.1605
    190  C         24.8490   -4.7390    2.0430 C.2   206  TRP206      0.2264
    191  O         24.5630   -5.2280    0.9280 O.2   206  TRP206     -0.2867
    192  CB        22.9600   -3.2410    2.6090 C.3   206  TRP206      0.0550
    193  CG        22.5790   -2.0420    3.3900 C.ar  206  TRP206      0.0003
    194  CD1       22.1290   -0.8110    2.9740 C.ar  206  TRP206      0.0946
    195  CD2       22.7190   -1.9150    4.8290 C.ar  206  TRP206      0.0152
    196  NE1       21.9920    0.0620    3.9980 N.ar  206  TRP206     -0.2442
    197  CE2       22.3380   -0.5790    5.1690 C.ar  206  TRP206      0.0810
    198  CE3       23.0570   -2.7950    5.8660 C.ar  206  TRP206      0.0012
    199  CZ2       22.3400   -0.0890    6.4870 C.ar  206  TRP206      0.0191
    200  CZ3       23.0530   -2.3390    7.1510 C.ar  206  TRP206      0.0001
    201  CH2       22.7420   -0.9990    7.4830 C.ar  206  TRP206      0.0015
@<TRIPOS>BOND
     1   184   183    2
     2   183   182    1
     3   191   190    2
     4   181   182    1
     5   188   189    1
     6   133   132    2
     7   130   131    1
     8   182   185    1
     9   190   189    1
    10   189   192    1
    11   132   131    1
    12   192   193    1
    13   131   134    1
    14   194   193   ar
    15   194   196   ar
    16   185   186    1
    17   185   187    1
    18   127   126    2
    19   126   125    1
    20   193   195   ar
    21   134   135    1
    22   124   125    1
    23   196   197   ar
    24   125   128    1
    25   135   137    1
    26   135   136    1
    27   138   139    1
    28   195   197   ar
    29   195   198   ar
    30   145   146    1
    31   141   140    2
    32   197   199   ar
    33   128   129    1
    34   121   120    2
    35   151   150    1
    36   198   200   ar
    37   177   176    2
    38   140   139    1
    39   139   142    1
    40   120   119    1
    41   116   115    2
    42   199   201   ar
    43   148   147    2
    44   146   147    1
    45   146   149    1
    46   142   144    1
    47   142   143    1
    48   176   175    1
    49   115   114    1
    50   115   118   am
    51   114   113    1
    52   114   117    1
    53   147   153   am
    54   149   150    1
    55   150   152    1
    56   200   201   ar
    57   178   175    1
    58   178   179    1
    59   119   118    1
    60   119   122    1
    61   175   174    1
    62   153   154    1
    63   179   180    1
    64   159   157    1
    65   123   122    1
    66   108   107    1
    67   108   109    2
    68   154   157    1
    69   154   155    1
    70   111   110    1
    71   180   174    1
    72   174   169   am
    73   163   162    2
    74   107   110    1
    75   107   106    1
    76   157   158    1
    77   110   112    1
    78   155   160   am
    79   155   156    2
    80    66    64    1
    81   169   168    1
    82   169   170    2
    83   160   161    1
    84   168   167    1
    85   168   171    1
    86   162   167   am
    87   162   161    1
    88    60    61    1
    89    64    61    1
    90    64    65    1
    91   105   103   ar
    92   105   104   ar
    93   167   173    1
    94   103   101   ar
    95   104   102   ar
    96   161   164    1
    97    61    62    1
    98   171   172    1
    99   101   102   ar
   100   101   100    1
   101   165   164    1
   102   100    97    1
   103   172   173    1
   104    97    98    1
   105    97    96    1
   106    98    99    2
   107   164   166    1
   108    62    67   am
   109    62    63    2
   110    67    68    1
   111    70    69    2
   112    84    85   ar
   113    84    82   ar
   114    72    73    1
   115    72    71    1
   116    85    83   ar
   117    75    73   am
   118    95    94   ar
   119    95    93   ar
   120    69    68    1
   121    73    74    2
   122    68    71    1
   123    82    81   ar
   124    94    92   ar
   125    93    91   ar
   126    83    81   ar
   127    92    91   ar
   128    91    90    1
   129     9     7   ar
   130     9    10   ar
   131     7     6   ar
   132    26    25    1
   133    10    12   ar
   134    10     8   ar
   135     6     5    1
   136     6     8   ar
   137     5     2    1
   138    81    80    1
   139    12    14   ar
   140    23    25   ar
   141    23    21   ar
   142     8    11   ar
   143    14    13   ar
   144    13    11   ar
   145    79    78    2
   146    90    87    1
   147    76    77    1
   148    25    24   ar
   149    21    20   ar
   150    80    77    1
   151    78    77    1
   152     2     1    1
   153     2     3    1
   154    59    58    1
   155    24    22   ar
   156    86    87    1
   157    87    88    1
   158    20    22   ar
   159    20    19    1
   160    57    58    1
   161    57    56    1
   162     3     4    2
   163    89    88    2
   164    16    19    1
   165    16    17    1
   166    16    15    1
   167    18    17    2
   168    34    32   am
   169    44    42   ar
   170    44    43   ar
   171    42    40   ar
   172    55    56    1
   173    55    52    1
   174    43    41   ar
   175    40    39    1
   176    40    41   ar
   177    39    36    1
   178    50    49    1
   179    49    46    1
   180    52    53    1
   181    52    51    1
   182    38    37    2
   183    32    33    2
   184    32    31    1
   185    53    54    2
   186    36    37    1
   187    36    35    1
   188    37    45   am
   189    46    45    1
   190    46    47    1
   191    31    28    1
   192    30    29    2
   193    47    48    2
   194    28    29    1
   195    28    27    1
