@<TRIPOS>MOLECULE
tmp/6g5pA01.pdb
 101 95 0 0 0
SMALL
GASTEIGER

@<TRIPOS>ATOM
      1  N         17.9270   -4.3770    1.5470 N.3    22  ARG22      -0.1245
      2  CA        18.1140   -3.0040    2.0320 C.3    22  ARG22       0.1563
      3  C         18.7420   -2.0540    0.9980 C.2    22  ARG22       0.2260
      4  O         19.5210   -2.4770    0.1630 O.2    22  ARG22      -0.2867
      5  CB        18.9770   -3.0130    3.2920 C.3    22  ARG22       0.0307
      6  CG        18.3330   -3.7360    4.4150 C.3    22  ARG22       0.0489
      7  CD        19.2730   -3.7910    5.5560 C.3    22  ARG22       0.2205
      8  NE        18.6830   -4.4320    6.7120 N.pl3  22  ARG22      -0.0865
      9  CZ        18.7930   -5.7180    6.9990 C.cat  22  ARG22       0.5346
     10  NH1       19.4540   -6.5350    6.1830 N.pl3  22  ARG22       0.1354
     11  NH2       18.2410   -6.1680    8.1120 N.pl3  22  ARG22       0.1354
     12  N         24.8020   -4.7420    7.3740 N.3    44  PHE44      -0.1241
     13  CA        23.9770   -5.7870    7.9900 C.3    44  PHE44       0.1605
     14  C         24.4380   -7.1710    7.5410 C.2    44  PHE44       0.2264
     15  O         24.5820   -8.0920    8.3590 O.2    44  PHE44      -0.2867
     16  CB        22.4740   -5.5950    7.6520 C.3    44  PHE44       0.0534
     17  CG        21.8420   -4.3690    8.2720 C.ar   44  PHE44      -0.0203
     18  CD1       22.0530   -3.1140    7.7160 C.ar   44  PHE44      -0.0042
     19  CD2       21.0250   -4.4870    9.4020 C.ar   44  PHE44      -0.0042
     20  CE1       21.4760   -1.9840    8.2650 C.ar   44  PHE44      -0.0003
     21  CE2       20.4080   -3.3700    9.9550 C.ar   44  PHE44      -0.0003
     22  CZ        20.6400   -2.1020    9.3890 C.ar   44  PHE44      -0.0000
     23  N         27.9650   -8.1010    8.9580 N.3    47  ILE47      -0.1231
     24  CA        27.8790   -8.5150   10.3620 C.3    47  ILE47       0.1692
     25  C         27.2880   -9.9320   10.4820 C.2    47  ILE47       0.2591
     26  O         27.7540  -10.7510   11.2860 O.2    47  ILE47      -0.2718
     27  CB        27.0540   -7.4840   11.1800 C.3    47  ILE47       0.0266
     28  CG1       27.8160   -6.1590   11.2410 C.3    47  ILE47       0.0019
     29  CG2       26.7230   -8.0260   12.5420 C.3    47  ILE47       0.0020
     30  CD1       29.0020   -6.1350   12.2380 C.3    47  ILE47       0.0001
     31  N         26.2640  -10.2130    9.6860 N.am   48  LYS48      -0.1980
     32  CA        25.6570  -11.5510    9.7000 C.3    48  LYS48       0.1596
     33  C         26.6790  -12.6210    9.2930 C.2    48  LYS48       0.2287
     34  O         26.7670  -13.6870    9.9070 O.2    48  LYS48      -0.2864
     35  CB        24.4300  -11.5850    8.7850 C.3    48  LYS48       0.0298
     36  CG        23.7710  -12.9490    8.7400 C.3    48  LYS48       0.0038
     37  CD        22.9470  -13.1350    7.4650 C.3    48  LYS48       0.0206
     38  CE        21.8510  -12.1040    7.3050 C.3    48  LYS48       0.1093
     39  NZ        21.0550  -12.3240    6.0470 N.3    48  LYS48      -0.1314
     40  N         28.8640  -13.6650   12.1430 N.3    51  GLN51      -0.1245
     41  CA        28.1310  -14.5700   13.0100 C.3    51  GLN51       0.1566
     42  C         28.0960  -15.9790   12.4230 C.2    51  GLN51       0.2260
     43  O         28.3160  -16.9540   13.1330 O.2    51  GLN51      -0.2867
     44  CB        26.6960  -14.0980   13.2420 C.3    51  GLN51       0.0367
     45  CG        26.5290  -12.9610   14.1910 C.3    51  GLN51       0.0905
     46  CD        25.0710  -12.5770   14.3220 C.2    51  GLN51       0.2608
     47  OE1       24.3080  -12.6590   13.3530 O.2    51  GLN51      -0.2717
     48  NE2       24.6670  -12.1730   15.5230 N.am   51  GLN51      -0.0878
     49  N         28.7120   -0.5390   12.7220 N.3    81  PHE81      -0.1241
     50  CA        27.3180   -1.0180   12.6630 C.3    81  PHE81       0.1605
     51  C         26.5260   -0.4570   13.8540 C.2    81  PHE81       0.2264
     52  O         25.3830   -0.0090   13.7020 O.2    81  PHE81      -0.2867
     53  CB        27.3010   -2.5460   12.6990 C.3    81  PHE81       0.0534
     54  CG        25.9430   -3.1570   12.4980 C.ar   81  PHE81      -0.0203
     55  CD1       25.0890   -2.7130   11.5140 C.ar   81  PHE81      -0.0042
     56  CD2       25.5200   -4.1720   13.3430 C.ar   81  PHE81      -0.0042
     57  CE1       23.8320   -3.3270   11.3640 C.ar   81  PHE81      -0.0003
     58  CE2       24.2710   -4.7730   13.2290 C.ar   81  PHE81      -0.0003
     59  CZ        23.4480   -4.3810   12.2090 C.ar   81  PHE81      -0.0000
     60  N         23.2480    1.8920   13.7600 N.3    85  LYS85      -0.1245
     61  CA        21.9830    1.5790   14.4230 C.3    85  LYS85       0.1561
     62  C         21.4390    2.7690   15.2160 C.2    85  LYS85       0.2260
     63  O         20.2250    2.9550   15.3010 O.2    85  LYS85      -0.2867
     64  CB        22.1360    0.3540   15.3250 C.3    85  LYS85       0.0271
     65  CG        22.4010   -0.9290   14.5540 C.3    85  LYS85       0.0035
     66  CD        21.2910   -1.2380   13.5710 C.3    85  LYS85       0.0206
     67  CE        20.3310   -2.2850   14.0930 C.3    85  LYS85       0.1093
     68  NZ        19.5550   -1.9090   15.3130 N.3    85  LYS85      -0.1314
     69  N         21.0640   -1.1350   23.9970 N.3   166  LYS166     -0.1231
     70  CA        20.4590   -2.3960   23.5280 C.3   166  LYS166      0.1693
     71  C         21.2110   -2.9290   22.3250 C.2   166  LYS166      0.2592
     72  O         21.4560   -4.1480   22.2160 O.2   166  LYS166     -0.2718
     73  CB        18.9970   -2.1830   23.1550 C.3   166  LYS166      0.0285
     74  CG        18.0950   -2.0560   24.3790 C.3   166  LYS166      0.0035
     75  CD        16.6420   -1.8350   23.9020 C.3   166  LYS166      0.0206
     76  CE        15.6710   -1.5210   25.0290 C.3   166  LYS166      0.1093
     77  NZ        15.3620   -2.7560   25.7710 N.3   166  LYS166     -0.1314
     78  N         21.5730   -2.0310   21.3890 N.am  167  ASN167     -0.1974
     79  CA        22.3280   -2.4810   20.2160 C.3   167  ASN167      0.1688
     80  C         23.7430   -2.9350   20.5960 C.2   167  ASN167      0.2292
     81  O         24.2660   -3.9030   20.0210 O.2   167  ASN167     -0.2864
     82  CB        22.3560   -1.4060   19.1190 C.3   167  ASN167      0.1181
     83  CG        21.1060   -1.4150   18.2980 C.2   167  ASN167      0.2629
     84  OD1       20.9970   -2.1930   17.3560 O.2   167  ASN167     -0.2716
     85  ND2       20.1370   -0.5720   18.6560 N.am  167  ASN167     -0.0877
     86  N         23.5430   -6.4160   21.9390 N.3   170  ASN170     -0.1225
     87  CA        23.2200   -7.3860   20.9120 C.3   170  ASN170      0.1785
     88  C         24.3710   -7.6340   19.9170 C.2   170  ASN170      0.2597
     89  O         24.6960   -8.7820   19.5910 O.2   170  ASN170     -0.2718
     90  CB        21.9520   -6.9430   20.1810 C.3   170  ASN170      0.1169
     91  CG        21.3600   -8.0460   19.3490 C.2   170  ASN170      0.2627
     92  OD1       21.1190   -7.8680   18.1680 O.2   170  ASN170     -0.2716
     93  ND2       21.1410   -9.2080   19.9610 N.am  170  ASN170     -0.0877
     94  N         25.0080   -6.5650   19.4540 N.am  171  ILE171     -0.1980
     95  CA        26.0740   -6.6680   18.4410 C.3   171  ILE171      0.1595
     96  C         27.3400   -7.3100   19.0240 C.2   171  ILE171      0.2287
     97  O         28.0190   -8.1110   18.3520 O.2   171  ILE171     -0.2864
     98  CB        26.3610   -5.2810   17.8450 C.3   171  ILE171      0.0276
     99  CG1       25.1510   -4.8300   17.0200 C.3   171  ILE171      0.0022
    100  CG2       27.6630   -5.2660   16.9820 C.3   171  ILE171      0.0022
    101  CD1       25.2180   -3.3280   16.6830 C.3   171  ILE171      0.0001
@<TRIPOS>BOND
     1     4     3    2
     2     3     2    1
     3     1     2    1
     4     2     5    1
     5     5     6    1
     6     6     7    1
     7     7     8    1
     8    39    38    1
     9    10     9    1
    10     8     9    2
    11     9    11    1
    12    38    37    1
    13    12    13    1
    14    37    36    1
    15    14    13    1
    16    14    15    2
    17    16    13    1
    18    16    17    1
    19    18    20   ar
    20    18    17   ar
    21    20    22   ar
    22    17    19   ar
    23    36    35    1
    24    35    32    1
    25    23    24    1
    26    33    32    1
    27    33    34    2
    28    22    21   ar
    29    19    21   ar
    30    31    32    1
    31    31    25   am
    32    24    25    1
    33    24    27    1
    34    25    26    2
    35    27    28    1
    36    27    29    1
    37    28    30    1
    38    57    55   ar
    39    57    59   ar
    40    55    54   ar
    41    40    41    1
    42    59    58   ar
    43    42    41    1
    44    42    43    2
    45    54    53    1
    46    54    56   ar
    47    50    53    1
    48    50    49    1
    49    50    51    1
    50    41    44    1
    51    58    56   ar
    52    44    45    1
    53    47    46    2
    54    66    67    1
    55    66    65    1
    56    52    51    2
    57    60    61    1
    58    67    68    1
    59    45    46    1
    60    46    48   am
    61    61    62    1
    62    61    64    1
    63    65    64    1
    64    62    63    2
    65   101    99    1
    66   100    98    1
    67    99    98    1
    68    84    83    2
    69    98    95    1
    70    92    91    2
    71    83    85   am
    72    83    82    1
    73    97    96    2
    74    95    96    1
    75    95    94    1
    76    82    79    1
    77    91    93   am
    78    91    90    1
    79    94    88   am
    80    89    88    2
    81    88    87    1
    82    81    80    2
    83    90    87    1
    84    79    80    1
    85    79    78    1
    86    87    86    1
    87    78    71   am
    88    72    71    2
    89    71    70    1
    90    73    70    1
    91    73    74    1
    92    70    69    1
    93    75    74    1
    94    75    76    1
    95    76    77    1
