@<TRIPOS>MOLECULE
tmp/6g5qB00.pdb
 86 78 0 0 0
SMALL
GASTEIGER

@<TRIPOS>ATOM
      1  N         48.6710    4.8400  126.5650 N.3    58  VAL58      -0.1245
      2  CA        48.7490    5.1050  125.1290 C.3    58  VAL58       0.1561
      3  C         47.5850    4.4550  124.3530 C.2    58  VAL58       0.2260
      4  O         47.0690    3.4040  124.7310 O.2    58  VAL58      -0.2867
      5  CB        50.1360    4.6990  124.5480 C.3    58  VAL58       0.0252
      6  CG1       50.2560    5.1060  123.0780 C.3    58  VAL58       0.0019
      7  CG2       51.2620    5.2840  125.3850 C.3    58  VAL58       0.0019
      8  N         50.2990    0.0600  124.4190 N.3    62  GLU62      -0.1196
      9  CA        51.6400   -0.4140  124.1150 C.3    62  GLU62       0.1783
     10  C         52.1090   -1.4070  125.1740 C.2    62  GLU62       0.2306
     11  O         53.3010   -1.7260  125.2230 O.2    62  GLU62      -0.2863
     12  CB        52.6450    0.7630  124.0150 C.2    62  GLU62       0.0071
     13  CG        52.4090    1.7550  122.8680 C.2    62  GLU62       0.0834
     14  CD        53.3720    2.9710  122.8430 C.2    62  GLU62       0.3877
     15  OE1       54.1530    3.2470  123.8060 O.co2  62  GLU62      -0.2406
     16  OE2       53.3600    3.6870  121.8220 O.co2  62  GLU62      -0.2406
     17  N         57.8350    5.4560  131.0620 N.3    70  GLN70      -0.1245
     18  CA        58.3070    6.6960  130.4860 C.3    70  GLN70       0.1566
     19  C         58.1850    7.8120  131.5090 C.2    70  GLN70       0.2260
     20  O         57.2520    7.8140  132.3260 O.2    70  GLN70      -0.2867
     21  CB        57.5880    6.9880  129.1800 C.3    70  GLN70       0.0367
     22  CG        58.0630    6.0910  128.0420 C.3    70  GLN70       0.0905
     23  CD        57.4150    6.4150  126.6970 C.2    70  GLN70       0.2608
     24  OE1       56.8710    7.4930  126.5010 O.2    70  GLN70      -0.2717
     25  NE2       57.4910    5.4930  125.7580 N.am   70  GLN70      -0.0878
     26  N         56.0990   11.2510  131.6740 N.3    73  PHE73      -0.1241
     27  CA        54.8210   10.9060  131.0360 C.3    73  PHE73       0.1605
     28  C         53.9370    9.9040  131.8120 C.2    73  PHE73       0.2264
     29  O         52.7200   10.0810  131.8820 O.2    73  PHE73      -0.2867
     30  CB        55.1360   10.4100  129.6130 C.3    73  PHE73       0.0534
     31  CG        53.9440    9.9460  128.8330 C.ar   73  PHE73      -0.0203
     32  CD1       52.8830   10.7900  128.5990 C.ar   73  PHE73      -0.0042
     33  CD2       53.8920    8.6260  128.3170 C.ar   73  PHE73      -0.0042
     34  CE1       51.7800   10.3520  127.8680 C.ar   73  PHE73      -0.0003
     35  CE2       52.8040    8.1880  127.5800 C.ar   73  PHE73      -0.0003
     36  CZ        51.7470    9.0530  127.3520 C.ar   73  PHE73      -0.0000
     37  N         57.7260    2.8040  115.7210 N.3   157  PHE157     -0.1241
     38  CA        57.0300    1.5290  115.9410 C.3   157  PHE157      0.1605
     39  C         56.2030    1.0930  114.6910 C.2   157  PHE157      0.2264
     40  O         55.0420    0.6910  114.8280 O.2   157  PHE157     -0.2867
     41  CB        56.1250    1.6300  117.2040 C.3   157  PHE157      0.0534
     42  CG        56.7990    2.2360  118.4500 C.ar  157  PHE157     -0.0203
     43  CD1       57.9680    1.6910  118.9970 C.ar  157  PHE157     -0.0042
     44  CD2       56.2240    3.3260  119.1180 C.ar  157  PHE157     -0.0042
     45  CE1       58.5580    2.2340  120.1440 C.ar  157  PHE157     -0.0003
     46  CE2       56.8110    3.8690  120.2690 C.ar  157  PHE157     -0.0003
     47  CZ        57.9730    3.3160  120.7880 C.ar  157  PHE157     -0.0000
     48  N         60.8670    8.3840  125.7960 N.3   212  LEU212     -0.1245
     49  CA        59.8250    9.3770  125.6510 C.3   212  LEU212      0.1561
     50  C         60.2730   10.5640  124.7690 C.2   212  LEU212      0.2260
     51  O         59.4870   11.1240  124.0130 O.2   212  LEU212     -0.2867
     52  CB        59.3890    9.8500  127.0370 C.3   212  LEU212      0.0270
     53  CG        58.5140   11.0940  127.0960 C.3   212  LEU212      0.0019
     54  CD1       57.1240   10.8530  126.5270 C.3   212  LEU212      0.0001
     55  CD2       58.4260   11.4500  128.5600 C.3   212  LEU212      0.0001
     56  N         60.2350    9.1780  121.0760 N.3   215  ALA215     -0.1231
     57  CA        58.9170    8.7630  120.5760 C.3   215  ALA215      0.1694
     58  C         57.8660    9.8810  120.6190 C.2   215  ALA215      0.2592
     59  O         56.9910    9.9220  119.7630 O.2   215  ALA215     -0.2718
     60  CB        58.4080    7.5150  121.3190 C.3   215  ALA215      0.0304
     61  N         57.9310   10.7710  121.6040 N.am  216  GLY216     -0.1957
     62  CA        56.8950   11.8050  121.7690 C.3   216  GLY216      0.1869
     63  C         56.9980   12.9210  120.7180 C.2   216  GLY216      0.2309
     64  O         56.0270   13.6300  120.4260 O.2   216  GLY216     -0.2863
     65  N         48.5800   15.2870  117.9440 N.3   263  LEU263     -0.1245
     66  CA        48.3270   14.1940  118.8830 C.3   263  LEU263      0.1561
     67  C         46.8440   14.2090  119.2070 C.2   263  LEU263      0.2260
     68  O         46.3440   15.0880  119.9180 O.2   263  LEU263     -0.2867
     69  CB        49.1820   14.3130  120.1580 C.3   263  LEU263      0.0270
     70  CG        49.1380   13.1830  121.2170 C.3   263  LEU263      0.0019
     71  CD1       49.1610   11.8090  120.5640 C.3   263  LEU263      0.0001
     72  CD2       50.2910   13.2620  122.2250 C.3   263  LEU263      0.0001
     73  N         45.0460   11.1420  124.3470 N.3   266  MET266     -0.1245
     74  CA        45.8860   10.4090  125.2500 C.3   266  MET266      0.1570
     75  C         45.0080    9.8100  126.3430 C.2   266  MET266      0.2261
     76  O         44.0930   10.4680  126.8660 O.2   266  MET266     -0.2867
     77  CB        46.9680   11.2900  125.8830 C.3   266  MET266      0.0387
     78  CG        48.0260   10.4790  126.6190 C.3   266  MET266      0.0595
     79  SD        48.6010    9.0600  125.6050 S.3   266  MET266     -0.1393
     80  CE        49.5950    9.8760  124.3340 C.3   266  MET266      0.0692
     81  N         52.8880   19.4200  127.3310 N.3   326  CYS326     -0.1235
     82  CA        54.0400   19.0320  126.4990 C.3   326  CYS326      0.1677
     83  C         55.3790   19.7060  126.8250 C.2   326  CYS326      0.2270
     84  O         55.5330   20.8940  126.6510 O.2   326  CYS326     -0.2867
     85  CB        53.6970   19.2970  125.0200 C.3   326  CYS326      0.0956
     86  SG        54.9840   18.7500  123.8610 S.3   326  CYS326     -0.0801
@<TRIPOS>BOND
     1    39    40    2
     2    39    38    1
     3    37    38    1
     4    38    41    1
     5    41    42    1
     6    65    66    1
     7    42    43   ar
     8    42    44   ar
     9    66    67    1
    10    66    69    1
    11    43    45   ar
    12    44    46   ar
    13    67    68    2
    14    59    58    2
    15    45    47   ar
    16    69    70    1
    17    46    47   ar
    18    64    63    2
    19    71    70    1
    20    57    58    1
    21    57    56    1
    22    57    60    1
    23    58    61   am
    24    63    62    1
    25    70    72    1
    26    61    62    1
    27    16    14   ar
    28    14    13    1
    29    14    15   ar
    30    13    12    2
    31     6     5    1
    32    86    85    1
    33    51    50    2
    34    12     9    1
    35     9     8    1
    36     9    10    1
    37    80    79    1
    38    73    74    1
    39     3     4    2
    40     3     2    1
    41     5     2    1
    42     5     7    1
    43    50    49    1
    44    85    82    1
    45     2     1    1
    46    10    11    2
    47    74    77    1
    48    74    75    1
    49    79    78    1
    50    49    48    1
    51    49    52    1
    52    25    23   am
    53    77    78    1
    54    75    76    2
    55    82    83    1
    56    82    81    1
    57    24    23    2
    58    54    53    1
    59    84    83    2
    60    23    22    1
    61    52    53    1
    62    53    55    1
    63    36    35   ar
    64    36    34   ar
    65    35    33   ar
    66    34    32   ar
    67    22    21    1
    68    33    31   ar
    69    32    31   ar
    70    31    30    1
    71    21    18    1
    72    30    27    1
    73    18    17    1
    74    18    19    1
    75    27    26    1
    76    27    28    1
    77    19    20    2
    78    28    29    2
