@<TRIPOS>MOLECULE
tmp/6g5uB00.pdb
 173 169 0 0 0
SMALL
GASTEIGER

@<TRIPOS>ATOM
      1  N        -20.4980   41.3530  -28.4380 N.3     2  TRP2       -0.1241
      2  CA       -19.3350   41.6720  -29.2520 C.3     2  TRP2        0.1605
      3  C        -18.9650   40.5040  -30.1570 C.2     2  TRP2        0.2264
      4  O        -19.3050   39.3300  -29.8870 O.2     2  TRP2       -0.2867
      5  CB       -18.1850   42.0530  -28.3070 C.3     2  TRP2        0.0550
      6  CG       -17.6830   40.8830  -27.5190 C.ar    2  TRP2        0.0003
      7  CD1      -18.1090   40.4690  -26.2770 C.ar    2  TRP2        0.0946
      8  CD2      -16.6280   40.0010  -27.9040 C.ar    2  TRP2        0.0152
      9  NE1      -17.3830   39.3800  -25.8550 N.ar    2  TRP2       -0.2442
     10  CE2      -16.4550   39.0600  -26.8290 C.ar    2  TRP2        0.0810
     11  CE3      -15.7950   39.9190  -29.0250 C.ar    2  TRP2        0.0012
     12  CZ2      -15.4860   38.0310  -26.8710 C.ar    2  TRP2        0.0191
     13  CZ3      -14.8250   38.8800  -29.0580 C.ar    2  TRP2        0.0001
     14  CH2      -14.6970   37.9430  -27.9990 C.ar    2  TRP2        0.0015
     15  N        -16.9470   28.7850  -28.3840 N.3    59  SER59      -0.1217
     16  CA       -17.3890   29.9080  -27.5600 C.3    59  SER59       0.1889
     17  C        -18.2420   30.9270  -28.3750 C.2    59  SER59       0.2288
     18  O        -18.8010   31.8700  -27.8160 O.2    59  SER59      -0.2866
     19  CB       -16.1590   30.6200  -26.9720 C.3    59  SER59       0.2089
     20  OG       -15.3990   31.2600  -28.0080 O.3    59  SER59      -0.2183
     21  N        -16.4410   32.6780  -30.5340 N.3    61  HIS61      -0.1226
     22  CA       -15.3240   33.5630  -30.8120 C.3    61  HIS61       0.1752
     23  C        -14.0250   32.8030  -31.2160 C.2    61  HIS61       0.2596
     24  O        -13.1110   33.4540  -31.8080 O.2    61  HIS61      -0.2718
     25  CB       -15.0130   34.4220  -29.5940 C.3    61  HIS61       0.0759
     26  CG       -16.2070   35.1310  -29.0740 C.ar   61  HIS61       0.0818
     27  ND1      -16.7530   34.8630  -27.8320 N.ar   61  HIS61      -0.2268
     28  CD2      -17.0340   36.0170  -29.6680 C.ar   61  HIS61       0.1154
     29  CE1      -17.8120   35.6390  -27.6420 C.ar   61  HIS61       0.1986
     30  NE2      -17.9870   36.3640  -28.7350 N.ar   61  HIS61      -0.2212
     31  N        -13.9320   31.4950  -30.9000 N.am   62  SER62      -0.1952
     32  CA       -12.8230   30.5850  -31.2040 C.3    62  SER62       0.1924
     33  C        -13.2820   29.2040  -30.6530 C.2    62  SER62       0.2314
     34  O        -14.4020   29.0890  -30.0900 O.2    62  SER62      -0.2863
     35  CB       -11.5150   31.0340  -30.4790 C.3    62  SER62       0.2116
     36  OG       -10.4220   30.2240  -31.0160 O.3    62  SER62      -0.2180
     37  N        -12.3880   26.6960  -27.4820 N.3    64  ASN64      -0.1240
     38  CA       -11.8000   26.9430  -26.2100 C.3    64  ASN64       0.1653
     39  C        -11.5920   25.5620  -25.6170 C.2    64  ASN64       0.2266
     40  O        -12.5720   24.7390  -25.5200 O.2    64  ASN64      -0.2867
     41  CB       -12.7920   27.7350  -25.3690 C.3    64  ASN64       0.1155
     42  CG       -12.3030   27.9720  -24.0300 C.2    64  ASN64       0.2627
     43  OD1      -11.5860   28.9470  -23.8000 O.2    64  ASN64      -0.2716
     44  ND2      -12.6230   27.0750  -23.0990 N.am   64  ASN64      -0.0877
     45  N         -7.2120   27.9250  -19.8820 N.3    89  GLN89      -0.1245
     46  CA        -7.8230   27.6380  -21.1700 C.3    89  GLN89       0.1566
     47  C         -6.8730   27.9080  -22.2890 C.2    89  GLN89       0.2260
     48  O         -5.8860   28.6450  -22.0910 O.2    89  GLN89      -0.2867
     49  CB        -9.1510   28.3180  -21.3960 C.3    89  GLN89       0.0367
     50  CG        -9.1620   29.8010  -21.1500 C.3    89  GLN89       0.0905
     51  CD        -9.0880   30.5370  -22.4490 C.2    89  GLN89       0.2608
     52  OE1       -8.3800   30.1100  -23.3950 O.2    89  GLN89      -0.2717
     53  NE2       -9.8600   31.6420  -22.5330 N.am   89  GLN89      -0.0878
     54  N         -7.0560   28.8460  -26.5750 N.3    91  HIS91      -0.1241
     55  CA        -7.8500   29.1850  -27.7900 C.3    91  HIS91       0.1621
     56  C         -6.9450   29.6470  -28.9290 C.2    91  HIS91       0.2264
     57  O         -5.7330   29.8030  -28.7580 O.2    91  HIS91      -0.2867
     58  CB        -8.9180   30.2300  -27.4570 C.3    91  HIS91       0.0745
     59  CG        -8.3410   31.4720  -26.9600 C.ar   91  HIS91       0.0817
     60  ND1       -8.0560   31.6860  -25.6170 N.ar   91  HIS91      -0.2268
     61  CD2       -7.9350   32.5900  -27.6400 C.ar   91  HIS91       0.1154
     62  CE1       -7.5380   32.9020  -25.4920 C.ar   91  HIS91       0.1986
     63  NE2       -7.4540   33.4680  -26.6900 N.ar   91  HIS91      -0.2212
     64  N         -6.4480   32.3590  -32.5170 N.3    93  HIS93      -0.1241
     65  CA        -6.9140   33.4380  -33.3880 C.3    93  HIS93       0.1621
     66  C         -6.3570   33.2590  -34.7980 C.2    93  HIS93       0.2264
     67  O         -5.1720   32.8640  -34.9860 O.2    93  HIS93      -0.2867
     68  CB        -6.3700   34.8040  -32.8470 C.3    93  HIS93       0.0745
     69  CG        -6.8160   35.1180  -31.4550 C.ar   93  HIS93       0.0817
     70  ND1       -7.9800   35.8060  -31.1550 N.ar   93  HIS93      -0.2268
     71  CD2       -6.2370   34.7980  -30.2560 C.ar   93  HIS93       0.1154
     72  CE1       -8.0520   35.9710  -29.8410 C.ar   93  HIS93       0.1986
     73  NE2       -7.0730   35.2890  -29.2790 N.ar   93  HIS93      -0.2212
     74  N         -3.2620   31.0110  -27.9310 N.3   116  HIS116     -0.1241
     75  CA        -3.0940   31.6280  -26.6350 C.3   116  HIS116      0.1621
     76  C         -3.3490   30.5770  -25.5490 C.2   116  HIS116      0.2264
     77  O         -4.3730   29.9140  -25.5910 O.2   116  HIS116     -0.2867
     78  CB        -4.0780   32.8150  -26.4620 C.3   116  HIS116      0.0745
     79  CG        -3.6640   34.0080  -27.2410 C.ar  116  HIS116      0.0817
     80  ND1       -4.5330   35.0220  -27.5910 N.ar  116  HIS116     -0.2268
     81  CD2       -2.4450   34.3380  -27.7660 C.ar  116  HIS116      0.1154
     82  CE1       -3.8540   35.9510  -28.2810 C.ar  116  HIS116      0.1986
     83  NE2       -2.5900   35.5610  -28.3900 N.ar  116  HIS116     -0.2212
     84  N         -3.9090   30.5110  -21.5140 N.3   118  VAL118     -0.1245
     85  CA        -4.3160   31.5650  -20.5390 C.3   118  VAL118      0.1561
     86  C         -4.1640   30.9580  -19.1410 C.2   118  VAL118      0.2260
     87  O         -4.6370   29.8250  -18.9290 O.2   118  VAL118     -0.2867
     88  CB        -5.8020   31.9560  -20.7680 C.3   118  VAL118      0.0252
     89  CG1       -6.2610   32.9650  -19.6810 C.3   118  VAL118      0.0019
     90  CG2       -5.9530   32.5230  -22.1960 C.3   118  VAL118      0.0019
     91  N        -10.0340   32.4550  -11.6160 N.3   128  PHE128     -0.1241
     92  CA        -9.7300   33.0540  -12.8710 C.3   128  PHE128      0.1605
     93  C        -10.5190   34.3290  -13.0450 C.2   128  PHE128      0.2264
     94  O         -9.9830   35.3320  -13.4700 O.2   128  PHE128     -0.2867
     95  CB       -10.0740   32.0360  -13.9590 C.3   128  PHE128      0.0534
     96  CG       -10.0210   32.5890  -15.3460 C.ar  128  PHE128     -0.0203
     97  CD1       -8.8280   33.0980  -15.8670 C.ar  128  PHE128     -0.0042
     98  CD2      -11.1570   32.4900  -16.1750 C.ar  128  PHE128     -0.0042
     99  CE1       -8.7810   33.6180  -17.1500 C.ar  128  PHE128     -0.0003
    100  CE2      -11.0930   32.9650  -17.5010 C.ar  128  PHE128     -0.0003
    101  CZ        -9.8780   33.5290  -17.9760 C.ar  128  PHE128     -0.0000
    102  N         -3.2040   37.6490  -14.5390 N.3   138  LEU138     -0.1245
    103  CA        -3.1980   36.6670  -15.6280 C.3   138  LEU138      0.1561
    104  C         -1.8180   36.6400  -16.3140 C.2   138  LEU138      0.2260
    105  O         -1.0880   37.6400  -16.3070 O.2   138  LEU138     -0.2867
    106  CB        -4.2210   37.0420  -16.6870 C.3   138  LEU138      0.0270
    107  CG        -5.6880   37.1470  -16.1450 C.3   138  LEU138      0.0019
    108  CD1       -6.5670   37.4770  -17.3730 C.3   138  LEU138      0.0001
    109  CD2       -6.2350   35.8700  -15.4820 C.3   138  LEU138      0.0001
    110  N         -0.4050   35.1320  -20.1640 N.3   140  VAL140     -0.1245
    111  CA        -0.8070   34.4020  -21.3870 C.3   140  VAL140      0.1561
    112  C          0.4420   34.1150  -22.2050 C.2   140  VAL140      0.2260
    113  O          1.2820   35.0420  -22.4200 O.2   140  VAL140     -0.2867
    114  CB        -1.8120   35.2300  -22.2120 C.3   140  VAL140      0.0252
    115  CG1       -2.2220   34.4170  -23.4720 C.3   140  VAL140      0.0019
    116  CG2       -3.0590   35.5440  -21.3450 C.3   140  VAL140      0.0019
    117  N         -6.3800   41.5500  -21.9490 N.3   195  LEU195     -0.1231
    118  CA        -7.1700   40.6150  -22.8190 C.3   195  LEU195      0.1693
    119  C         -7.2910   41.2650  -24.1790 C.2   195  LEU195      0.2593
    120  O         -7.4590   42.4990  -24.2600 O.2   195  LEU195     -0.2718
    121  CB        -8.5790   40.5160  -22.3180 C.3   195  LEU195      0.0284
    122  CG        -8.9020   39.4490  -21.2650 C.3   195  LEU195      0.0019
    123  CD1       -8.0410   39.6240  -20.0110 C.3   195  LEU195      0.0001
    124  CD2      -10.3840   39.4730  -20.8780 C.3   195  LEU195      0.0001
    125  N         -7.2110   40.4400  -25.2210 N.am  196  THR196     -0.1939
    126  CA        -7.3860   40.9980  -26.5830 C.3   196  THR196      0.2028
    127  C         -8.8360   40.9220  -27.0820 C.2   196  THR196      0.2642
    128  O         -9.1340   41.2220  -28.2870 O.2   196  THR196     -0.2714
    129  CB        -6.5180   40.2780  -27.6030 C.3   196  THR196      0.1808
    130  OG1       -6.9800   38.9350  -27.7000 O.3   196  THR196     -0.2208
    131  CG2       -5.0450   40.3010  -27.1930 C.3   196  THR196      0.0379
    132  N         -9.7410   40.5760  -26.1740 N.am  197  VAL197     -0.1963
    133  CA       -11.1950   40.5040  -26.4170 C.3   197  VAL197      0.1712
    134  C        -11.8710   41.2120  -25.2490 C.2   197  VAL197      0.2458
    135  O        -11.3070   41.2960  -24.1560 O.2   197  VAL197     -0.2730
    136  CB       -11.7210   39.0430  -26.4560 C.3   197  VAL197      0.0289
    137  CG1      -11.0730   38.2750  -27.6230 C.3   197  VAL197      0.0023
    138  CG2      -11.4090   38.3060  -25.1590 C.3   197  VAL197      0.0023
    139  N        -13.0490   41.7960  -25.4770 N.am  198  PRO198     -0.2716
    140  CA       -13.8840   42.2430  -24.3770 C.3   198  PRO198      0.1521
    141  C        -13.9180   41.2370  -23.2480 C.2   198  PRO198      0.2440
    142  O        -14.1100   40.0390  -23.4540 O.2   198  PRO198     -0.2731
    143  CB       -15.2790   42.3400  -25.0570 C.3   198  PRO198      0.0310
    144  CG       -14.9070   42.8590  -26.4080 C.3   198  PRO198      0.0237
    145  CD       -13.8030   41.8810  -26.7670 C.3   198  PRO198      0.0939
    146  N        -13.7660   41.6900  -22.0090 N.am  199  PRO199     -0.2727
    147  CA       -13.7930   43.0630  -21.5650 C.3   199  PRO199      0.1402
    148  C        -12.4580   43.8560  -21.6420 C.2   199  PRO199      0.2269
    149  O        -12.3850   44.9870  -21.0490 O.2   199  PRO199     -0.2865
    150  CB       -14.2880   42.9100  -20.0860 C.3   199  PRO199      0.0296
    151  CG       -13.7650   41.5350  -19.6680 C.3   199  PRO199      0.0237
    152  CD       -13.8740   40.7070  -20.9170 C.3   199  PRO199      0.0939
    153  N         -2.9330   41.3040  -17.8510 N.3   204  VAL204     -0.1245
    154  CA        -2.1690   40.2090  -18.5020 C.3   204  VAL204      0.1561
    155  C         -0.6580   40.5290  -18.6000 C.2   204  VAL204      0.2260
    156  O         -0.2690   41.5600  -19.1700 O.2   204  VAL204     -0.2867
    157  CB        -2.6920   39.9270  -19.9650 C.3   204  VAL204      0.0252
    158  CG1       -1.8790   38.7370  -20.5190 C.3   204  VAL204      0.0019
    159  CG2       -4.2130   39.5670  -19.9340 C.3   204  VAL204      0.0019
    160  N          1.9370   39.3020  -20.7440 N.3   206  TRP206     -0.1241
    161  CA         2.1660   38.6320  -22.0190 C.3   206  TRP206      0.1605
    162  C          3.5760   38.0440  -22.1500 C.2   206  TRP206      0.2264
    163  O          4.5780   38.6870  -21.8070 O.2   206  TRP206     -0.2867
    164  CB         1.9250   39.6320  -23.1900 C.3   206  TRP206      0.0550
    165  CG         0.4640   39.7280  -23.4700 C.ar  206  TRP206      0.0003
    166  CD1       -0.4250   40.6890  -23.0210 C.ar  206  TRP206      0.0946
    167  CD2       -0.3030   38.7780  -24.2030 C.ar  206  TRP206      0.0152
    168  NE1       -1.7010   40.3510  -23.4060 N.ar  206  TRP206     -0.2442
    169  CE2       -1.6610   39.1970  -24.1360 C.ar  206  TRP206      0.0810
    170  CE3        0.0240   37.6000  -24.9220 C.ar  206  TRP206      0.0012
    171  CZ2       -2.7150   38.4730  -24.7460 C.ar  206  TRP206      0.0191
    172  CZ3       -1.0080   36.9070  -25.5700 C.ar  206  TRP206      0.0001
    173  CH2       -2.3510   37.3000  -25.4310 C.ar  206  TRP206      0.0015
@<TRIPOS>BOND
     1    67    66    2
     2    66    65    1
     3    65    68    1
     4    65    64    1
     5    68    69    1
     6    24    23    2
     7    69    70   ar
     8    69    71   ar
     9    23    31   am
    10    23    22    1
    11    32    31    1
    12    32    33    1
    13    32    35    1
    14    70    72   ar
    15    36    35    1
    16    22    21    1
    17    22    25    1
    18    33    34    2
    19    71    73   ar
    20     3     4    2
    21     3     2    1
    22    72    73   ar
    23    28    26   ar
    24    28    30   ar
    25    25    26    1
    26     2     1    1
    27     2     5    1
    28    26    27   ar
    29    13    11   ar
    30    13    14   ar
    31    11     8   ar
    32    56    57    2
    33    56    55    1
    34    30    29   ar
    35    83    82   ar
    36    83    81   ar
    37    15    16    1
    38    17    18    2
    39    17    16    1
    40     5     6    1
    41   128   127    2
    42    82    80   ar
    43    20    19    1
    44    14    12   ar
    45    74    75    1
    46     8     6   ar
    47     8    10   ar
    48    27    29   ar
    49    55    58    1
    50    55    54    1
    51    81    79   ar
    52   130   129    1
    53    61    59   ar
    54    61    63   ar
    55   137   136    1
    56   129   131    1
    57   129   126    1
    58    80    79   ar
    59    16    19    1
    60     6     7   ar
    61    37    38    1
    62    58    59    1
    63    79    78    1
    64   127   126    1
    65   127   132   am
    66    59    60   ar
    67    12    10   ar
    68    10     9   ar
    69   145   144    1
    70   145   139    1
    71    63    62   ar
    72    75    78    1
    73    75    76    1
    74   126   125    1
    75   136   133    1
    76   136   138    1
    77   133   132    1
    78   133   134    1
    79   144   143    1
    80     7     9   ar
    81    38    39    1
    82    38    41    1
    83    39    40    2
    84    60    62   ar
    85    77    76    2
    86   172   173   ar
    87   172   170   ar
    88   139   134   am
    89   139   140    1
    90   173   171   ar
    91    41    42    1
    92   134   135    2
    93   125   119   am
    94   143   140    1
    95   170   167   ar
    96   171   169   ar
    97   140   141    1
    98   120   119    2
    99   167   169   ar
   100   167   165   ar
   101   119   118    1
   102   169   168   ar
   103    42    43    2
   104    42    44   am
   105   115   114    1
   106   165   164    1
   107   165   166   ar
   108   142   141    2
   109   168   166   ar
   110    52    51    2
   111   141   146   am
   112   164   161    1
   113   118   121    1
   114   118   117    1
   115    53    51   am
   116    51    50    1
   117   113   112    2
   118   121   122    1
   119    47    48    2
   120    47    46    1
   121   114   111    1
   122   114   116    1
   123   112   111    1
   124    90    88    1
   125   162   161    1
   126   162   163    2
   127   161   160    1
   128   146   147    1
   129   146   152    1
   130   148   147    1
   131   148   149    2
   132   147   150    1
   133    84    85    1
   134    49    46    1
   135    49    50    1
   136   111   110    1
   137   122   124    1
   138   122   123    1
   139    46    45    1
   140   152   151    1
   141    88    85    1
   142    88    89    1
   143    85    86    1
   144   158   157    1
   145   150   151    1
   146   157   159    1
   147   157   154    1
   148   156   155    2
   149    86    87    2
   150   155   154    1
   151   154   153    1
   152   101   100   ar
   153   101    99   ar
   154   100    98   ar
   155   108   107    1
   156    99    97   ar
   157   106   107    1
   158   106   103    1
   159   104   105    2
   160   104   103    1
   161    98    96   ar
   162   107   109    1
   163    97    96   ar
   164   103   102    1
   165    96    95    1
   166    95    92    1
   167    94    93    2
   168    93    92    1
   169    92    91    1
