@<TRIPOS>MOLECULE
tmp/6g63D00.pdb
 119 106 0 0 0
SMALL
GASTEIGER

@<TRIPOS>ATOM
      1  N         25.3330  -56.3980   31.6580 N.3   114  SER114     -0.1217
      2  CA        26.7660  -56.2540   31.8890 C.3   114  SER114      0.1889
      3  C         27.0810  -54.8830   32.4780 C.2   114  SER114      0.2288
      4  O         26.5180  -53.8700   32.0500 O.2   114  SER114     -0.2866
      5  CB        27.5540  -56.4440   30.5860 C.3   114  SER114      0.2089
      6  OG        27.2100  -55.4550   29.6270 O.3   114  SER114     -0.2183
      7  N         30.2980  -52.3180   33.2050 N.3   116  ALA116     -0.1245
      8  CA        31.6670  -52.0380   32.7810 C.3   116  ALA116      0.1562
      9  C         32.2900  -50.9710   33.6760 C.2   116  ALA116      0.2260
     10  O         31.7260  -49.8830   33.8320 O.2   116  ALA116     -0.2867
     11  CB        31.7050  -51.5790   31.3200 C.3   116  ALA116      0.0290
     12  N         35.0140  -55.4890   33.1180 N.3   121  VAL121     -0.1245
     13  CA        33.5860  -55.6380   32.8620 C.3   121  VAL121      0.1561
     14  C         33.0710  -56.8540   33.6210 C.2   121  VAL121      0.2260
     15  O         33.6540  -57.9410   33.5310 O.2   121  VAL121     -0.2867
     16  CB        33.3100  -55.7880   31.3570 C.3   121  VAL121      0.0252
     17  CG1       31.8150  -55.8730   31.0930 C.3   121  VAL121      0.0019
     18  CG2       33.9360  -54.6320   30.5830 C.3   121  VAL121      0.0019
     19  N         30.0380  -59.5920   34.3830 N.3   123  MET123     -0.1245
     20  CA        28.9950  -60.3080   33.6550 C.3   123  MET123      0.1570
     21  C         28.1450  -61.1310   34.6200 C.2   123  MET123      0.2261
     22  O         28.2770  -62.3630   34.6650 O.2   123  MET123     -0.2867
     23  CB        29.6180  -61.2320   32.6040 C.3   123  MET123      0.0387
     24  CG        30.5470  -60.5360   31.6110 C.3   123  MET123      0.0595
     25  SD        29.7140  -59.4190   30.4670 S.3   123  MET123     -0.1393
     26  CE        28.9690  -60.5930   29.3370 C.3   123  MET123      0.0692
     27  N         41.2810  -58.5740   27.3600 N.3   133  SER133     -0.1217
     28  CA        41.3710  -57.8900   26.0770 C.3   133  SER133      0.1889
     29  C         42.6270  -58.2870   25.3120 C.2   133  SER133      0.2288
     30  O         43.7370  -58.2760   25.8530 O.2   133  SER133     -0.2866
     31  CB        41.3550  -56.3770   26.2930 C.3   133  SER133      0.2089
     32  OG        41.3450  -55.6910   25.0540 O.3   133  SER133     -0.2183
     33  N         44.2740  -56.8390   23.2010 N.3   135  ARG135     -0.1245
     34  CA        45.2240  -55.7350   23.1360 C.3   135  ARG135      0.1563
     35  C         46.3200  -55.8360   24.1880 C.2   135  ARG135      0.2260
     36  O         47.3190  -55.1140   24.0890 O.2   135  ARG135     -0.2867
     37  CB        44.4300  -54.4330   23.2500 C.3   135  ARG135      0.0307
     38  CG        43.5710  -54.2140   22.0070 C.3   135  ARG135      0.0489
     39  CD        42.4660  -53.1790   22.1650 C.3   135  ARG135      0.2205
     40  NE        41.7260  -53.0370   20.9080 N.pl3 135  ARG135     -0.0865
     41  CZ        40.4470  -53.3570   20.7240 C.cat 135  ARG135      0.5346
     42  NH1       39.6640  -53.6590   21.7530 N.pl3 135  ARG135      0.1354
     43  NH2       39.9060  -53.1990   19.5210 N.pl3 135  ARG135      0.1354
     44  N         35.4740  -59.9070   32.4390 N.3   154  ILE154     -0.1245
     45  CA        36.5020  -59.6710   31.4280 C.3   154  ILE154      0.1561
     46  C         37.3510  -58.4920   31.8910 C.2   154  ILE154      0.2260
     47  O         36.8340  -57.5650   32.5190 O.2   154  ILE154     -0.2867
     48  CB        35.8810  -59.4130   30.0370 C.3   154  ILE154      0.0252
     49  CG1       35.0540  -60.6280   29.5880 C.3   154  ILE154      0.0019
     50  CG2       36.9650  -59.1000   29.0090 C.3   154  ILE154      0.0019
     51  CD1       34.0760  -60.3330   28.4600 C.3   154  ILE154      0.0001
     52  N         39.8470  -55.2890   31.0020 N.3   156  ARG156     -0.1231
     53  CA        40.1240  -54.2790   29.9900 C.3   156  ARG156      0.1694
     54  C         41.6330  -54.0890   29.8100 C.2   156  ARG156      0.2592
     55  O         42.4420  -54.4910   30.6520 O.2   156  ARG156     -0.2718
     56  CB        39.4540  -52.9670   30.4090 C.3   156  ARG156      0.0321
     57  CG        37.9290  -53.0660   30.4310 C.3   156  ARG156      0.0489
     58  CD        37.2460  -51.9860   31.2670 C.3   156  ARG156      0.2205
     59  NE        37.9220  -50.6900   31.2860 N.pl3 156  ARG156     -0.0865
     60  CZ        37.5720  -49.6360   30.5540 C.cat 156  ARG156      0.5346
     61  NH1       36.5600  -49.7080   29.6970 N.pl3 156  ARG156      0.1354
     62  NH2       38.2580  -48.5050   30.6680 N.pl3 156  ARG156      0.1354
     63  N         42.0070  -53.4720   28.6810 N.am  157  THR157     -0.1953
     64  CA        43.3590  -52.9340   28.5120 C.3   157  THR157      0.1897
     65  C         43.7600  -51.9840   29.6340 C.2   157  THR157      0.2313
     66  O         44.9480  -51.8840   29.9620 O.2   157  THR157     -0.2863
     67  CB        43.4990  -52.2430   27.1480 C.3   157  THR157      0.1794
     68  OG1       43.2820  -53.2010   26.1020 O.3   157  THR157     -0.2208
     69  CG2       44.8880  -51.6120   26.9790 C.3   157  THR157      0.0378
     70  N         35.2520  -43.8480   31.1820 N.3   206  ARG206     -0.1245
     71  CA        35.1320  -45.1730   30.5870 C.3   206  ARG206      0.1563
     72  C         35.2500  -45.1460   29.0640 C.2   206  ARG206      0.2260
     73  O         35.7810  -46.0960   28.4770 O.2   206  ARG206     -0.2867
     74  CB        33.8540  -45.8390   31.1160 C.3   206  ARG206      0.0307
     75  CG        33.5220  -47.2130   30.5650 C.3   206  ARG206      0.0489
     76  CD        32.2350  -47.7370   31.2010 C.3   206  ARG206      0.2205
     77  NE        31.0690  -46.8630   31.0830 N.pl3 206  ARG206     -0.0865
     78  CZ        30.0380  -46.8930   31.9290 C.cat 206  ARG206      0.5346
     79  NH1       29.0460  -46.0220   31.8160 N.pl3 206  ARG206      0.1354
     80  NH2       30.0380  -47.7400   32.9560 N.pl3 206  ARG206      0.1354
     81  N         42.7660  -43.4850   29.9910 N.3   210  ARG210     -0.1245
     82  CA        43.9140  -44.3550   30.2050 C.3   210  ARG210      0.1563
     83  C         45.0260  -43.5520   30.8720 C.2   210  ARG210      0.2260
     84  O         45.0950  -42.3250   30.7570 O.2   210  ARG210     -0.2867
     85  CB        44.4090  -44.9860   28.8880 C.3   210  ARG210      0.0307
     86  CG        43.4210  -45.9690   28.2420 C.3   210  ARG210      0.0489
     87  CD        43.2670  -47.2350   29.0880 C.3   210  ARG210      0.2205
     88  NE        41.9400  -47.8460   28.9950 N.pl3 210  ARG210     -0.0865
     89  CZ        41.5460  -48.6820   28.0380 C.cat 210  ARG210      0.5346
     90  NH1       42.3010  -48.8930   26.9680 N.pl3 210  ARG210      0.1354
     91  NH2       40.3220  -49.1920   28.0800 N.pl3 210  ARG210      0.1354
     92  N         39.2460  -49.0660   20.8390 N.3   355  ARG355     -0.1245
     93  CA        38.6980  -50.0500   21.7660 C.3   355  ARG355      0.1563
     94  C         37.2800  -50.4990   21.4100 C.2   355  ARG355      0.2260
     95  O         36.7950  -51.4710   22.0000 O.2   355  ARG355     -0.2867
     96  CB        38.8780  -49.5670   23.2240 C.3   355  ARG355      0.0307
     97  CG        38.1540  -48.3620   23.8220 C.3   355  ARG355      0.0489
     98  CD        38.7590  -48.2580   25.2570 C.3   355  ARG355      0.2205
     99  NE        38.1310  -47.3510   26.2240 N.pl3 355  ARG355     -0.0865
    100  CZ        38.7890  -46.4870   27.0070 C.cat 355  ARG355      0.5346
    101  NH1       40.0460  -46.1450   26.7560 N.pl3 355  ARG355      0.1354
    102  NH2       38.1070  -45.7490   27.8810 N.pl3 355  ARG355      0.1354
    103  N         31.6060  -51.7890   15.4470 N.3   374  GLN374     -0.1245
    104  CA        30.6700  -51.9210   16.5600 C.3   374  GLN374      0.1566
    105  C         29.8030  -50.6720   16.7570 C.2   374  GLN374      0.2260
    106  O         30.3090  -49.5520   16.8850 O.2   374  GLN374     -0.2867
    107  CB        31.5000  -52.2380   17.8140 C.3   374  GLN374      0.0367
    108  CG        30.7790  -52.7990   19.0250 C.3   374  GLN374      0.0905
    109  CD        31.7490  -53.0360   20.1770 C.2   374  GLN374      0.2608
    110  OE1       32.8780  -52.5360   20.1640 O.2   374  GLN374     -0.2717
    111  NE2       31.3280  -53.8270   21.1600 N.am  374  GLN374     -0.0878
    112  N         28.3520  -48.7330   18.9350 N.3   376  LEU376     -0.1245
    113  CA        28.2660  -48.2780   20.3230 C.3   376  LEU376      0.1561
    114  C         27.2520  -47.1540   20.5050 C.2   376  LEU376      0.2260
    115  O         26.5310  -47.1290   21.5090 O.2   376  LEU376     -0.2867
    116  CB        29.6310  -47.8370   20.8320 C.3   376  LEU376      0.0270
    117  CG        30.6390  -48.9680   20.9990 C.3   376  LEU376      0.0019
    118  CD1       31.9300  -48.4160   21.5620 C.3   376  LEU376      0.0001
    119  CD2       30.0830  -50.0690   21.9170 C.3   376  LEU376      0.0001
@<TRIPOS>BOND
     1   103   104    1
     2   104   105    1
     3   104   107    1
     4   105   106    2
     5   107   108    1
     6   112   113    1
     7   108   109    1
     8    43    41    1
     9   110   109    2
    10   109   111   am
    11   113   114    1
    12   113   116    1
    13   114   115    2
    14    41    40    2
    15    41    42    1
    16   116   117    1
    17    92    93    1
    18    40    39    1
    19   117   118    1
    20   117   119    1
    21    94    93    1
    22    94    95    2
    23    93    96    1
    24    38    39    1
    25    38    37    1
    26    34    33    1
    27    34    37    1
    28    34    35    1
    29    96    97    1
    30    97    98    1
    31    36    35    2
    32    32    31    1
    33    98    99    1
    34    29    30    2
    35    29    28    1
    36    28    31    1
    37    28    27    1
    38    68    67    1
    39    99   100    2
    40   101   100    1
    41    90    89    1
    42    69    67    1
    43   100   102    1
    44    67    64    1
    45    89    91    1
    46    89    88    2
    47    86    85    1
    48    86    87    1
    49    51    49    1
    50    73    72    2
    51    64    63    1
    52    64    65    1
    53    63    54   am
    54    85    82    1
    55    88    87    1
    56    50    48    1
    57    72    71    1
    58    26    25    1
    59    49    48    1
    60     6     5    1
    61    65    66    2
    62    61    60    1
    63    54    53    1
    64    54    55    2
    65    53    56    1
    66    53    52    1
    67    81    82    1
    68    48    45    1
    69    82    83    1
    70    56    57    1
    71    57    58    1
    72    25    24    1
    73    60    62    1
    74    60    59    2
    75    75    74    1
    76    75    76    1
    77    18    16    1
    78     5     2    1
    79    71    74    1
    80    71    70    1
    81    84    83    2
    82    77    76    1
    83    77    78    2
    84    17    16    1
    85    58    59    1
    86    11     8    1
    87    16    13    1
    88    45    46    1
    89    45    44    1
    90    24    23    1
    91     1     2    1
    92    79    78    1
    93     2     3    1
    94    46    47    2
    95    78    80    1
    96     4     3    2
    97    23    20    1
    98     8     7    1
    99     8     9    1
   100    13    12    1
   101    13    14    1
   102    15    14    2
   103    20    19    1
   104    20    21    1
   105     9    10    2
   106    21    22    2
