@<TRIPOS>MOLECULE
tmp/6g6tA01.pdb
 174 170 0 0 0
SMALL
GASTEIGER

@<TRIPOS>ATOM
      1  N          8.3920   -0.5830   10.4200 N.3     2  TRP2       -0.1241
      2  CA         7.6800   -1.5650   11.2570 C.3     2  TRP2        0.1605
      3  C          6.6810   -2.3600   10.4370 C.2     2  TRP2        0.2264
      4  O          6.1660   -1.8760    9.4290 O.2     2  TRP2       -0.2867
      5  CB         7.0740   -0.8560   12.4260 C.3     2  TRP2        0.0550
      6  CG         5.8820   -0.0480   12.0870 C.ar    2  TRP2        0.0003
      7  CD1        5.8260    1.2960   11.7220 C.ar    2  TRP2        0.0946
      8  CD2        4.4860   -0.5280   12.0670 C.ar    2  TRP2        0.0152
      9  NE1        4.5660    1.6820   11.5450 N.ar    2  TRP2       -0.2442
     10  CE2        3.7090    0.6000   11.7500 C.ar    2  TRP2        0.0810
     11  CE3        3.8880   -1.7600   12.3570 C.ar    2  TRP2        0.0012
     12  CZ2        2.3480    0.5710   11.6360 C.ar    2  TRP2        0.0191
     13  CZ3        2.4680   -1.8240   12.2260 C.ar    2  TRP2        0.0001
     14  CH2        1.7420   -0.6230   11.8850 C.ar    2  TRP2        0.0015
     15  N         -3.5000    0.3190    3.5190 N.3    59  ASN59      -0.1240
     16  CA        -2.3620    1.1250    3.9440 C.3    59  ASN59       0.1653
     17  C         -1.1260    0.3350    4.1060 C.2    59  ASN59       0.2266
     18  O         -0.1130    0.8620    4.5780 O.2    59  ASN59      -0.2867
     19  CB        -2.6530    1.8860    5.2290 C.3    59  ASN59       0.1155
     20  CG        -2.8590    0.9730    6.4200 C.2    59  ASN59       0.2627
     21  OD1       -2.3770   -0.1630    6.4440 O.2    59  ASN59      -0.2716
     22  ND2       -3.5890    1.4640    7.4040 N.am   59  ASN59      -0.0877
     23  N         -0.6530   -2.3620    6.2150 N.3    61  HIS61      -0.1226
     24  CA        -0.7550   -3.0030    7.6180 C.3    61  HIS61       0.1752
     25  C         -2.1410   -3.5840    7.7480 C.2    61  HIS61       0.2595
     26  O         -2.1870   -4.6980    8.3380 O.2    61  HIS61      -0.2718
     27  CB        -0.5270   -1.8950    8.6690 C.3    61  HIS61       0.0759
     28  CG         0.7980   -1.2030    8.5420 C.ar   61  HIS61       0.0818
     29  ND1        2.0050   -1.8580    8.6950 N.ar   61  HIS61      -0.2268
     30  CD2        1.0500    0.0900    8.2700 C.ar   61  HIS61       0.1154
     31  CE1        2.9630   -0.9510    8.5460 C.ar   61  HIS61       0.1986
     32  NE2        2.4260    0.2230    8.2130 N.ar   61  HIS61      -0.2212
     33  N         -3.1390   -2.9550    7.2740 N.am   62  ALA62      -0.1980
     34  CA        -4.4940   -3.4670    7.2460 C.3    62  ALA62       0.1597
     35  C         -5.1860   -2.7380    6.1260 C.2    62  ALA62       0.2287
     36  O         -4.5220   -2.0710    5.3160 O.2    62  ALA62      -0.2864
     37  CB        -5.1810   -3.3290    8.6390 C.3    62  ALA62       0.0319
     38  N         -8.2970    0.3540    5.7510 N.3    64  ASN64      -0.1240
     39  CA        -9.1590    1.3030    6.5250 C.3    64  ASN64       0.1653
     40  C        -10.4430    1.7720    5.7690 C.2    64  ASN64       0.2266
     41  O        -10.3200    2.2110    4.6170 O.2    64  ASN64      -0.2867
     42  CB        -8.3930    2.5960    6.9050 C.3    64  ASN64       0.1155
     43  CG        -7.2910    2.4040    7.9340 C.2    64  ASN64       0.2627
     44  OD1       -7.2310    1.3960    8.6250 O.2    64  ASN64      -0.2716
     45  ND2       -6.4390    3.4180    8.0570 N.am   64  ASN64      -0.0877
     46  N        -12.4820    6.1320   11.2380 N.3    89  GLN89      -0.1245
     47  CA       -12.1440    4.9850   10.3880 C.3    89  GLN89       0.1566
     48  C        -12.4330    3.7180   11.1690 C.2    89  GLN89       0.2260
     49  O        -12.5040    3.7360   12.3880 O.2    89  GLN89      -0.2867
     50  CB       -10.6890    4.9990    9.9400 C.3    89  GLN89       0.0367
     51  CG        -9.6550    5.0890   11.0750 C.3    89  GLN89       0.0905
     52  CD        -8.8820    3.8380   11.2200 C.2    89  GLN89       0.2608
     53  OE1       -9.4050    2.7090   11.2160 O.2    89  GLN89      -0.2717
     54  NE2       -7.5940    3.9900   11.3580 N.am   89  GLN89      -0.0878
     55  N        -10.9890   -0.5680   10.8770 N.3    91  HIS91      -0.1241
     56  CA       -10.1330   -1.5550   10.2830 C.3    91  HIS91       0.1621
     57  C        -10.2230   -2.8260   11.1030 C.2    91  HIS91       0.2264
     58  O        -10.8380   -2.8290   12.1640 O.2    91  HIS91      -0.2867
     59  CB        -8.6610   -1.0890   10.2040 C.3    91  HIS91       0.0745
     60  CG        -8.1240   -0.7940   11.5740 C.ar   91  HIS91       0.0817
     61  ND1       -8.2770    0.4200   12.2030 N.ar   91  HIS91      -0.2268
     62  CD2       -7.5380   -1.6470   12.4840 C.ar   91  HIS91       0.1154
     63  CE1       -7.8110    0.2870   13.4520 C.ar   91  HIS91       0.1986
     64  NE2       -7.3580   -0.9530   13.6670 N.ar   91  HIS91      -0.2212
     65  N         -7.9270   -6.5900   12.4220 N.3    93  HIS93      -0.1241
     66  CA        -6.7500   -7.3920   12.5740 C.3    93  HIS93       0.1621
     67  C         -7.1880   -8.8450   12.4640 C.2    93  HIS93       0.2264
     68  O         -8.2610   -9.1890   12.9850 O.2    93  HIS93      -0.2867
     69  CB        -6.0530   -7.1610   13.9360 C.3    93  HIS93       0.0745
     70  CG        -5.7620   -5.7230   14.2130 C.ar   93  HIS93       0.0817
     71  ND1       -4.5390   -5.1500   14.0380 N.ar   93  HIS93      -0.2268
     72  CD2       -6.5820   -4.7110   14.6240 C.ar   93  HIS93       0.1154
     73  CE1       -4.6100   -3.8750   14.3440 C.ar   93  HIS93       0.1986
     74  NE2       -5.8650   -3.5480   14.7010 N.ar   93  HIS93      -0.2212
     75  N        -11.8700   -2.7440   14.8200 N.3   116  HIS116     -0.1241
     76  CA       -11.6160   -1.5360   15.5890 C.3   116  HIS116      0.1621
     77  C        -12.2920   -0.3590   14.9030 C.2   116  HIS116      0.2264
     78  O        -11.9160    0.0020   13.7880 O.2   116  HIS116     -0.2867
     79  CB       -10.1140   -1.2520   15.7130 C.3   116  HIS116      0.0745
     80  CG        -9.4310   -2.2510   16.5710 C.ar  116  HIS116      0.0817
     81  ND1       -8.0730   -2.5020   16.5500 N.ar  116  HIS116     -0.2268
     82  CD2       -9.9910   -3.0640   17.5230 C.ar  116  HIS116      0.1154
     83  CE1       -7.8360   -3.4330   17.4450 C.ar  116  HIS116      0.1986
     84  NE2       -8.9430   -3.7810   18.0740 N.ar  116  HIS116     -0.2212
     85  N        -12.5680    3.4620   15.2290 N.3   118  VAL118     -0.1245
     86  CA       -11.7160    4.4970   15.8690 C.3   118  VAL118      0.1561
     87  C        -12.4530    5.8360   15.8780 C.2   118  VAL118      0.2260
     88  O        -12.8950    6.2960   14.8230 O.2   118  VAL118     -0.2867
     89  CB       -10.3980    4.6010   15.0950 C.3   118  VAL118      0.0252
     90  CG1       -9.4940    5.6720   15.7200 C.3   118  VAL118      0.0019
     91  CG2       -9.6740    3.2590   15.0090 C.3   118  VAL118      0.0019
     92  N         -8.3150   14.6660   14.8280 N.3   127  PHE127     -0.1241
     93  CA        -7.6470   13.4330   15.2360 C.3   127  PHE127      0.1605
     94  C         -6.1860   13.6500   15.6490 C.2   127  PHE127      0.2264
     95  O         -5.7160   13.0900   16.6210 O.2   127  PHE127     -0.2867
     96  CB        -7.7340   12.4490   14.0680 C.3   127  PHE127      0.0534
     97  CG        -7.0750   11.1590   14.3340 C.ar  127  PHE127     -0.0203
     98  CD1       -7.7150   10.1090   14.9770 C.ar  127  PHE127     -0.0042
     99  CD2       -5.7420   10.9240   13.9620 C.ar  127  PHE127     -0.0042
    100  CE1       -7.0900    8.9030   15.2070 C.ar  127  PHE127     -0.0003
    101  CE2       -5.1120    9.7520   14.1530 C.ar  127  PHE127     -0.0003
    102  CZ        -5.7840    8.6980   14.7950 C.ar  127  PHE127     -0.0000
    103  N         -8.8850    9.4000   22.2150 N.3   137  LEU137     -0.1245
    104  CA        -9.5590    8.4620   21.3220 C.3   137  LEU137      0.1561
    105  C        -10.4060    7.5040   22.1200 C.2   137  LEU137      0.2260
    106  O        -10.1380    7.2260   23.3000 O.2   137  LEU137     -0.2867
    107  CB        -8.5590    7.6130   20.5160 C.3   137  LEU137      0.0270
    108  CG        -7.6350    8.3300   19.5480 C.3   137  LEU137      0.0019
    109  CD1       -6.8910    7.2720   18.7160 C.3   137  LEU137      0.0001
    110  CD2       -8.3060    9.3160   18.6400 C.3   137  LEU137      0.0001
    111  N        -11.8710    3.6140   21.1080 N.3   139  VAL139     -0.1245
    112  CA       -11.9240    2.5510   20.1210 C.3   139  VAL139      0.1561
    113  C        -12.9360    1.5420   20.5960 C.2   139  VAL139      0.2260
    114  O        -12.8330    1.0300   21.7050 O.2   139  VAL139     -0.2867
    115  CB       -10.5680    1.9330   19.7840 C.3   139  VAL139      0.0252
    116  CG1      -10.7550    0.9050   18.6710 C.3   139  VAL139      0.0019
    117  CG2       -9.5740    3.0020   19.3730 C.3   139  VAL139      0.0019
    118  N         -2.8600    3.0110   21.2370 N.3   194  LEU194     -0.1231
    119  CA        -2.9900    2.4980   19.8860 C.3   194  LEU194      0.1693
    120  C         -2.2180    1.1220   19.9260 C.2   194  LEU194      0.2593
    121  O         -1.1940    0.9680   20.6520 O.2   194  LEU194     -0.2718
    122  CB        -2.1270    3.3260   18.9420 C.3   194  LEU194      0.0284
    123  CG        -2.8090    4.4460   18.1830 C.3   194  LEU194      0.0019
    124  CD1       -3.6270    5.4160   19.0150 C.3   194  LEU194      0.0001
    125  CD2       -1.8720    5.1530   17.2490 C.3   194  LEU194      0.0001
    126  N         -2.6920    0.1470   19.1500 N.am  195  THR195     -0.1939
    127  CA        -1.9890   -1.1370   19.0800 C.3   195  THR195      0.2028
    128  C         -0.9980   -1.2020   17.9440 C.2   195  THR195      0.2643
    129  O         -0.3540   -2.2650   17.7710 O.2   195  THR195     -0.2714
    130  CB        -2.9980   -2.2800   18.9440 C.3   195  THR195      0.1808
    131  OG1       -3.5490   -2.2230   17.6390 O.3   195  THR195     -0.2208
    132  CG2       -4.0450   -2.3180   20.0370 C.3   195  THR195      0.0379
    133  N         -0.9010   -0.1510   17.1590 N.am  196  THR196     -0.1937
    134  CA         0.1020   -0.0330   16.0950 C.3   196  THR196      0.2013
    135  C          0.9650    1.1750   16.4470 C.2   196  THR196      0.2484
    136  O          0.5390    2.1280   17.0680 O.2   196  THR196     -0.2729
    137  CB        -0.5660    0.2650   14.7330 C.3   196  THR196      0.1807
    138  OG1       -1.3440    1.4350   14.7820 O.3   196  THR196     -0.2208
    139  CG2       -1.3900   -0.8810   14.2970 C.3   196  THR196      0.0379
    140  N          2.2340    1.1690   15.9720 N.am  197  PRO197     -0.2715
    141  CA         3.0360    2.3810   16.0460 C.3   197  PRO197      0.1521
    142  C          2.1890    3.5750   15.5000 C.2   197  PRO197      0.2440
    143  O          1.4900    3.4260   14.4860 O.2   197  PRO197     -0.2731
    144  CB         4.2150    2.0320   15.1530 C.3   197  PRO197      0.0310
    145  CG         4.4290    0.5850   15.4260 C.3   197  PRO197      0.0237
    146  CD         3.0080    0.0390   15.3630 C.3   197  PRO197      0.0939
    147  N          2.2640    4.7350   16.1540 N.am  198  PRO198     -0.2727
    148  CA         3.2180    5.1230   17.2100 C.3   198  PRO198      0.1402
    149  C          2.8170    4.7080   18.6070 C.2   198  PRO198      0.2269
    150  O          3.5080    5.1310   19.5710 O.2   198  PRO198     -0.2865
    151  CB         3.2850    6.6570   17.0560 C.3   198  PRO198      0.0296
    152  CG         1.9020    7.0330   16.5380 C.3   198  PRO198      0.0237
    153  CD         1.5140    5.9180   15.6280 C.3   198  PRO198      0.0939
    154  N         -5.9760    6.1160   24.2900 N.3   203  VAL203     -0.1245
    155  CA        -7.2160    5.4300   23.9340 C.3   203  VAL203      0.1561
    156  C         -7.9700    4.9530   25.1590 C.2   203  VAL203      0.2260
    157  O         -7.4380    4.3040   26.0460 O.2   203  VAL203     -0.2867
    158  CB        -6.9080    4.1610   23.0830 C.3   203  VAL203      0.0252
    159  CG1       -8.2470    3.4420   22.7310 C.3   203  VAL203      0.0019
    160  CG2       -6.1900    4.5530   21.7610 C.3   203  VAL203      0.0019
    161  N        -10.3960    2.1410   25.6260 N.3   205  TRP205     -0.1241
    162  CA       -10.8490    0.9450   24.9170 C.3   205  TRP205      0.1605
    163  C        -12.2180    0.5310   25.4410 C.2   205  TRP205      0.2264
    164  O        -12.4340    0.4670   26.6600 O.2   205  TRP205     -0.2867
    165  CB        -9.8310   -0.2120   25.1350 C.3   205  TRP205      0.0550
    166  CG        -8.7090   -0.1060   24.1720 C.ar  205  TRP205      0.0003
    167  CD1       -7.4810    0.4950   24.3250 C.ar  205  TRP205      0.0946
    168  CD2       -8.7810   -0.5130   22.8090 C.ar  205  TRP205      0.0152
    169  NE1       -6.8090    0.4930   23.1610 N.ar  205  TRP205     -0.2442
    170  CE2       -7.5440   -0.1240   22.2020 C.ar  205  TRP205      0.0810
    171  CE3       -9.7440   -1.1680   22.0150 C.ar  205  TRP205      0.0012
    172  CZ2       -7.2760   -0.3600   20.8400 C.ar  205  TRP205      0.0191
    173  CZ3       -9.4680   -1.4390   20.7160 C.ar  205  TRP205      0.0001
    174  CH2       -8.2520   -1.0100   20.1190 C.ar  205  TRP205      0.0015
@<TRIPOS>BOND
     1    15    16    1
     2    16    17    1
     3    16    19    1
     4    17    18    2
     5    41    40    2
     6    19    20    1
     7    36    35    2
     8    38    39    1
     9    40    39    1
    10    35    34    1
    11    23    24    1
    12    20    21    2
    13    20    22   am
    14    39    42    1
    15    42    43    1
    16    34    33    1
    17    34    37    1
    18    33    25   am
    19    24    25    1
    20    24    27    1
    21    25    26    2
    22    43    45   am
    23    43    44    2
    24    32    30   ar
    25    32    31   ar
    26    30    28   ar
    27    28    27    1
    28    28    29   ar
    29    31    29   ar
    30     4     3    2
    31    50    47    1
    32    50    51    1
    33    59    56    1
    34    59    60    1
    35    56    55    1
    36    56    57    1
    37    47    48    1
    38    47    46    1
    39     1     2    1
    40     3     2    1
    41    51    52    1
    42    57    58    2
    43    48    49    2
    44    53    52    2
    45    52    54   am
    46     2     5    1
    47     9     7   ar
    48     9    10   ar
    49    60    61   ar
    50    60    62   ar
    51    12    10   ar
    52    12    14   ar
    53     7     6   ar
    54    10     8   ar
    55    14    13   ar
    56     8     6   ar
    57     8    11   ar
    58     6     5    1
    59    61    63   ar
    60    13    11   ar
    61    65    66    1
    62    67    66    1
    63    67    68    2
    64    62    64   ar
    65    66    69    1
    66    63    64   ar
    67    78    77    2
    68    69    70    1
    69    99   101   ar
    70    99    97   ar
    71    71    70   ar
    72    71    73   ar
    73    96    97    1
    74    96    93    1
    75   101   102   ar
    76    70    72   ar
    77   139   137    1
    78    97    98   ar
    79    73    74   ar
    80   143   142    2
    81    72    74   ar
    82   137   138    1
    83   137   134    1
    84   102   100   ar
    85    75    76    1
    86    88    87    2
    87    92    93    1
    88    77    76    1
    89    98   100   ar
    90    91    89    1
    91    89    90    1
    92    89    86    1
    93   144   145    1
    94   144   141    1
    95    85    86    1
    96    93    94    1
    97   146   145    1
    98   146   140    1
    99   142   141    1
   100   142   147   am
   101    76    79    1
   102   153   147    1
   103   153   152    1
   104    94    95    2
   105    79    80    1
   106    86    87    1
   107   140   141    1
   108   140   135   am
   109   134   135    1
   110   134   133    1
   111   147   148    1
   112   135   136    2
   113   152   151    1
   114    81    80   ar
   115    81    83   ar
   116    80    82   ar
   117   151   148    1
   118   133   128   am
   119   148   149    1
   120   125   123    1
   121    83    84   ar
   122    82    84   ar
   123   131   130    1
   124   129   128    2
   125   128   127    1
   126   123   122    1
   127   123   124    1
   128   149   150    2
   129   110   108    1
   130   116   115    1
   131   109   108    1
   132   122   119    1
   133   130   127    1
   134   130   132    1
   135   127   126    1
   136   126   120   am
   137   117   115    1
   138   108   107    1
   139   115   112    1
   140   119   120    1
   141   119   118    1
   142   120   121    2
   143   174   173   ar
   144   174   172   ar
   145   112   113    1
   146   112   111    1
   147   107   104    1
   148   113   114    2
   149   173   171   ar
   150   172   170   ar
   151   104   105    1
   152   104   103    1
   153   160   158    1
   154   171   168   ar
   155   105   106    2
   156   170   168   ar
   157   170   169   ar
   158   159   158    1
   159   168   166   ar
   160   158   155    1
   161   169   167   ar
   162   155   154    1
   163   155   156    1
   164   166   167   ar
   165   166   165    1
   166   162   165    1
   167   162   163    1
   168   162   161    1
   169   156   157    2
   170   163   164    2
