@<TRIPOS>MOLECULE
tmp/6g6wA00.pdb
 224 213 0 0 0
SMALL
GASTEIGER

@<TRIPOS>ATOM
      1  N         53.3790    5.7150   27.8670 N.3   626  LYS626     -0.1245
      2  CA        52.4960    6.8930   27.6980 C.3   626  LYS626      0.1561
      3  C         53.1670    8.2250   27.3010 C.2   626  LYS626      0.2260
      4  O         52.6910    8.8700   26.3680 O.2   626  LYS626     -0.2867
      5  CB        51.5910    7.1000   28.9310 C.3   626  LYS626      0.0271
      6  CG        50.7190    8.3520   28.8540 C.3   626  LYS626      0.0035
      7  CD        49.5040    8.2820   29.7570 C.3   626  LYS626      0.0206
      8  CE        48.7410    9.5920   29.7170 C.3   626  LYS626      0.1093
      9  NZ        47.4250    9.4830   30.3960 N.3   626  LYS626     -0.1314
     10  N         45.8750   15.6240   25.5470 N.3   668  THR668     -0.1203
     11  CA        46.3440   14.3010   26.0040 C.3   668  THR668      0.1994
     12  C         45.2710   13.2140   25.8010 C.2   668  THR668      0.2618
     13  O         44.2840   13.4420   25.1010 O.2   668  THR668     -0.2717
     14  CB        46.8050   14.3130   27.4940 C.3   668  THR668      0.1784
     15  OG1       47.2360   12.9990   27.8640 O.3   668  THR668     -0.2211
     16  CG2       45.6850   14.7410   28.4350 C.3   668  THR668      0.0376
     17  N         45.4960   12.0430   26.4060 N.am  669  PHE669     -0.1961
     18  CA        44.5000   10.9740   26.5010 C.3   669  PHE669      0.1771
     19  C         44.5970   10.2420   27.8540 C.2   669  PHE669      0.2619
     20  O         45.6770   10.1680   28.4580 O.2   669  PHE669     -0.2715
     21  CB        44.6740    9.9870   25.3440 C.3   669  PHE669      0.0574
     22  CG        45.8920    9.1190   25.4630 C.ar  669  PHE669     -0.0200
     23  CD1       47.1620    9.6400   25.2290 C.ar  669  PHE669     -0.0042
     24  CD2       45.7740    7.7810   25.8260 C.ar  669  PHE669     -0.0042
     25  CE1       48.2940    8.8460   25.3550 C.ar  669  PHE669     -0.0003
     26  CE2       46.9020    6.9780   25.9530 C.ar  669  PHE669     -0.0003
     27  CZ        48.1640    7.5110   25.7170 C.ar  669  PHE669     -0.0000
     28  N         43.4610    9.7210   28.3200 N.am  670  MET670     -0.1977
     29  CA        43.4060    8.8330   29.4930 C.3   670  MET670      0.1605
     30  C         43.6280    7.3980   29.0230 C.2   670  MET670      0.2287
     31  O         43.1430    7.0190   27.9510 O.2   670  MET670     -0.2864
     32  CB        42.0460    8.9510   30.2020 C.3   670  MET670      0.0413
     33  CG        41.7050    7.8290   31.1800 C.3   670  MET670      0.0598
     34  SD        40.3290    8.2380   32.2760 S.3   670  MET670     -0.1393
     35  CE        41.0960    9.4340   33.3670 C.3   670  MET670      0.0692
     36  N         42.2400    4.5450   29.8520 N.3   672  SER672     -0.1217
     37  CA        41.1060    3.7030   30.2180 C.3   672  SER672      0.1889
     38  C         40.9570    2.7010   29.0840 C.2   672  SER672      0.2288
     39  O         41.8500    2.5870   28.2480 O.2   672  SER672     -0.2866
     40  CB        39.8320    4.5490   30.3660 C.3   672  SER672      0.2089
     41  OG        38.7300    3.7630   30.7850 O.3   672  SER672     -0.2183
     42  N         40.0720    7.5280   25.6450 N.3   676  PRO676     -0.2102
     43  CA        39.5010    8.8090   25.2150 C.3   676  PRO676      0.1504
     44  C         40.5140    9.9460   25.1850 C.2   676  PRO676      0.2576
     45  O         41.4750    9.9370   25.9530 O.2   676  PRO676     -0.2718
     46  CB        38.4320    9.0890   26.2720 C.3   676  PRO676      0.0282
     47  CG        38.9510    8.4160   27.4840 C.3   676  PRO676      0.0208
     48  CD        39.6010    7.1620   26.9910 C.3   676  PRO676      0.0893
     49  N         40.2730   10.9110   24.3010 N.am  677  LEU677     -0.1966
     50  CA        41.1820   12.0270   24.0610 C.3   677  LEU677      0.1728
     51  C         40.6900   13.2760   24.7700 C.2   677  LEU677      0.2616
     52  O         39.4890   13.5070   24.8620 O.2   677  LEU677     -0.2715
     53  CB        41.2890   12.3100   22.5550 C.3   677  LEU677      0.0311
     54  CG        41.7190   11.1410   21.6660 C.3   677  LEU677      0.0022
     55  CD1       42.0610   11.6540   20.2700 C.3   677  LEU677      0.0001
     56  CD2       42.9000   10.3780   22.2520 C.3   677  LEU677      0.0001
     57  N         41.6350   14.0870   25.2260 N.am  678  TRP678     -0.1974
     58  CA        41.3700   15.3140   25.9670 C.3   678  TRP678      0.1640
     59  C         41.9900   16.4310   25.1670 C.2   678  TRP678      0.2290
     60  O         43.2110   16.5070   25.0770 O.2   678  TRP678     -0.2864
     61  CB        42.0290   15.1590   27.3320 C.3   678  TRP678      0.0576
     62  CG        41.9850   16.3240   28.2860 C.ar  678  TRP678      0.0006
     63  CD1       42.7830   17.4600   28.2810 C.ar  678  TRP678      0.0946
     64  CD2       41.1530   16.4490   29.4850 C.ar  678  TRP678      0.0152
     65  NE1       42.4720   18.2810   29.3320 N.ar  678  TRP678     -0.2442
     66  CE2       41.5080   17.7340   30.0980 C.ar  678  TRP678      0.0810
     67  CE3       40.1670   15.6650   30.0770 C.ar  678  TRP678      0.0012
     68  CZ2       40.8910   18.1930   31.2500 C.ar  678  TRP678      0.0191
     69  CZ3       39.5420   16.1410   31.2270 C.ar  678  TRP678      0.0001
     70  CH2       39.9000   17.3770   31.8030 C.ar  678  TRP678      0.0015
     71  N         36.2010   16.1730   25.2540 N.3   695  ILE695     -0.1245
     72  CA        36.6790   14.7980   25.2510 C.3   695  ILE695      0.1561
     73  C         36.1260   14.1230   24.0010 C.2   695  ILE695      0.2260
     74  O         34.9450   14.2510   23.7090 O.2   695  ILE695     -0.2867
     75  CB        36.2570   14.0240   26.5160 C.3   695  ILE695      0.0252
     76  CG1       37.0570   14.5150   27.7290 C.3   695  ILE695      0.0019
     77  CG2       36.4830   12.5360   26.3080 C.3   695  ILE695      0.0019
     78  CD1       36.3700   14.3170   29.0750 C.3   695  ILE695      0.0001
     79  N         35.5140   10.4980   22.8110 N.3   697  LYS697     -0.1245
     80  CA        35.4630    9.0960   23.2090 C.3   697  LYS697      0.1561
     81  C         35.0260    8.2960   21.9830 C.2   697  LYS697      0.2260
     82  O         34.0600    8.6740   21.3090 O.2   697  LYS697     -0.2867
     83  CB        34.4520    8.9300   24.3390 C.3   697  LYS697      0.0271
     84  CG        34.6620    7.7130   25.2370 C.3   697  LYS697      0.0035
     85  CD        33.6540    7.7390   26.3860 C.3   697  LYS697      0.0206
     86  CE        33.5340    6.4040   27.0830 C.3   697  LYS697      0.1093
     87  NZ        34.6480    6.1670   28.0510 N.3   697  LYS697     -0.1314
     88  N         27.4180    6.3360   23.8400 N.3   702  LEU702     -0.1245
     89  CA        27.2790    7.4780   24.7620 C.3   702  LEU702      0.1561
     90  C         25.8230    7.8880   25.0120 C.2   702  LEU702      0.2260
     91  O         25.5550    8.8770   25.7150 O.2   702  LEU702     -0.2867
     92  CB        28.0490    8.6790   24.1930 C.3   702  LEU702      0.0270
     93  CG        29.4690    8.8720   24.7040 C.3   702  LEU702      0.0019
     94  CD1       30.1750    9.9190   23.8620 C.3   702  LEU702      0.0001
     95  CD2       29.4470    9.2900   26.1670 C.3   702  LEU702      0.0001
     96  N         24.4180    7.7610   28.5360 N.3   705  ASP705     -0.1239
     97  CA        25.0760    8.8280   29.3030 C.3   705  ASP705      0.1674
     98  C         24.3690   10.1520   29.0280 C.2   705  ASP705      0.2266
     99  O         24.1510   10.9390   29.9480 O.2   705  ASP705     -0.2867
    100  CB        26.5510    8.9400   28.9040 C.3   705  ASP705      0.1410
    101  CG        27.4910    8.9240   30.0840 C.2   705  ASP705      0.3668
    102  OD1       27.6810    9.9810   30.7230 O.co2 705  ASP705     -0.2456
    103  OD2       28.0830    7.8520   30.3310 O.co2 705  ASP705     -0.2456
    104  N         26.7940   19.3010   32.1690 N.3   731  TYR731     -0.1241
    105  CA        27.8160   19.4300   31.1540 C.3   731  TYR731      0.1605
    106  C         27.2800   18.8130   29.8640 C.2   731  TYR731      0.2264
    107  O         26.4090   17.9390   29.9150 O.2   731  TYR731     -0.2867
    108  CB        29.1450   18.7790   31.6070 C.3   731  TYR731      0.0534
    109  CG        29.0570   17.3090   31.9630 C.ar  731  TYR731     -0.0201
    110  CD1       29.0150   16.3320   30.9610 C.ar  731  TYR731     -0.0009
    111  CD2       29.0150   16.8880   33.3070 C.ar  731  TYR731     -0.0009
    112  CE1       28.9300   14.9840   31.2800 C.ar  731  TYR731      0.0417
    113  CE2       28.9210   15.5450   33.6360 C.ar  731  TYR731      0.0417
    114  CZ        28.8710   14.5920   32.6260 C.ar  731  TYR731      0.1957
    115  OH        28.7930   13.2370   32.9090 O.3   731  TYR731     -0.2866
    116  N         27.0040   16.6400   26.4030 N.3   733  CYS733     -0.1235
    117  CA        27.3020   15.2910   25.9450 C.3   733  CYS733      0.1677
    118  C         26.5150   15.0200   24.6640 C.2   733  CYS733      0.2270
    119  O         25.2740   15.1060   24.6690 O.2   733  CYS733     -0.2867
    120  CB        26.9150   14.2850   27.0070 C.3   733  CYS733      0.0956
    121  SG        27.2700   12.5740   26.5680 S.3   733  CYS733     -0.0801
    122  N         32.2290   15.0220   24.8430 N.3   743  ILE743     -0.1231
    123  CA        31.8300   15.3280   26.2150 C.3   743  ILE743      0.1692
    124  C         32.5410   16.6190   26.6420 C.2   743  ILE743      0.2592
    125  O         33.7530   16.7510   26.4430 O.2   743  ILE743     -0.2718
    126  CB        32.2480   14.2160   27.1940 C.3   743  ILE743      0.0266
    127  CG1       31.9750   12.8170   26.6050 C.3   743  ILE743      0.0019
    128  CG2       31.5020   14.3870   28.5030 C.3   743  ILE743      0.0020
    129  CD1       32.4020   11.6690   27.4930 C.3   743  ILE743      0.0001
    130  N         31.7900   17.5520   27.2180 N.am  744  GLU744     -0.1966
    131  CA        32.3130   18.8780   27.5750 C.3   744  GLU744      0.1733
    132  C         33.1610   18.7020   28.7990 C.2   744  GLU744      0.2616
    133  O         32.7180   18.0720   29.7300 O.2   744  GLU744     -0.2715
    134  CB        31.1610   19.8300   27.9130 C.3   744  GLU744      0.0429
    135  CG        31.5600   21.2440   28.3340 C.3   744  GLU744      0.1163
    136  CD        30.3750   22.1290   28.7510 C.2   744  GLU744      0.3649
    137  OE1       29.2530   21.6280   29.0310 O.co2 744  GLU744     -0.2457
    138  OE2       30.5890   23.3560   28.8180 O.co2 744  GLU744     -0.2457
    139  N         34.3700   19.2490   28.8160 N.am  745  VAL745     -0.1963
    140  CA        35.2050   19.1260   29.9960 C.3   745  VAL745      0.1727
    141  C         34.7510   20.1720   30.9860 C.2   745  VAL745      0.2616
    142  O         34.2880   21.2480   30.6010 O.2   745  VAL745     -0.2715
    143  CB        36.7070   19.2910   29.7320 C.3   745  VAL745      0.0290
    144  CG1       37.1230   18.4530   28.5280 C.3   745  VAL745      0.0023
    145  CG2       37.0720   20.7600   29.5780 C.3   745  VAL745      0.0023
    146  N         34.8570   19.8110   32.2590 N.am  746  VAL746     -0.1977
    147  CA        34.6310   20.7100   33.3670 C.3   746  VAL746      0.1596
    148  C         36.0020   20.9370   33.9710 C.2   746  VAL746      0.2287
    149  O         36.5600   20.0300   34.5960 O.2   746  VAL746     -0.2864
    150  CB        33.6870   20.0800   34.3970 C.3   746  VAL746      0.0276
    151  CG1       33.5580   20.9830   35.6010 C.3   746  VAL746      0.0022
    152  CG2       32.3230   19.8230   33.7690 C.3   746  VAL746      0.0022
    153  N         38.4840   20.9490   38.3320 N.3   749  SER749     -0.1202
    154  CA        37.7580   19.8360   38.9400 C.3   749  SER749      0.2020
    155  C         38.6280   18.5870   39.0690 C.2   749  SER749      0.2619
    156  O         39.5870   18.4130   38.3170 O.2   749  SER749     -0.2717
    157  CB        36.4870   19.5160   38.1500 C.3   749  SER749      0.2103
    158  OG        36.7730   18.7500   36.9960 O.3   749  SER749     -0.2182
    159  N         38.2930   17.7380   40.0390 N.am  750  ASP750     -0.1959
    160  CA        39.0190   16.4860   40.2810 C.3   750  ASP750      0.1840
    161  C         38.0560   15.4230   40.8070 C.2   750  ASP750      0.2622
    162  O         36.9440   15.7400   41.2530 O.2   750  ASP750     -0.2715
    163  CB        40.1780   16.7190   41.2620 C.3   750  ASP750      0.1450
    164  CG        41.3880   15.8110   41.0020 C.2   750  ASP750      0.3671
    165  OD1       41.2460   14.7370   40.3780 O.co2 750  ASP750     -0.2456
    166  OD2       42.5010   16.1810   41.4400 O.co2 750  ASP750     -0.2456
    167  N         38.4740   14.1640   40.7020 N.am  751  THR751     -0.1951
    168  CA        37.6840   13.0360   41.1850 C.3   751  THR751      0.1897
    169  C         37.9700   12.8550   42.6640 C.2   751  THR751      0.2313
    170  O         39.1020   13.0590   43.1140 O.2   751  THR751     -0.2863
    171  CB        38.0060   11.7220   40.4320 C.3   751  THR751      0.1794
    172  OG1       39.3750   11.3540   40.6350 O.3   751  THR751     -0.2208
    173  CG2       37.7560   11.8760   38.9350 C.3   751  THR751      0.0378
    174  N         41.0580   10.9320   43.6580 N.3   754  ASN754     -0.1240
    175  CA        42.2990   11.7200   43.6750 C.3   754  ASN754      0.1653
    176  C         42.4010   12.6550   44.8860 C.2   754  ASN754      0.2266
    177  O         43.4140   12.6630   45.5900 O.2   754  ASN754     -0.2867
    178  CB        42.4520   12.5250   42.3760 C.3   754  ASN754      0.1155
    179  CG        42.7830   11.6480   41.1710 C.2   754  ASN754      0.2627
    180  OD1       43.4480   10.6110   41.3050 O.2   754  ASN754     -0.2716
    181  ND2       42.3350   12.0740   39.9760 N.am  754  ASN754     -0.0877
    182  N         35.8260    7.1150   41.8630 N.3   802  ASP802     -0.1239
    183  CA        36.2970    7.2830   40.4840 C.3   802  ASP802      0.1674
    184  C         35.2770    7.9300   39.5260 C.2   802  ASP802      0.2266
    185  O         35.6530    8.3010   38.4120 O.2   802  ASP802     -0.2867
    186  CB        36.7770    5.9400   39.9040 C.3   802  ASP802      0.1410
    187  CG        38.1380    5.5270   40.4280 C.2   802  ASP802      0.3668
    188  OD1       39.1300    6.2140   40.1000 O.co2 802  ASP802     -0.2456
    189  OD2       38.2230    4.5040   41.1510 O.co2 802  ASP802     -0.2456
    190  N         32.7160   13.6860   41.2410 N.3   805  MET805     -0.1245
    191  CA        33.7270   14.6610   40.8830 C.3   805  MET805      0.1570
    192  C         33.3860   15.9880   41.5020 C.2   805  MET805      0.2261
    193  O         32.2120   16.3340   41.5870 O.2   805  MET805     -0.2867
    194  CB        33.7810   14.7680   39.3570 C.3   805  MET805      0.0387
    195  CG        35.1730   14.9310   38.7940 C.3   805  MET805      0.0595
    196  SD        35.3010   14.4320   37.0820 S.3   805  MET805     -0.1393
    197  CE        36.9160   15.1200   36.7390 C.3   805  MET805      0.0692
    198  N         29.5430   16.8090   41.3300 N.3   813  PHE813     -0.1241
    199  CA        28.7520   16.2660   40.2090 C.3   813  PHE813      0.1605
    200  C         29.2240   14.8680   39.8440 C.2   813  PHE813      0.2264
    201  O         30.3480   14.4750   40.1670 O.2   813  PHE813     -0.2867
    202  CB        28.7780   17.1900   38.9650 C.3   813  PHE813      0.0534
    203  CG        30.1270   17.2930   38.3110 C.ar  813  PHE813     -0.0203
    204  CD1       31.0980   18.1540   38.8230 C.ar  813  PHE813     -0.0042
    205  CD2       30.4390   16.5190   37.2000 C.ar  813  PHE813     -0.0042
    206  CE1       32.3580   18.2370   38.2450 C.ar  813  PHE813     -0.0003
    207  CE2       31.6980   16.6080   36.6050 C.ar  813  PHE813     -0.0003
    208  CZ        32.6560   17.4630   37.1290 C.ar  813  PHE813     -0.0000
    209  N         29.7180   11.7060   36.9170 N.3   815  ILE815     -0.1231
    210  CA        30.0840   11.3790   35.5530 C.3   815  ILE815      0.1692
    211  C         29.7860    9.9130   35.2490 C.2   815  ILE815      0.2592
    212  O         29.5570    9.1030   36.1540 O.2   815  ILE815     -0.2718
    213  CB        31.5780   11.6780   35.2970 C.3   815  ILE815      0.0266
    214  CG1       32.5090   10.8150   36.1660 C.3   815  ILE815      0.0019
    215  CG2       31.8440   13.1480   35.5660 C.3   815  ILE815      0.0020
    216  CD1       33.9860   11.0100   35.9000 C.3   815  ILE815      0.0001
    217  N         29.7810    9.5750   33.9660 N.am  816  ASP816     -0.1974
    218  CA        29.8860    8.1900   33.5400 C.3   816  ASP816      0.1709
    219  C         28.7110    7.3570   34.0800 C.2   816  ASP816      0.2293
    220  O         28.8960    6.4400   34.8740 O.2   816  ASP816     -0.2864
    221  CB        31.2490    7.6550   34.0090 C.3   816  ASP816      0.1436
    222  CG        31.6540    6.3820   33.3330 C.2   816  ASP816      0.3671
    223  OD1       30.9980    5.9450   32.3550 O.co2 816  ASP816     -0.2456
    224  OD2       32.6680    5.8190   33.7860 O.co2 816  ASP816     -0.2456
@<TRIPOS>BOND
     1    55    54    1
     2    82    81    2
     3    54    56    1
     4    54    53    1
     5    81    80    1
     6    53    50    1
     7    79    80    1
     8    80    83    1
     9    74    73    2
    10    88    89    1
    11    94    93    1
    12    73    72    1
    13    50    49    1
    14    50    51    1
    15    92    93    1
    16    92    89    1
    17    49    44   am
    18    83    84    1
    19   118   119    2
    20   118   117    1
    21    93    95    1
    22    89    90    1
    23    51    52    2
    24    51    57   am
    25   122   123    1
    26    90    91    2
    27    60    59    2
    28    13    12    2
    29    59    58    1
    30    44    43    1
    31    44    45    2
    32    43    42    1
    33    43    46    1
    34    57    58    1
    35    23    25   ar
    36    23    22   ar
    37    84    85    1
    38    72    71    1
    39    72    75    1
    40    21    22    1
    41    21    18    1
    42    25    27   ar
    43    22    24   ar
    44    10    11    1
    45    42    48    1
    46    27    26   ar
    47    12    11    1
    48    12    17   am
    49    24    26   ar
    50   117   116    1
    51   117   120    1
    52    58    61    1
    53    11    14    1
    54   123   124    1
    55   123   126    1
    56    46    47    1
    57    77    75    1
    58     4     3    2
    59    85    86    1
    60    17    18    1
    61   125   124    2
    62    18    19    1
    63    75    76    1
    64   121   120    1
    65   127   126    1
    66   127   129    1
    67   124   130   am
    68    48    47    1
    69    86    87    1
    70   126   128    1
    71   130   131    1
    72     3     2    1
    73    61    62    1
    74    14    15    1
    75    14    16    1
    76   131   134    1
    77   131   132    1
    78     2     1    1
    79     2     5    1
    80    76    78    1
    81    19    28   am
    82    19    20    2
    83   134   135    1
    84    31    30    2
    85    39    38    2
    86    63    62   ar
    87    63    65   ar
    88    62    64   ar
    89    28    29    1
    90   135   136    1
    91   144   143    1
    92    96    97    1
    93   136   138   ar
    94   136   137   ar
    95   132   139   am
    96   132   133    2
    97   139   140    1
    98     6     5    1
    99     6     7    1
   100   100    97    1
   101   100   101    1
   102    30    29    1
   103    98    97    1
   104    98    99    2
   105    38    37    1
   106    65    66   ar
   107    64    67   ar
   108    64    66   ar
   109    29    32    1
   110   145   143    1
   111     8     7    1
   112     8     9    1
   113   143   140    1
   114    36    37    1
   115   106   107    2
   116   106   105    1
   117   140   141    1
   118    67    69   ar
   119   101   103   ar
   120   101   102   ar
   121    66    68   ar
   122    32    33    1
   123    37    40    1
   124    40    41    1
   125   142   141    2
   126   110   112   ar
   127   110   109   ar
   128   141   146   am
   129   105   108    1
   130   105   104    1
   131    33    34    1
   132    69    70   ar
   133    68    70   ar
   134   112   114   ar
   135   108   109    1
   136   109   111   ar
   137   146   147    1
   138    34    35    1
   139   223   222   ar
   140   114   115    1
   141   114   113   ar
   142   111   113   ar
   143   222   224   ar
   144   222   221    1
   145   147   148    1
   146   147   150    1
   147   218   217    1
   148   218   221    1
   149   218   219    1
   150   152   150    1
   151   217   211   am
   152   148   149    2
   153   219   220    2
   154   150   151    1
   155   211   210    1
   156   211   212    2
   157   213   210    1
   158   213   215    1
   159   213   214    1
   160   210   209    1
   161   216   214    1
   162   207   208   ar
   163   207   205   ar
   164   197   196    1
   165   158   157    1
   166   196   195    1
   167   208   206   ar
   168   205   203   ar
   169   157   154    1
   170   206   204   ar
   171   203   204   ar
   172   203   202    1
   173   156   155    2
   174   153   154    1
   175   185   184    2
   176   195   194    1
   177   173   171    1
   178   154   155    1
   179   202   199    1
   180   155   159   am
   181   194   191    1
   182   184   183    1
   183   200   201    2
   184   200   199    1
   185   186   187    1
   186   186   183    1
   187   181   179   am
   188   159   160    1
   189   188   187   ar
   190   199   198    1
   191   160   161    1
   192   160   163    1
   193   165   164   ar
   194   187   189   ar
   195   171   172    1
   196   171   168    1
   197   183   182    1
   198   167   161   am
   199   167   168    1
   200   161   162    2
   201   191   190    1
   202   191   192    1
   203   164   163    1
   204   164   166   ar
   205   179   180    2
   206   179   178    1
   207   168   169    1
   208   192   193    2
   209   178   175    1
   210   169   170    2
   211   174   175    1
   212   175   176    1
   213   176   177    2
