@<TRIPOS>MOLECULE
tmp/6g6yA01.pdb
 139 133 0 0 0
SMALL
GASTEIGER

@<TRIPOS>ATOM
      1  N         15.3300   16.8330   -4.0260 N.3    95  GLU95      -0.1231
      2  CA        14.4260   16.9700   -2.8870 C.3    95  GLU95       0.1699
      3  C         15.0580   16.5460   -1.5850 C.2    95  GLU95       0.2593
      4  O         14.8690   17.2020   -0.5590 O.2    95  GLU95      -0.2718
      5  CB        13.1420   16.1230   -3.0930 C.3    95  GLU95       0.0402
      6  CG        12.4440   16.3770   -4.4140 C.3    95  GLU95       0.1161
      7  CD        11.0740   15.7370   -4.5160 C.2    95  GLU95       0.3649
      8  OE1       10.6100   15.0800   -3.5520 O.co2  95  GLU95      -0.2457
      9  OE2       10.4830   15.8660   -5.5990 O.co2  95  GLU95      -0.2457
     10  N         15.7560   15.4160   -1.5990 N.am   96  GLY96      -0.1942
     11  CA        16.2770   14.8800   -0.3860 C.3    96  GLY96       0.2014
     12  C         15.2220   14.0660    0.3410 C.2    96  GLY96       0.2639
     13  O         14.2210   13.6210   -0.2130 O.2    96  GLY96      -0.2714
     14  N         15.4670   13.8970    1.6240 N.am   97  GLU97      -0.1963
     15  CA        14.6470   13.0490    2.4620 C.3    97  GLU97       0.1733
     16  C         14.6890   13.6500    3.8340 C.2    97  GLU97       0.2616
     17  O         15.5970   14.4110    4.1480 O.2    97  GLU97      -0.2715
     18  CB        15.1940   11.6210    2.5860 C.3    97  GLU97       0.0429
     19  CG        15.1780   10.8870    1.3460 C.3    97  GLU97       0.1163
     20  CD        15.8020    9.5360    1.4840 C.2    97  GLU97       0.3649
     21  OE1       16.1590    9.0920    2.6200 O.co2  97  GLU97      -0.2457
     22  OE2       15.9510    8.9470    0.4150 O.co2  97  GLU97      -0.2457
     23  N         13.7470   13.2290    4.6670 N.am   98  ARG98      -0.1977
     24  CA        13.8300   13.5030    6.0890 C.3    98  ARG98       0.1597
     25  C         14.5790   12.3670    6.8040 C.2    98  ARG98       0.2287
     26  O         14.3530   11.1880    6.5290 O.2    98  ARG98      -0.2864
     27  CB        12.4180   13.6690    6.6720 C.3    98  ARG98       0.0334
     28  CG        11.7130   14.9300    6.2230 C.3    98  ARG98       0.0492
     29  CD        12.2520   16.1070    6.9890 C.3    98  ARG98       0.2205
     30  NE        11.4750   16.3900    8.1950 N.pl3  98  ARG98      -0.0865
     31  CZ        12.0090   16.7890    9.3400 C.cat  98  ARG98       0.5346
     32  NH1       13.3260   16.9550    9.4480 N.pl3  98  ARG98       0.1354
     33  NH2       11.2260   17.0100   10.3820 N.pl3  98  ARG98       0.1354
     34  N         13.1980   20.4720    9.9660 N.3   106  TRP106     -0.1241
     35  CA        13.3690   20.3910    8.5160 C.3   106  TRP106      0.1605
     36  C         14.4920   21.2990    8.0410 C.2   106  TRP106      0.2264
     37  O         15.2210   20.9500    7.1000 O.2   106  TRP106     -0.2867
     38  CB        12.0530   20.7220    7.7930 C.3   106  TRP106      0.0550
     39  CG        11.6910   22.1990    7.7110 C.ar  106  TRP106      0.0003
     40  CD1       10.8860   22.9040    8.5730 C.ar  106  TRP106      0.0946
     41  CD2       12.1110   23.1380    6.7040 C.ar  106  TRP106      0.0152
     42  NE1       10.7870   24.2050    8.1670 N.ar  106  TRP106     -0.2442
     43  CE2       11.5060   24.3790    7.0130 C.ar  106  TRP106      0.0810
     44  CE3       12.9300   23.0470    5.5690 C.ar  106  TRP106      0.0012
     45  CZ2       11.7140   25.5180    6.2520 C.ar  106  TRP106      0.0191
     46  CZ3       13.1210   24.1800    4.7880 C.ar  106  TRP106      0.0001
     47  CH2       12.5170   25.4110    5.1430 C.ar  106  TRP106      0.0015
     48  N         17.9280   19.5420    8.7600 N.3   109  ASP109     -0.1239
     49  CA        18.0580   18.1240    8.4370 C.3   109  ASP109      0.1674
     50  C         19.1630   17.8950    7.4140 C.2   109  ASP109      0.2266
     51  O         19.0820   18.4410    6.2990 O.2   109  ASP109     -0.2867
     52  CB        16.7320   17.6110    7.9000 C.3   109  ASP109      0.1410
     53  CG        16.6800   16.0990    7.8350 C.2   109  ASP109      0.3668
     54  OD1       17.7030   15.4420    7.5120 O.co2 109  ASP109     -0.2456
     55  OD2       15.5880   15.5550    8.0770 O.co2 109  ASP109     -0.2456
     56  N         18.1200   16.8760    3.7520 N.3   112  ALA112     -0.1245
     57  CA        17.4310   17.7650    2.8230 C.3   112  ALA112      0.1562
     58  C         18.2330   17.9340    1.5350 C.2   112  ALA112      0.2260
     59  O         19.4570   18.1240    1.5580 O.2   112  ALA112     -0.2867
     60  CB        17.2250   19.1300    3.4950 C.3   112  ALA112      0.0290
     61  N         15.7780   21.5750   -3.2220 N.3   115  ILE115     -0.1231
     62  CA        14.5520   22.3710   -3.0750 C.3   115  ILE115      0.1678
     63  C         14.3420   22.8870   -1.6530 C.2   115  ILE115      0.2434
     64  O         14.2310   24.1220   -1.4900 O.2   115  ILE115     -0.2733
     65  CB        13.3250   21.6070   -3.5840 C.3   115  ILE115      0.0265
     66  CG1       13.3800   21.5520   -5.1260 C.3   115  ILE115      0.0019
     67  CG2       11.9880   22.2490   -2.9910 C.3   115  ILE115      0.0020
     68  CD1       12.5530   20.4260   -5.7070 C.3   115  ILE115      0.0001
     69  N         14.2490   22.0410   -0.6080 N.am  116  PRO116     -0.2729
     70  CA        14.0830   22.5960    0.7470 C.3   116  PRO116      0.1401
     71  C         15.1770   23.5630    1.1590 C.2   116  PRO116      0.2269
     72  O         14.8670   24.6080    1.7640 O.2   116  PRO116     -0.2865
     73  CB        14.0750   21.3550    1.6570 C.3   116  PRO116      0.0296
     74  CG        14.6070   20.2620    0.8570 C.3   116  PRO116      0.0237
     75  CD        14.2540   20.5820   -0.5800 C.3   116  PRO116      0.0939
     76  N          4.5350   23.6660   -8.2470 N.3   139  LEU139     -0.1245
     77  CA         5.1120   22.3370   -8.4740 C.3   139  LEU139      0.1561
     78  C          4.2060   21.6090   -9.4530 C.2   139  LEU139      0.2260
     79  O          3.0300   21.3590   -9.1460 O.2   139  LEU139     -0.2867
     80  CB         5.2370   21.5390   -7.1810 C.3   139  LEU139      0.0270
     81  CG         5.7680   20.1090   -7.3490 C.3   139  LEU139      0.0019
     82  CD1        7.1040   20.0130   -8.1360 C.3   139  LEU139      0.0001
     83  CD2        5.8980   19.4780   -5.9810 C.3   139  LEU139      0.0001
     84  N          7.6800   24.3610    4.8350 N.3   186  TYR186     -0.1241
     85  CA         7.4870   22.9470    5.0840 C.3   186  TYR186      0.1605
     86  C          6.0340   22.5190    4.8820 C.2   186  TYR186      0.2264
     87  O          5.7810   21.4290    4.3530 O.2   186  TYR186     -0.2867
     88  CB         7.9900   22.5890    6.4730 C.3   186  TYR186      0.0534
     89  CG         8.1270   21.1210    6.6130 C.ar  186  TYR186     -0.0201
     90  CD1        9.1430   20.4350    5.9500 C.ar  186  TYR186     -0.0009
     91  CD2        7.2270   20.3920    7.3790 C.ar  186  TYR186     -0.0009
     92  CE1        9.2600   19.0490    6.0590 C.ar  186  TYR186      0.0417
     93  CE2        7.3490   19.0050    7.4960 C.ar  186  TYR186      0.0417
     94  CZ         8.3740   18.3440    6.8500 C.ar  186  TYR186      0.1957
     95  OH         8.4810   16.9560    6.9740 O.3   186  TYR186     -0.2866
     96  N          5.6000   22.0520    1.1140 N.3   189  LEU189     -0.1231
     97  CA         6.2570   20.8250    0.6560 C.3   189  LEU189      0.1693
     98  C          5.5300   19.5760    1.1470 C.2   189  LEU189      0.2591
     99  O          5.3720   18.6080    0.3990 O.2   189  LEU189     -0.2718
    100  CB         7.7150   20.8040    1.1110 C.3   189  LEU189      0.0284
    101  CG         8.5990   21.9590    0.6020 C.3   189  LEU189      0.0019
    102  CD1       10.0220   21.8800    1.1660 C.3   189  LEU189      0.0001
    103  CD2        8.6160   22.0610   -0.9210 C.3   189  LEU189      0.0001
    104  N          5.1320   19.5540    2.4200 N.am  190  GLU190     -0.1979
    105  CA         4.3090   18.4550    2.9070 C.3   190  GLU190      0.1602
    106  C          3.0960   18.2500    2.0090 C.2   190  GLU190      0.2287
    107  O          2.7690   17.1150    1.6450 O.2   190  GLU190     -0.2864
    108  CB         3.8520   18.7240    4.3430 C.3   190  GLU190      0.0415
    109  CG         4.6740   18.0830    5.4410 C.3   190  GLU190      0.1163
    110  CD         3.9460   18.0990    6.7970 C.2   190  GLU190      0.3649
    111  OE1        4.3220   17.3050    7.6770 O.co2 190  GLU190     -0.2457
    112  OE2        2.9860   18.8850    6.9820 O.co2 190  GLU190     -0.2457
    113  N          3.9020   16.5650   -1.2160 N.3   193  ALA193     -0.1245
    114  CA         4.2870   15.1650   -1.0760 C.3   193  ALA193      0.1562
    115  C          3.0570   14.2710   -1.0000 C.2   193  ALA193      0.2260
    116  O          3.0270   13.2000   -1.6150 O.2   193  ALA193     -0.2867
    117  CB         5.1640   14.9600    0.1550 C.3   193  ALA193      0.0290
    118  N          1.5600   13.6980   -4.3100 N.3   196  ARG196     -0.1245
    119  CA         2.3280   12.8530   -5.2160 C.3   196  ARG196      0.1563
    120  C          2.1650   11.3620   -4.9380 C.2   196  ARG196      0.2260
    121  O          2.2650   10.5530   -5.8670 O.2   196  ARG196     -0.2867
    122  CB         3.8100   13.2240   -5.1500 C.3   196  ARG196      0.0307
    123  CG         4.5640   12.9570   -6.4450 C.3   196  ARG196      0.0489
    124  CD         6.0420   13.2740   -6.2700 C.3   196  ARG196      0.2205
    125  NE         6.4880   14.4270   -7.0470 N.pl3 196  ARG196     -0.0865
    126  CZ         7.4520   15.2520   -6.6490 C.cat 196  ARG196      0.5346
    127  NH1        8.0370   15.0510   -5.4780 N.pl3 196  ARG196      0.1354
    128  NH2        7.8380   16.2610   -7.4150 N.pl3 196  ARG196      0.1354
    129  N          9.7060   22.0650  -10.1680 N.3   214  PHE214     -0.1241
    130  CA         9.4920   22.9750   -9.0670 C.3   214  PHE214      0.1605
    131  C          9.9940   24.3540   -9.4890 C.2   214  PHE214      0.2264
    132  O         11.1500   24.4810   -9.9120 O.2   214  PHE214     -0.2867
    133  CB        10.2450   22.4830   -7.8390 C.3   214  PHE214      0.0534
    134  CG         9.8710   23.2180   -6.5770 C.ar  214  PHE214     -0.0203
    135  CD1       10.4010   24.4490   -6.3130 C.ar  214  PHE214     -0.0042
    136  CD2        8.9460   22.6930   -5.7080 C.ar  214  PHE214     -0.0042
    137  CE1       10.0220   25.1560   -5.2010 C.ar  214  PHE214     -0.0003
    138  CE2        8.5840   23.3830   -4.5850 C.ar  214  PHE214     -0.0003
    139  CZ         9.1390   24.6240   -4.3390 C.ar  214  PHE214     -0.0000
@<TRIPOS>BOND
     1   129   130    1
     2   132   131    2
     3   131   130    1
     4    78    79    2
     5    78    77    1
     6   130   133    1
     7    77    76    1
     8    77    80    1
     9    82    81    1
    10   133   134    1
    11   128   126    1
    12    81    80    1
    13    81    83    1
    14   125   126    2
    15   125   124    1
    16   126   127    1
    17   134   135   ar
    18   134   136   ar
    19   123   124    1
    20   123   122    1
    21   135   137   ar
    22   121   120    2
    23   136   138   ar
    24    68    66    1
    25     9     7   ar
    26   119   122    1
    27   119   120    1
    28   119   118    1
    29   137   139   ar
    30    66    65    1
    31   138   139   ar
    32     7     6    1
    33     7     8   ar
    34     6     5    1
    35     1     2    1
    36    65    62    1
    37    65    67    1
    38    61    62    1
    39     5     2    1
    40    62    63    1
    41     2     3    1
    42    63    64    2
    43    63    69   am
    44   116   115    2
    45    10     3   am
    46    10    11    1
    47     3     4    2
    48   113   114    1
    49   114   115    1
    50   114   117    1
    51   103   101    1
    52    69    75    1
    53    69    70    1
    54    75    74    1
    55    11    12    1
    56    13    12    2
    57    12    14   am
    58    99    98    2
    59    22    20   ar
    60   101   100    1
    61   101   102    1
    62    97   100    1
    63    97    96    1
    64    97    98    1
    65    70    71    1
    66    70    73    1
    67    74    73    1
    68    98   104   am
    69    71    72    2
    70    19    20    1
    71    19    18    1
    72    20    21   ar
    73    58    59    2
    74    58    57    1
    75    14    15    1
    76   107   106    2
    77   106   105    1
    78   104   105    1
    79    15    18    1
    80    15    16    1
    81    57    60    1
    82    57    56    1
    83   105   108    1
    84    16    17    2
    85    16    23   am
    86   108   109    1
    87    87    86    2
    88    23    24    1
    89    46    47   ar
    90    46    44   ar
    91    84    85    1
    92    86    85    1
    93    85    88    1
    94    47    45   ar
    95   109   110    1
    96    44    41   ar
    97    90    92   ar
    98    90    89   ar
    99    92    94   ar
   100    24    27    1
   101    24    25    1
   102    28    27    1
   103    28    29    1
   104    45    43   ar
   105    51    50    2
   106    88    89    1
   107    26    25    2
   108    89    91   ar
   109    41    43   ar
   110    41    39   ar
   111   110   112   ar
   112   110   111   ar
   113    94    95    1
   114    94    93   ar
   115    29    30    1
   116    43    42   ar
   117    37    36    2
   118    91    93   ar
   119    50    49    1
   120    54    53   ar
   121    39    38    1
   122    39    40   ar
   123    38    35    1
   124    53    52    1
   125    53    55   ar
   126    52    49    1
   127    36    35    1
   128    42    40   ar
   129    30    31    2
   130    49    48    1
   131    35    34    1
   132    31    32    1
   133    31    33    1
