@<TRIPOS>MOLECULE
tmp/6g6zA01.pdb
 143 137 0 0 0
SMALL
GASTEIGER

@<TRIPOS>ATOM
      1  N        -20.3850  -29.4630    2.8920 N.3    99  GLU99      -0.1231
      2  CA       -20.0770  -28.4730    3.8710 C.3    99  GLU99       0.1699
      3  C        -21.2460  -27.8520    4.5130 C.2    99  GLU99       0.2593
      4  O        -21.2230  -27.5820    5.6460 O.2    99  GLU99      -0.2718
      5  CB       -19.2700  -27.3980    3.2390 C.3    99  GLU99       0.0402
      6  CG       -18.5160  -27.8580    2.0280 C.3    99  GLU99       0.1161
      7  CD       -17.5080  -26.8880    1.5820 C.2    99  GLU99       0.3649
      8  OE1      -17.5800  -25.7380    2.0240 O.co2  99  GLU99      -0.2457
      9  OE2      -16.6730  -27.2910    0.7800 O.co2  99  GLU99      -0.2457
     10  N        -22.2770  -27.6730    3.7550 N.am  100  GLY100     -0.1942
     11  CA       -23.4610  -27.0910    4.2710 C.3   100  GLY100      0.2014
     12  C        -23.3620  -25.6150    4.2950 C.2   100  GLY100      0.2639
     13  O        -22.5450  -25.0520    3.6830 O.2   100  GLY100     -0.2714
     14  N        -24.2410  -24.9970    5.0280 N.am  101  GLU101     -0.1963
     15  CA       -24.2850  -23.5870    5.1310 C.3   101  GLU101      0.1733
     16  C        -24.4580  -23.1920    6.5340 C.2   101  GLU101      0.2616
     17  O        -24.9490  -23.9150    7.3100 O.2   101  GLU101     -0.2715
     18  CB       -25.4620  -23.0880    4.3770 C.3   101  GLU101      0.0429
     19  CG       -25.0810  -22.5770    3.0450 C.3   101  GLU101      0.1163
     20  CD       -26.0750  -22.9430    2.0330 C.2   101  GLU101      0.3649
     21  OE1      -25.6780  -23.2710    0.9300 O.co2 101  GLU101     -0.2457
     22  OE2      -27.2450  -22.8910    2.3520 O.co2 101  GLU101     -0.2457
     23  N        -24.0930  -21.9840    6.8520 N.am  102  ARG102     -0.1977
     24  CA       -24.2060  -21.5360    8.1840 C.3   102  ARG102      0.1597
     25  C        -25.4160  -20.6940    8.2220 C.2   102  ARG102      0.2287
     26  O        -25.5860  -19.8840    7.3800 O.2   102  ARG102     -0.2864
     27  CB       -22.9870  -20.7330    8.4990 C.3   102  ARG102      0.0334
     28  CG       -22.9460  -20.1900    9.8810 C.3   102  ARG102      0.0492
     29  CD       -22.3650  -21.1210   10.8950 C.3   102  ARG102      0.2205
     30  NE       -23.1500  -21.0850   12.1100 N.pl3 102  ARG102     -0.0865
     31  CZ       -22.7770  -20.4610   13.2000 C.cat 102  ARG102      0.5346
     32  NH1      -21.6310  -19.8500   13.2430 N.pl3 102  ARG102      0.1354
     33  NH2      -23.5480  -20.4420   14.2400 N.pl3 102  ARG102      0.1354
     34  N        -22.2960  -23.3790   15.7920 N.3   110  TRP110     -0.1241
     35  CA       -21.9020  -24.1450   14.6530 C.3   110  TRP110      0.1605
     36  C        -22.1980  -25.5620   14.8110 C.2   110  TRP110      0.2264
     37  O        -22.4330  -26.2490   13.8720 O.2   110  TRP110     -0.2867
     38  CB       -20.4850  -23.8950   14.2300 C.3   110  TRP110      0.0550
     39  CG       -19.4590  -24.3430   15.0790 C.ar  110  TRP110      0.0003
     40  CD1      -18.8150  -23.6230   15.9680 C.ar  110  TRP110      0.0946
     41  CD2      -18.8440  -25.6020   15.0620 C.ar  110  TRP110      0.0152
     42  NE1      -17.8520  -24.3510   16.5540 N.ar  110  TRP110     -0.2442
     43  CE2      -17.8640  -25.5880   15.9990 C.ar  110  TRP110      0.0810
     44  CE3      -19.0530  -26.7530   14.3530 C.ar  110  TRP110      0.0012
     45  CZ2      -17.1120  -26.6580   16.2530 C.ar  110  TRP110      0.0191
     46  CZ3      -18.3120  -27.7900   14.6040 C.ar  110  TRP110      0.0001
     47  CH2      -17.3550  -27.7580   15.5330 C.ar  110  TRP110      0.0015
     48  N        -26.1350  -26.1490   14.1570 N.3   113  ASP113     -0.1239
     49  CA       -26.7690  -25.6270   12.9850 C.3   113  ASP113      0.1674
     50  C        -27.2620  -26.7550   12.2310 C.2   113  ASP113      0.2266
     51  O        -26.5740  -27.6670   12.0100 O.2   113  ASP113     -0.2867
     52  CB       -25.7210  -25.0100   12.1290 C.3   113  ASP113      0.1410
     53  CG       -26.2170  -23.9130   11.3290 C.2   113  ASP113      0.3668
     54  OD1      -27.2790  -24.0050   10.7780 O.co2 113  ASP113     -0.2456
     55  OD2      -25.5280  -22.9360   11.2360 O.co2 113  ASP113     -0.2456
     56  N        -25.6230  -27.3340    8.6280 N.3   116  ALA116     -0.1245
     57  CA       -24.2930  -27.7880    8.5340 C.3   116  ALA116      0.1562
     58  C        -24.2470  -29.0320    7.7790 C.2   116  ALA116      0.2260
     59  O        -25.1450  -29.7840    7.7980 O.2   116  ALA116     -0.2867
     60  CB       -23.7680  -28.0320    9.8850 C.3   116  ALA116      0.0290
     61  N        -18.8720  -31.9850    6.5480 N.3   119  ILE119     -0.1231
     62  CA       -17.6000  -31.7860    7.1480 C.3   119  ILE119      0.1678
     63  C        -17.5550  -31.3660    8.5710 C.2   119  ILE119      0.2434
     64  O        -16.8600  -31.9090    9.3390 O.2   119  ILE119     -0.2733
     65  CB       -16.7660  -30.8430    6.3210 C.3   119  ILE119      0.0265
     66  CG1      -16.2000  -31.5810    5.1480 C.3   119  ILE119      0.0019
     67  CG2      -15.6190  -30.3200    7.1160 C.3   119  ILE119      0.0020
     68  CD1      -15.7760  -30.7010    4.0090 C.3   119  ILE119      0.0001
     69  N        -18.2660  -30.3450    8.9190 N.am  120  PRO120     -0.2729
     70  CA       -18.3250  -29.8260   10.2560 C.3   120  PRO120      0.1401
     71  C        -18.9360  -30.8110   11.1800 C.2   120  PRO120      0.2269
     72  O        -18.5610  -30.8820   12.2890 O.2   120  PRO120     -0.2865
     73  CB       -19.1720  -28.6160   10.1010 C.3   120  PRO120      0.0296
     74  CG       -19.9410  -28.8580    8.9130 C.3   120  PRO120      0.0237
     75  CD       -19.0150  -29.5170    8.0070 C.3   120  PRO120      0.0939
     76  N         -6.7930  -29.0910    3.8000 N.3   143  LEU143     -0.1245
     77  CA        -7.7230  -28.7730    2.7400 C.3   143  LEU143      0.1561
     78  C         -7.0400  -28.1990    1.5280 C.2   143  LEU143      0.2260
     79  O         -6.3500  -27.2530    1.6500 O.2   143  LEU143     -0.2867
     80  CB        -8.7010  -27.7710    3.2460 C.3   143  LEU143      0.0270
     81  CG        -9.6710  -27.2320    2.2560 C.3   143  LEU143      0.0019
     82  CD1      -10.2910  -28.3720    1.5400 C.3   143  LEU143      0.0001
     83  CD2      -10.6960  -26.5000    3.0330 C.3   143  LEU143      0.0001
     84  N        -13.9780  -24.6340   14.0870 N.3   194  TYR194     -0.1241
     85  CA       -14.6310  -23.5710   13.3740 C.3   194  TYR194      0.1605
     86  C        -13.6420  -22.6160   12.9190 C.2   194  TYR194      0.2264
     87  O        -13.7560  -22.0990   11.8690 O.2   194  TYR194     -0.2867
     88  CB       -15.6050  -22.8240   14.2370 C.3   194  TYR194      0.0534
     89  CG       -16.5210  -21.9660   13.4510 C.ar  194  TYR194     -0.0201
     90  CD1      -17.4520  -22.5200   12.6460 C.ar  194  TYR194     -0.0009
     91  CD2      -16.4520  -20.6120   13.5090 C.ar  194  TYR194     -0.0009
     92  CE1      -18.2970  -21.7530   11.9150 C.ar  194  TYR194      0.0417
     93  CE2      -17.2960  -19.8350   12.7670 C.ar  194  TYR194      0.0417
     94  CZ       -18.2170  -20.4310   11.9750 C.ar  194  TYR194      0.1957
     95  OH       -19.0810  -19.7120   11.2270 O.3   194  TYR194     -0.2866
     96  N        -12.1250  -23.7680    9.6850 N.3   197  LEU197     -0.1231
     97  CA       -12.9560  -23.7320    8.5190 C.3   197  LEU197      0.1693
     98  C        -13.1480  -22.3680    8.0120 C.2   197  LEU197      0.2591
     99  O        -13.2480  -22.1520    6.8480 O.2   197  LEU197     -0.2718
    100  CB       -14.2990  -24.2660    8.8750 C.3   197  LEU197      0.0284
    101  CG       -14.1860  -25.5830    9.5630 C.3   197  LEU197      0.0019
    102  CD1      -15.5650  -26.1010    9.8100 C.3   197  LEU197      0.0001
    103  CD2      -13.4960  -26.4610    8.5900 C.3   197  LEU197      0.0001
    104  N        -13.3390  -21.4700    8.9350 N.am  198  GLU198     -0.1979
    105  CA       -13.5720  -20.1080    8.6220 C.3   198  GLU198      0.1602
    106  C        -12.3690  -19.5840    7.9420 C.2   198  GLU198      0.2287
    107  O        -12.4390  -18.8390    7.0010 O.2   198  GLU198     -0.2864
    108  CB       -13.7850  -19.3550    9.9020 C.3   198  GLU198      0.0415
    109  CG       -15.0910  -18.6070    9.9610 C.3   198  GLU198      0.1163
    110  CD       -15.2780  -17.9400   11.2820 C.2   198  GLU198      0.3649
    111  OE1      -16.4190  -17.6760   11.6630 O.co2 198  GLU198     -0.2457
    112  OE2      -14.2680  -17.6960   11.9420 O.co2 198  GLU198     -0.2457
    113  N        -10.2530  -21.2380    6.4420 N.3   200  GLY200     -0.1210
    114  CA       -10.1760  -21.8980    5.1840 C.3   200  GLY200      0.1956
    115  C        -11.1310  -21.2730    4.2570 C.2   200  GLY200      0.2611
    116  O        -10.8600  -21.0820    3.1250 O.2   200  GLY200     -0.2717
    117  N        -12.2670  -20.9160    4.7660 N.am  201  ALA201     -0.1979
    118  CA       -13.2700  -20.3640    3.9180 C.3   201  ALA201      0.1597
    119  C        -12.8350  -19.1030    3.2860 C.2   201  ALA201      0.2287
    120  O        -13.2140  -18.8130    2.1900 O.2   201  ALA201     -0.2864
    121  CB       -14.5220  -20.1180    4.7040 C.3   201  ALA201      0.0319
    122  N        -10.2800  -19.4970    0.4350 N.3   204  ARG204     -0.1245
    123  CA       -10.8330  -20.0050   -0.7910 C.3   204  ARG204      0.1563
    124  C        -11.3150  -18.8500   -1.5850 C.2   204  ARG204      0.2260
    125  O        -11.1890  -18.8190   -2.7780 O.2   204  ARG204     -0.2867
    126  CB       -11.9920  -20.9450   -0.5570 C.3   204  ARG204      0.0307
    127  CG       -12.7760  -21.2260   -1.8090 C.3   204  ARG204      0.0489
    128  CD       -13.4660  -22.5760   -1.7570 C.3   204  ARG204      0.2205
    129  NE       -13.6530  -22.9800   -0.3780 N.pl3 204  ARG204     -0.0865
    130  CZ       -13.9030  -24.2090    0.0400 C.cat 204  ARG204      0.5346
    131  NH1      -14.0190  -25.1980   -0.8140 N.pl3 204  ARG204      0.1354
    132  NH2      -14.0340  -24.4280    1.3330 N.pl3 204  ARG204      0.1354
    133  N        -10.9430  -32.2050    1.2310 N.3   222  PHE222     -0.1241
    134  CA       -10.7400  -31.9990    2.6320 C.3   222  PHE222      0.1605
    135  C        -10.3490  -33.2980    3.2190 C.2   222  PHE222      0.2264
    136  O        -10.9040  -34.2760    2.8960 O.2   222  PHE222     -0.2867
    137  CB       -12.0320  -31.5620    3.2490 C.3   222  PHE222      0.0534
    138  CG       -11.9340  -31.3040    4.6760 C.ar  222  PHE222     -0.0203
    139  CD1      -11.5600  -30.0990    5.1230 C.ar  222  PHE222     -0.0042
    140  CD2      -12.1960  -32.2750    5.5570 C.ar  222  PHE222     -0.0042
    141  CE1      -11.4350  -29.8630    6.4350 C.ar  222  PHE222     -0.0003
    142  CE2      -12.0850  -32.0480    6.8750 C.ar  222  PHE222     -0.0003
    143  CZ       -11.7030  -30.8410    7.3100 C.ar  222  PHE222     -0.0000
@<TRIPOS>BOND
     1   125   124    2
     2   127   128    1
     3   127   126    1
     4   128   129    1
     5   124   123    1
     6   131   130    1
     7   123   126    1
     8   123   122    1
     9   129   130    2
    10   130   132    1
    11     9     7   ar
    12    21    20   ar
    13   133   134    1
    14    78    79    2
    15    78    77    1
    16    82    81    1
    17     7     8   ar
    18     7     6    1
    19     6     5    1
    20    20    22   ar
    21    20    19    1
    22   120   119    2
    23    81    83    1
    24    81    80    1
    25   134   135    1
    26   134   137    1
    27    77    80    1
    28    77    76    1
    29     1     2    1
    30   136   135    2
    31    19    18    1
    32   116   115    2
    33     5     2    1
    34   137   138    1
    35   119   118    1
    36    13    12    2
    37    10    11    1
    38    10     3   am
    39     2     3    1
    40   118   121    1
    41   118   117    1
    42    68    66    1
    43   115   117   am
    44   115   114    1
    45    11    12    1
    46    12    14   am
    47    18    15    1
    48     3     4    2
    49   138   139   ar
    50   138   140   ar
    51    14    15    1
    52   139   141   ar
    53    15    16    1
    54    66    65    1
    55   114   113    1
    56   140   142   ar
    57    65    67    1
    58    65    62    1
    59   141   143   ar
    60    16    23   am
    61    16    17    2
    62    61    62    1
    63    99    98    2
    64    23    24    1
    65   142   143   ar
    66   107   106    2
    67    62    63    1
    68    26    25    2
    69    58    59    2
    70    58    57    1
    71   106   105    1
    72    75    74    1
    73    75    69    1
    74    98    97    1
    75    98   104   am
    76    24    25    1
    77    24    27    1
    78    27    28    1
    79    97   100    1
    80    97    96    1
    81    57    56    1
    82    57    60    1
    83    63    69   am
    84    63    64    2
    85   103   101    1
    86   105   104    1
    87   105   108    1
    88   100   101    1
    89    74    73    1
    90    69    70    1
    91   101   102    1
    92    28    29    1
    93   108   109    1
    94   109   110    1
    95    73    70    1
    96    70    71    1
    97    54    53   ar
    98    29    30    1
    99    71    72    2
   100    95    94    1
   101    55    53   ar
   102   110   111   ar
   103   110   112   ar
   104    53    52    1
   105    87    86    2
   106    92    94   ar
   107    92    90   ar
   108    94    93   ar
   109    51    50    2
   110    30    31    2
   111    52    49    1
   112    50    49    1
   113    90    89   ar
   114    93    91   ar
   115    86    85    1
   116    49    48    1
   117    31    32    1
   118    31    33    1
   119    85    84    1
   120    85    88    1
   121    89    91   ar
   122    89    88    1
   123    37    36    2
   124    38    35    1
   125    38    39    1
   126    44    46   ar
   127    44    41   ar
   128    46    47   ar
   129    35    36    1
   130    35    34    1
   131    41    39   ar
   132    41    43   ar
   133    39    40   ar
   134    47    45   ar
   135    40    42   ar
   136    43    45   ar
   137    43    42   ar
