@<TRIPOS>MOLECULE
tmp/6g72O00.pdb
 199 190 0 0 0
SMALL
GASTEIGER

@<TRIPOS>ATOM
      1  N        244.9820  216.1230  247.2990 N.3    30  ASN30      -0.1225
      2  CA       245.9290  216.3740  246.2400 C.3    30  ASN30       0.1785
      3  C        245.4280  215.6140  245.0190 C.2    30  ASN30       0.2597
      4  O        244.2660  215.2010  244.9630 O.2    30  ASN30      -0.2718
      5  CB       247.3340  215.9830  246.7050 C.3    30  ASN30       0.1169
      6  CG       248.4360  216.8770  246.1530 C.2    30  ASN30       0.2627
      7  OD1      249.4940  216.9780  246.7670 O.2    30  ASN30      -0.2716
      8  ND2      248.2230  217.5020  245.0050 N.am   30  ASN30      -0.0877
      9  N        246.3010  215.4270  244.0290 N.am   31  ILE31      -0.1966
     10  CA       245.8340  215.1020  242.6820 C.3    31  ILE31       0.1727
     11  C        245.5290  213.6320  242.4550 C.2    31  ILE31       0.2616
     12  O        245.0250  213.2760  241.3820 O.2    31  ILE31      -0.2715
     13  CB       246.8540  215.5880  241.6380 C.3    31  ILE31       0.0290
     14  CG1      248.2280  214.9620  241.8540 C.3    31  ILE31       0.0022
     15  CG2      246.9630  217.0860  241.7060 C.3    31  ILE31       0.0023
     16  CD1      249.1430  215.1870  240.7010 C.3    31  ILE31       0.0001
     17  N        245.8400  212.7650  243.4080 N.am   32  CYS32      -0.1954
     18  CA       245.3910  211.3820  243.3390 C.3    32  CYS32       0.1843
     19  C        245.0080  210.8670  244.7180 C.2    32  CYS32       0.2626
     20  O        244.9330  209.6520  244.9300 O.2    32  CYS32      -0.2714
     21  CB       246.4660  210.4840  242.7230 C.3    32  CYS32       0.0997
     22  SG       246.8880  210.8520  241.0040 S.3    32  CYS32      -0.0797
     23  N        244.7500  211.7700  245.6600 N.am   33  SER33      -0.1936
     24  CA       244.4800  211.4000  247.0420 C.3    33  SER33       0.2055
     25  C        242.9690  211.3340  247.2190 C.2    33  SER33       0.2644
     26  O        242.2810  212.3520  247.2230 O.2    33  SER33      -0.2714
     27  CB       245.1260  212.3960  247.9910 C.3    33  SER33       0.2130
     28  OG       244.5350  213.6670  247.8760 O.3    33  SER33      -0.2179
     29  N        242.4570  210.1100  247.3330 N.am   34  GLY34      -0.1939
     30  CA       241.0650  209.8930  247.6850 C.3    34  GLY34       0.2014
     31  C        240.0940  210.5390  246.7190 C.2    34  GLY34       0.2639
     32  O        240.3430  210.6580  245.5160 O.2    34  GLY34      -0.2714
     33  N        238.9540  210.9400  247.2680 N.am   35  LYS35      -0.1963
     34  CA       237.9480  211.8270  246.7050 C.3    35  LYS35       0.1728
     35  C        237.0560  211.1690  245.6750 C.2    35  LYS35       0.2616
     36  O        236.0430  211.7580  245.3140 O.2    35  LYS35      -0.2715
     37  CB       238.5640  213.0640  246.0390 C.3    35  LYS35       0.0311
     38  CG       239.3340  213.9080  246.9590 C.3    35  LYS35       0.0038
     39  CD       239.9740  214.9980  246.1760 C.3    35  LYS35       0.0206
     40  CE       240.7470  215.8820  247.0680 C.3    35  LYS35       0.1093
     41  NZ       241.4700  216.9080  246.2980 N.3    35  LYS35      -0.1314
     42  N        237.3670  209.9680  245.2110 N.am   36  ASN36      -0.1972
     43  CA       236.5060  209.2430  244.2930 C.3    36  ASN36       0.1688
     44  C        235.8870  208.0270  244.9530 C.2    36  ASN36       0.2292
     45  O        234.8450  207.5520  244.4960 O.2    36  ASN36      -0.2864
     46  CB       237.2990  208.8180  243.0500 C.3    36  ASN36       0.1181
     47  CG       236.4070  208.4450  241.8810 C.2    36  ASN36       0.2629
     48  OD1      235.1820  208.5460  241.9580 O.2    36  ASN36      -0.2716
     49  ND2      237.0220  208.0040  240.7860 N.am   36  ASN36      -0.0877
     50  N        234.2560  216.1320  240.7770 N.3    53  GLU53      -0.1231
     51  CA       235.1950  217.2130  240.5220 C.3    53  GLU53       0.1699
     52  C        234.7830  217.9840  239.2780 C.2    53  GLU53       0.2592
     53  O        234.1030  217.4610  238.3920 O.2    53  GLU53      -0.2718
     54  CB       236.6000  216.6260  240.3630 C.3    53  GLU53       0.0402
     55  CG       237.7240  217.6080  240.1140 C.3    53  GLU53       0.1161
     56  CD       237.9460  218.5520  241.2610 C.2    53  GLU53       0.3649
     57  OE1      237.6160  218.1860  242.4040 O.co2  53  GLU53      -0.2457
     58  OE2      238.4600  219.6620  241.0190 O.co2  53  GLU53      -0.2457
     59  N        235.1860  219.2450  239.2270 N.am   54  ALA54      -0.1980
     60  CA       234.8770  220.1070  238.0970 C.3    54  ALA54       0.1597
     61  C        235.8690  219.8340  236.9860 C.2    54  ALA54       0.2287
     62  O        237.0570  220.1450  237.1120 O.2    54  ALA54      -0.2864
     63  CB       234.9270  221.5770  238.4840 C.3    54  ALA54       0.0319
     64  N        244.5130  220.2510  229.3680 N.3    79  LEU79      -0.1245
     65  CA       245.2550  219.7820  230.5350 C.3    79  LEU79       0.1561
     66  C        246.2560  218.6940  230.1760 C.2    79  LEU79       0.2260
     67  O        247.3440  218.6230  230.7570 O.2    79  LEU79      -0.2867
     68  CB       244.2730  219.2710  231.5870 C.3    79  LEU79       0.0270
     69  CG       244.8370  218.6090  232.8410 C.3    79  LEU79       0.0019
     70  CD1      245.7400  219.5490  233.5640 C.3    79  LEU79       0.0001
     71  CD2      243.7030  218.1860  233.7420 C.3    79  LEU79       0.0001
     72  N        249.0620  220.4060  229.1200 N.3    82  PHE82      -0.1227
     73  CA       249.6350  221.2900  230.1210 C.3    82  PHE82       0.1736
     74  C        250.9340  220.7230  230.6660 C.2    82  PHE82       0.2595
     75  O        251.9970  221.3280  230.5160 O.2    82  PHE82      -0.2718
     76  CB       248.6310  221.5260  231.2430 C.3    82  PHE82       0.0547
     77  CG       249.1800  222.3140  232.3830 C.ar   82  PHE82      -0.0202
     78  CD1      249.6700  223.5830  232.1870 C.ar   82  PHE82      -0.0042
     79  CD2      249.1410  221.8130  233.6610 C.ar   82  PHE82      -0.0042
     80  CE1      250.1600  224.3170  233.2400 C.ar   82  PHE82      -0.0003
     81  CE2      249.6210  222.5360  234.7180 C.ar   82  PHE82      -0.0003
     82  CZ       250.1290  223.7900  234.5100 C.ar   82  PHE82      -0.0000
     83  N        250.8670  219.5340  231.2620 N.am   83  TYR83      -0.1976
     84  CA       251.9980  218.9970  232.0100 C.3    83  TYR83       0.1639
     85  C        253.2260  218.8090  231.1330 C.2    83  TYR83       0.2290
     86  O        254.3520  219.0630  231.5750 O.2    83  TYR83      -0.2864
     87  CB       251.5980  217.6670  232.6460 C.3    83  TYR83       0.0560
     88  CG       250.6160  217.7360  233.8000 C.ar   83  TYR83      -0.0198
     89  CD1      250.4980  218.8620  234.5910 C.ar   83  TYR83      -0.0009
     90  CD2      249.7840  216.6710  234.0710 C.ar   83  TYR83      -0.0009
     91  CE1      249.6010  218.9090  235.6320 C.ar   83  TYR83       0.0417
     92  CE2      248.8840  216.7100  235.1050 C.ar   83  TYR83       0.0417
     93  CZ       248.7940  217.8310  235.8790 C.ar   83  TYR83       0.1957
     94  OH       247.8920  217.8680  236.9090 O.3    83  TYR83      -0.2866
     95  N        243.9480  227.3570  231.5880 N.3    96  LEU96      -0.1231
     96  CA       243.5940  226.0960  232.2190 C.3    96  LEU96       0.1693
     97  C        242.8930  226.3140  233.5420 C.2    96  LEU96       0.2591
     98  O        242.0770  225.4840  233.9550 O.2    96  LEU96      -0.2718
     99  CB       244.8470  225.2610  232.4390 C.3    96  LEU96       0.0284
    100  CG       244.7120  223.9410  233.2010 C.3    96  LEU96       0.0019
    101  CD1      243.7140  223.0570  232.5070 C.3    96  LEU96       0.0001
    102  CD2      246.0640  223.2260  233.3610 C.3    96  LEU96       0.0001
    103  N        243.1910  227.4210  234.2130 N.am   97  GLN97      -0.1979
    104  CA       242.7900  227.6190  235.5910 C.3    97  GLN97       0.1601
    105  C        241.5140  228.4440  235.6990 C.2    97  GLN97       0.2287
    106  O        240.5340  227.9960  236.3010 O.2    97  GLN97      -0.2864
    107  CB       243.9400  228.2820  236.3470 C.3    97  GLN97       0.0394
    108  CG       243.7160  228.3930  237.8170 C.3    97  GLN97       0.0908
    109  CD       243.5810  227.0550  238.4530 C.2    97  GLN97       0.2608
    110  OE1      242.4830  226.6240  238.7720 O.2    97  GLN97      -0.2717
    111  NE2      244.6940  226.3650  238.6100 N.am   97  GLN97      -0.0878
    112  N        238.6760  226.7530  234.7070 N.3   100  LEU100     -0.1245
    113  CA       238.2680  225.8090  235.7290 C.3   100  LEU100      0.1561
    114  C        237.7330  226.5120  236.9560 C.2   100  LEU100      0.2260
    115  O        236.8870  225.9540  237.6590 O.2   100  LEU100     -0.2867
    116  CB       239.4320  224.9150  236.1250 C.3   100  LEU100      0.0270
    117  CG       239.7940  223.7850  235.1680 C.3   100  LEU100      0.0019
    118  CD1      241.0740  223.1270  235.5900 C.3   100  LEU100      0.0001
    119  CD2      238.7000  222.7300  235.0980 C.3   100  LEU100      0.0001
    120  N        234.2170  225.4710  238.6520 N.3   104  ARG104     -0.1245
    121  CA       234.0310  225.2070  240.0680 C.3   104  ARG104      0.1563
    122  C        233.0100  226.1670  240.6410 C.2   104  ARG104      0.2260
    123  O        232.1540  225.7860  241.4460 O.2   104  ARG104     -0.2867
    124  CB       235.3570  225.3590  240.8000 C.3   104  ARG104      0.0307
    125  CG       236.3940  224.3420  240.4320 C.3   104  ARG104      0.0489
    126  CD       237.6950  224.6410  241.1260 C.3   104  ARG104      0.2205
    127  NE       238.7820  223.7780  240.6790 N.pl3 104  ARG104     -0.0865
    128  CZ       238.9940  222.5440  241.1150 C.cat 104  ARG104      0.5346
    129  NH1      238.1920  221.9830  242.0020 N.pl3 104  ARG104      0.1354
    130  NH2      240.0090  221.8510  240.6400 N.pl3 104  ARG104      0.1354
    131  N        233.9420  218.3720  245.8410 N.3   125  GLU125     -0.1231
    132  CA       235.3270  217.9590  246.0060 C.3   125  GLU125      0.1699
    133  C        236.2330  218.9870  245.3570 C.2   125  GLU125      0.2592
    134  O        236.0550  219.3230  244.1830 O.2   125  GLU125     -0.2718
    135  CB       235.5480  216.5680  245.4310 C.3   125  GLU125      0.0402
    136  CG       235.1570  216.3980  243.9920 C.3   125  GLU125      0.1161
    137  CD       235.3570  214.9760  243.5210 C.2   125  GLU125      0.3649
    138  OE1      235.7830  214.1490  244.3440 O.co2 125  GLU125     -0.2457
    139  OE2      235.0920  214.6830  242.3390 O.co2 125  GLU125     -0.2457
    140  N        237.1860  219.4880  246.1350 N.am  126  ARG126     -0.1980
    141  CA       238.0710  220.5750  245.7430 C.3   126  ARG126      0.1597
    142  C        237.2560  221.7470  245.1960 C.2   126  ARG126      0.2287
    143  O        237.2660  222.0650  244.0120 O.2   126  ARG126     -0.2864
    144  CB       239.1310  220.1090  244.7470 C.3   126  ARG126      0.0334
    145  CG       240.1830  221.1690  244.5560 C.3   126  ARG126      0.0492
    146  CD       241.3100  220.8090  243.6430 C.3   126  ARG126      0.2205
    147  NE       242.2280  219.7970  244.1700 N.pl3 126  ARG126     -0.0865
    148  CZ       242.4550  218.5870  243.6560 C.cat 126  ARG126      0.5346
    149  NH1      241.8370  218.1430  242.5700 N.pl3 126  ARG126      0.1354
    150  NH2      243.3390  217.7970  244.2390 N.pl3 126  ARG126      0.1354
    151  N        246.4530  225.6250  243.4670 N.3   134  PHE134     -0.1241
    152  CA       247.0850  225.3130  242.1990 C.3   134  PHE134      0.1605
    153  C        247.9490  226.4590  241.7130 C.2   134  PHE134      0.2264
    154  O        248.9950  226.2260  241.1010 O.2   134  PHE134     -0.2867
    155  CB       246.0250  224.9830  241.1570 C.3   134  PHE134      0.0534
    156  CG       245.2790  223.6970  241.3950 C.ar  134  PHE134     -0.0203
    157  CD1      245.6570  222.7830  242.3520 C.ar  134  PHE134     -0.0042
    158  CD2      244.2010  223.3950  240.6140 C.ar  134  PHE134     -0.0042
    159  CE1      244.9590  221.6200  242.5270 C.ar  134  PHE134     -0.0003
    160  CE2      243.5090  222.2350  240.7880 C.ar  134  PHE134     -0.0003
    161  CZ       243.8990  221.3410  241.7340 C.ar  134  PHE134     -0.0000
    162  N        252.1750  227.2660  241.3370 N.3   138  MET138     -0.1245
    163  CA       252.3990  227.5100  239.9270 C.3   138  MET138      0.1570
    164  C        253.0790  228.8390  239.6650 C.2   138  MET138      0.2261
    165  O        253.7570  228.9730  238.6440 O.2   138  MET138     -0.2867
    166  CB       251.0700  227.4470  239.1970 C.3   138  MET138      0.0387
    167  CG       251.1500  227.6190  237.7160 C.3   138  MET138      0.0595
    168  SD       249.5390  227.4490  236.9380 S.3   138  MET138     -0.1393
    169  CE       249.2770  225.7040  237.1260 C.3   138  MET138      0.0692
    170  N        249.0250  204.5880  238.2560 N.3   186  LYS186     -0.1245
    171  CA       247.8700  204.7090  237.3820 C.3   186  LYS186      0.1561
    172  C        248.3440  204.9340  235.9550 C.2   186  LYS186      0.2260
    173  O        249.3380  205.6280  235.7220 O.2   186  LYS186     -0.2867
    174  CB       246.9730  205.8570  237.8320 C.3   186  LYS186      0.0271
    175  CG       245.6990  205.9990  237.0270 C.3   186  LYS186      0.0035
    176  CD       244.7810  207.0370  237.6390 C.3   186  LYS186      0.0206
    177  CE       245.3180  208.4480  237.4490 C.3   186  LYS186      0.1093
    178  NZ       244.3540  209.4870  237.8900 N.3   186  LYS186     -0.1314
    179  N        249.9250  212.7830  233.3930 N.3   191  GLU191     -0.1245
    180  CA       250.1040  213.1110  234.8010 C.3   191  GLU191      0.1567
    181  C        251.5040  212.7810  235.2740 C.2   191  GLU191      0.2260
    182  O        251.9750  213.3700  236.2520 O.2   191  GLU191     -0.2867
    183  CB       249.0790  212.3860  235.6640 C.3   191  GLU191      0.0388
    184  CG       247.6890  212.9840  235.5940 C.3   191  GLU191      0.1160
    185  CD       246.6950  212.2680  236.4840 C.2   191  GLU191      0.3649
    186  OE1      247.0340  211.1910  237.0140 O.co2 191  GLU191     -0.2457
    187  OE2      245.5780  212.7920  236.6640 O.co2 191  GLU191     -0.2457
    188  N        256.5360  220.7940  242.3350 N.3   198  TYR198     -0.1241
    189  CA       255.2390  221.4410  242.2300 C.3   198  TYR198      0.1605
    190  C        254.2350  220.7640  243.1460 C.2   198  TYR198      0.2264
    191  O        253.4470  221.4310  243.8250 O.2   198  TYR198     -0.2867
    192  CB       254.7780  221.4150  240.7750 C.3   198  TYR198      0.0534
    193  CG       253.4490  222.0660  240.5140 C.ar  198  TYR198     -0.0201
    194  CD1      253.2920  223.4340  240.6380 C.ar  198  TYR198     -0.0009
    195  CD2      252.3650  221.3170  240.0940 C.ar  198  TYR198     -0.0009
    196  CE1      252.0740  224.0340  240.3880 C.ar  198  TYR198      0.0417
    197  CE2      251.1480  221.9020  239.8360 C.ar  198  TYR198      0.0417
    198  CZ       251.0060  223.2570  239.9830 C.ar  198  TYR198      0.1957
    199  OH       249.7860  223.8250  239.7210 O.3   198  TYR198     -0.2866
@<TRIPOS>BOND
     1    72    73    1
     2    64    65    1
     3    73    74    1
     4    73    76    1
     5    66    65    1
     6    66    67    2
     7    75    74    2
     8    65    68    1
     9    74    83   am
    10    85    86    2
    11    85    84    1
    12    76    77    1
    13    83    84    1
    14    68    69    1
    15    95    96    1
    16    84    87    1
    17    78    77   ar
    18    78    80   ar
    19    96    99    1
    20    96    97    1
    21    77    79   ar
    22    99   100    1
    23   101   100    1
    24    87    88    1
    25    69    70    1
    26    69    71    1
    27   100   102    1
    28    80    82   ar
    29   179   180    1
    30    97    98    2
    31    97   103   am
    32    79    81   ar
    33    88    90   ar
    34    88    89   ar
    35    90    92   ar
    36   103   104    1
    37    82    81   ar
    38    89    91   ar
    39   112   113    1
    40   180   181    1
    41   180   183    1
    42   119   117    1
    43    92    93   ar
    44   117   118    1
    45   117   116    1
    46   181   182    2
    47   104   105    1
    48   104   107    1
    49   184   183    1
    50   184   185    1
    51    91    93   ar
    52   105   106    2
    53   173   172    2
    54   113   116    1
    55   113   114    1
    56    93    94    1
    57   172   171    1
    58   107   108    1
    59   185   187   ar
    60   185   186   ar
    61   168   169    1
    62   168   167    1
    63   114   115    2
    64    61    62    2
    65    61    60    1
    66   175   176    1
    67   175   174    1
    68   171   174    1
    69   171   170    1
    70   177   176    1
    71   177   178    1
    72   167   166    1
    73   108   109    1
    74    60    63    1
    75    60    59    1
    76    53    52    2
    77   109   111   am
    78   109   110    2
    79   165   164    2
    80   120   121    1
    81   166   163    1
    82    59    52   am
    83    52    51    1
    84   164   163    1
    85   199   198    1
    86   197   198   ar
    87   197   195   ar
    88   163   162    1
    89   198   196   ar
    90   121   122    1
    91   121   124    1
    92   195   193   ar
    93    55    54    1
    94    55    56    1
    95    54    51    1
    96   196   194   ar
    97   125   124    1
    98   125   126    1
    99   193   194   ar
   100   193   192    1
   101    51    50    1
   102   158   160   ar
   103   158   156   ar
   104   130   128    1
   105   122   123    2
   106   127   128    2
   107   127   126    1
   108    16    14    1
   109   192   189    1
   110    49    47   am
   111   160   161   ar
   112    22    21    1
   113    58    56   ar
   114   154   153    2
   115   128   129    1
   116   155   156    1
   117   155   152    1
   118    56    57   ar
   119    12    11    2
   120   156   157   ar
   121    13    15    1
   122    13    14    1
   123    13    10    1
   124   153   152    1
   125   161   159   ar
   126    47    48    2
   127    47    46    1
   128   152   151    1
   129   189   188    1
   130   189   190    1
   131   139   137   ar
   132   157   159   ar
   133    11    10    1
   134    11    17   am
   135   149   148    1
   136    10     9    1
   137    21    18    1
   138    46    43    1
   139   190   191    2
   140    18    17    1
   141    18    19    1
   142   137   136    1
   143   137   138   ar
   144   146   147    1
   145   146   145    1
   146   148   147    2
   147   148   150    1
   148   136   135    1
   149   143   142    2
   150     9     3   am
   151   134   133    2
   152    43    44    1
   153    43    42    1
   154    45    44    2
   155   145   144    1
   156    19    20    2
   157    19    23   am
   158   144   141    1
   159     4     3    2
   160     8     6   am
   161     3     2    1
   162   142   141    1
   163    42    35   am
   164    36    35    2
   165   133   132    1
   166   133   140   am
   167   135   132    1
   168    32    31    2
   169    23    24    1
   170    35    34    1
   171   141   140    1
   172   131   132    1
   173    37    34    1
   174    37    38    1
   175     6     5    1
   176     6     7    2
   177    39    38    1
   178    39    40    1
   179     2     5    1
   180     2     1    1
   181    41    40    1
   182    34    33    1
   183    31    33   am
   184    31    30    1
   185    24    25    1
   186    24    27    1
   187    25    26    2
   188    25    29   am
   189    29    30    1
   190    28    27    1
