@<TRIPOS>MOLECULE
tmp/6g74A00.pdb
 158 152 0 0 0
SMALL
GASTEIGER

@<TRIPOS>ATOM
      1  N        -23.2930  -10.0780   -0.1780 N.3    25  HIS25      -0.1241
      2  CA       -23.8050   -9.2920   -1.2730 C.3    25  HIS25       0.1621
      3  C        -23.4860   -9.9540   -2.6450 C.2    25  HIS25       0.2264
      4  O        -22.5150  -10.6650   -2.7940 O.2    25  HIS25      -0.2867
      5  CB       -23.2420   -7.8490   -1.2190 C.3    25  HIS25       0.0745
      6  CG       -23.8930   -6.9440   -2.1980 C.ar   25  HIS25       0.0817
      7  ND1      -23.4140   -6.7650   -3.4760 N.ar   25  HIS25      -0.2268
      8  CD2      -25.0550   -6.2620   -2.1300 C.ar   25  HIS25       0.1154
      9  CE1      -24.2350   -5.9810   -4.1470 C.ar   25  HIS25       0.1986
     10  NE2      -25.2360   -5.6510   -3.3460 N.ar   25  HIS25      -0.2212
     11  N        -22.1200   -8.8330   -5.1840 N.3    27  PHE27      -0.1241
     12  CA       -20.8550   -8.4060   -5.7550 C.3    27  PHE27       0.1605
     13  C        -19.6360   -9.0210   -5.0520 C.2    27  PHE27       0.2264
     14  O        -18.5310   -8.6440   -5.3510 O.2    27  PHE27      -0.2867
     15  CB       -20.7520   -6.8940   -5.7400 C.3    27  PHE27       0.0534
     16  CG       -21.7960   -6.1690   -6.5930 C.ar   27  PHE27      -0.0203
     17  CD1      -22.6040   -6.8240   -7.4990 C.ar   27  PHE27      -0.0042
     18  CD2      -21.9360   -4.8050   -6.4650 C.ar   27  PHE27      -0.0042
     19  CE1      -23.5240   -6.1230   -8.2740 C.ar   27  PHE27      -0.0003
     20  CE2      -22.8820   -4.1000   -7.2080 C.ar   27  PHE27      -0.0003
     21  CZ       -23.6750   -4.7700   -8.1070 C.ar   27  PHE27      -0.0000
     22  N        -28.9810   -8.6970   -2.4440 N.3    41  ASP41      -0.1225
     23  CA       -28.7090   -7.2830   -2.3160 C.3    41  ASP41       0.1805
     24  C        -28.7250   -6.8360   -0.8530 C.2    41  ASP41       0.2598
     25  O        -28.9980   -7.6070    0.0230 O.2    41  ASP41      -0.2718
     26  CB       -29.6440   -6.4540   -3.2060 C.3    41  ASP41       0.1424
     27  CG       -31.0740   -6.5950   -2.8320 C.2    41  ASP41       0.3668
     28  OD1      -31.3880   -6.3850   -1.6850 O.co2  41  ASP41      -0.2456
     29  OD2      -31.9230   -6.8930   -3.6710 O.co2  41  ASP41      -0.2456
     30  N        -28.4200   -5.5760   -0.6200 N.am   42  SER42      -0.1938
     31  CA       -28.2710   -5.0560    0.7100 C.3    42  SER42       0.2055
     32  C        -29.4960   -5.2730    1.5950 C.2    42  SER42       0.2642
     33  O        -29.4230   -5.9010    2.6450 O.2    42  SER42      -0.2714
     34  CB       -27.9400   -3.5710    0.5980 C.3    42  SER42       0.2130
     35  OG       -28.0270   -2.9720    1.8470 O.3    42  SER42      -0.2179
     36  N        -30.6220   -4.7460    1.1600 N.am   43  LEU43      -0.1977
     37  CA       -31.8130   -4.8130    1.9520 C.3    43  LEU43       0.1596
     38  C        -32.3090   -6.2330    2.0750 C.2    43  LEU43       0.2287
     39  O        -32.7180   -6.6130    3.1480 O.2    43  LEU43      -0.2864
     40  CB       -32.9010   -3.8860    1.4190 C.3    43  LEU43       0.0297
     41  CG       -34.1790   -3.8230    2.2530 C.3    43  LEU43       0.0022
     42  CD1      -33.9640   -2.9300    3.4470 C.3    43  LEU43       0.0001
     43  CD2      -35.2930   -3.3420    1.3590 C.3    43  LEU43       0.0001
     44  N        -21.8450    0.4930    4.4820 N.3    64  PHE64      -0.1227
     45  CA       -23.2020    1.0070    4.6700 C.3    64  PHE64       0.1736
     46  C        -24.2240   -0.1350    4.7480 C.2    64  PHE64       0.2595
     47  O        -25.2350   -0.0140    5.4290 O.2    64  PHE64      -0.2718
     48  CB       -23.5960    2.0550    3.6150 C.3    64  PHE64       0.0547
     49  CG       -23.9000    1.4820    2.2620 C.ar   64  PHE64      -0.0202
     50  CD1      -25.0980    0.7880    2.0370 C.ar   64  PHE64      -0.0042
     51  CD2      -22.9780    1.5920    1.2020 C.ar   64  PHE64      -0.0042
     52  CE1      -25.3760    0.2260    0.8050 C.ar   64  PHE64      -0.0003
     53  CE2      -23.2780    1.0510   -0.0540 C.ar   64  PHE64      -0.0003
     54  CZ       -24.4570    0.3440   -0.2370 C.ar   64  PHE64      -0.0000
     55  N        -23.9300   -1.2440    4.0660 N.am   65  MET65      -0.1979
     56  CA       -24.7860   -2.4320    4.0950 C.3    65  MET65       0.1605
     57  C        -24.6840   -3.1600    5.4320 C.2    65  MET65       0.2287
     58  O        -25.6920   -3.6120    5.9470 O.2    65  MET65      -0.2864
     59  CB       -24.4020   -3.4220    2.9770 C.3    65  MET65       0.0413
     60  CG       -24.3470   -2.8640    1.5720 C.3    65  MET65       0.0598
     61  SD       -23.6440   -4.0110    0.3470 S.3    65  MET65      -0.1393
     62  CE       -24.0900   -3.1140   -1.1390 C.3    65  MET65       0.0692
     63  N        -31.0760    6.8200   -1.4280 N.3   113  TYR113     -0.1227
     64  CA       -30.7430    5.4960   -1.9280 C.3   113  TYR113      0.1736
     65  C        -30.0380    4.7310   -0.7770 C.2   113  TYR113      0.2595
     66  O        -29.3210    5.3500    0.0440 O.2   113  TYR113     -0.2718
     67  CB       -29.8420    5.6710   -3.1730 C.3   113  TYR113      0.0548
     68  CG       -29.4810    4.4290   -3.9630 C.ar  113  TYR113     -0.0200
     69  CD1      -30.3520    3.3440   -4.0610 C.ar  113  TYR113     -0.0009
     70  CD2      -28.2670    4.3640   -4.6580 C.ar  113  TYR113     -0.0009
     71  CE1      -30.0140    2.2330   -4.8110 C.ar  113  TYR113      0.0417
     72  CE2      -27.9100    3.2440   -5.4080 C.ar  113  TYR113      0.0417
     73  CZ       -28.7820    2.1770   -5.4730 C.ar  113  TYR113      0.1957
     74  OH       -28.4660    1.0350   -6.2020 O.3   113  TYR113     -0.2866
     75  N        -30.2950    3.4160   -0.6840 N.am  114  VAL114     -0.1966
     76  CA       -29.7450    2.5900    0.3870 C.3   114  VAL114      0.1727
     77  C        -28.2290    2.6940    0.4380 C.2   114  VAL114      0.2616
     78  O        -27.6410    2.6130    1.5070 O.2   114  VAL114     -0.2715
     79  CB       -30.2340    1.1350    0.2940 C.3   114  VAL114      0.0290
     80  CG1      -29.6160    0.4000   -0.8930 C.3   114  VAL114      0.0023
     81  CG2      -29.9410    0.3900    1.5760 C.3   114  VAL114      0.0023
     82  N        -27.6170    2.9920   -0.7000 N.am  115  ASN115     -0.1972
     83  CA       -26.1910    3.2590   -0.8160 C.3   115  ASN115      0.1688
     84  C        -25.8970    4.6560   -0.3320 C.2   115  ASN115      0.2292
     85  O        -25.6760    5.5490   -1.1000 O.2   115  ASN115     -0.2864
     86  CB       -25.7060    3.0600   -2.2660 C.3   115  ASN115      0.1181
     87  CG       -25.9480    1.6400   -2.7820 C.2   115  ASN115      0.2629
     88  OD1      -26.7460    0.8820   -2.2510 O.2   115  ASN115     -0.2716
     89  ND2      -25.2360    1.2890   -3.8160 N.am  115  ASN115     -0.0877
     90  N        -34.3160    1.3390   -2.6340 N.3   129  THR129     -0.1203
     91  CA       -33.3370    0.5190   -3.3330 C.3   129  THR129      0.1994
     92  C        -33.5280    0.7650   -4.8450 C.2   129  THR129      0.2618
     93  O        -34.5200    1.3960   -5.2540 O.2   129  THR129     -0.2717
     94  CB       -33.5670   -0.9700   -3.0530 C.3   129  THR129      0.1784
     95  OG1      -34.8260   -1.3620   -3.6230 O.3   129  THR129     -0.2211
     96  CG2      -33.5680   -1.2390   -1.5090 C.3   129  THR129      0.0376
     97  N        -32.6140    0.2340   -5.6670 N.am  130  SER130     -0.1951
     98  CA       -32.7530    0.3830   -7.1230 C.3   130  SER130      0.1924
     99  C        -34.0260   -0.3280   -7.6000 C.2   130  SER130      0.2314
    100  O        -34.6490    0.1390   -8.5310 O.2   130  SER130     -0.2863
    101  CB       -31.5120   -0.1120   -7.8920 C.3   130  SER130      0.2116
    102  OG       -31.1190   -1.4160   -7.5020 O.3   130  SER130     -0.2180
    103  N        -21.8320    5.9640   -9.5630 N.3   174  CYS174     -0.1235
    104  CA       -21.0380    4.7750   -9.3010 C.3   174  CYS174      0.1677
    105  C        -20.0420    4.5850  -10.4460 C.2   174  CYS174      0.2270
    106  O        -20.4550    4.4030  -11.5830 O.2   174  CYS174     -0.2867
    107  CB       -21.9630    3.5680   -9.2510 C.3   174  CYS174      0.0956
    108  SG       -21.0490    2.0410   -9.1920 S.3   174  CYS174     -0.0801
    109  N        -20.4850    1.2600  -12.8000 N.3   177  HIS177     -0.1241
    110  CA       -21.5360    1.1890  -13.8020 C.3   177  HIS177      0.1621
    111  C        -21.4310    2.1770  -14.9860 C.2   177  HIS177      0.2264
    112  O        -22.3400    2.2600  -15.8010 O.2   177  HIS177     -0.2867
    113  CB       -22.8840    1.3270  -13.1020 C.3   177  HIS177      0.0745
    114  CG       -23.2600    0.1200  -12.3160 C.ar  177  HIS177      0.0817
    115  ND1      -22.9310   -0.0360  -10.9920 N.ar  177  HIS177     -0.2268
    116  CD2      -23.9050   -1.0090  -12.6760 C.ar  177  HIS177      0.1154
    117  CE1      -23.3930   -1.1960  -10.5490 C.ar  177  HIS177      0.1986
    118  NE2      -23.9820   -1.8110  -11.5530 N.ar  177  HIS177     -0.2212
    119  N        -28.0560   -2.1780  -15.0300 N.3   199  HIS199     -0.1241
    120  CA       -28.4700   -1.5380  -13.7700 C.3   199  HIS199      0.1621
    121  C        -28.9070   -0.0770  -14.0420 C.2   199  HIS199      0.2264
    122  O        -28.3810    0.5590  -14.9360 O.2   199  HIS199     -0.2867
    123  CB       -27.3160   -1.6120  -12.7630 C.3   199  HIS199      0.0745
    124  CG       -27.7270   -1.4780  -11.3340 C.ar  199  HIS199      0.0817
    125  ND1      -28.1080   -0.2750  -10.7720 N.ar  199  HIS199     -0.2268
    126  CD2      -27.7720   -2.3860  -10.3360 C.ar  199  HIS199      0.1154
    127  CE1      -28.3910   -0.4570   -9.4910 C.ar  199  HIS199      0.1986
    128  NE2      -28.2010   -1.7290   -9.2010 N.ar  199  HIS199     -0.2212
    129  N        -28.2230    2.4480  -12.2880 N.3   201  GLU201     -0.1245
    130  CA       -27.0040    3.2440  -12.0270 C.3   201  GLU201      0.1567
    131  C        -26.1950    3.5220  -13.2860 C.2   201  GLU201      0.2260
    132  O        -25.3810    4.4490  -13.3090 O.2   201  GLU201     -0.2867
    133  CB       -26.0910    2.5460  -11.0120 C.3   201  GLU201      0.0388
    134  CG       -26.6390    2.5430   -9.5960 C.3   201  GLU201      0.1160
    135  CD       -25.7170    1.8650   -8.5920 C.2   201  GLU201      0.3649
    136  OE1      -24.5120    1.7080   -8.8840 O.co2 201  GLU201     -0.2457
    137  OE2      -26.1840    1.5230   -7.4980 O.co2 201  GLU201     -0.2457
    138  N        -32.4650   -3.7640  -10.9570 N.3   215  SER215     -0.1202
    139  CA       -31.5590   -4.0520   -9.8420 C.3   215  SER215      0.2020
    140  C        -31.0130   -5.4570  -10.0260 C.2   215  SER215      0.2619
    141  O        -31.5760   -6.2460  -10.7530 O.2   215  SER215     -0.2717
    142  CB       -32.3240   -3.9670   -8.5040 C.3   215  SER215      0.2103
    143  OG       -33.2410   -5.0500   -8.3150 O.3   215  SER215     -0.2182
    144  N        -29.9800   -5.8160   -9.2890 N.am  216  THR216     -0.1952
    145  CA       -29.5200   -7.2070   -9.3470 C.3   216  THR216      0.1897
    146  C        -30.6190   -8.1680   -8.9050 C.2   216  THR216      0.2313
    147  O        -30.7310   -9.2300   -9.4730 O.2   216  THR216     -0.2863
    148  CB       -28.2680   -7.4540   -8.5190 C.3   216  THR216      0.1794
    149  OG1      -28.5460   -7.1750   -7.1380 O.3   216  THR216     -0.2208
    150  CG2      -27.1300   -6.5720   -9.0120 C.3   216  THR216      0.0378
    151  N        -15.7780   -4.0190   -2.9130 N.3   263  MET263     -0.1245
    152  CA       -16.3990   -5.3360   -2.7730 C.3   263  MET263      0.1570
    153  C        -15.4000   -6.4890   -2.7940 C.2   263  MET263      0.2261
    154  O        -15.6560   -7.5260   -2.1700 O.2   263  MET263     -0.2867
    155  CB       -17.4510   -5.5570   -3.8620 C.3   263  MET263      0.0387
    156  CG       -18.7300   -4.7360   -3.6180 C.3   263  MET263      0.0595
    157  SD       -19.7850   -5.4730   -2.3260 S.3   263  MET263     -0.1393
    158  CE       -21.1880   -4.3880   -2.3770 C.3   263  MET263      0.0692
@<TRIPOS>BOND
     1   112   111    2
     2   119   120    1
     3   111   110    1
     4   122   121    2
     5   121   120    1
     6   110   113    1
     7   110   109    1
     8   120   123    1
     9   132   131    2
    10   131   130    1
    11   113   114    1
    12   123   124    1
    13   116   114   ar
    14   116   118   ar
    15   114   115   ar
    16   129   130    1
    17   130   133    1
    18   106   105    2
    19   118   117   ar
    20   124   125   ar
    21   124   126   ar
    22   133   134    1
    23   115   117   ar
    24   138   139    1
    25   125   127   ar
    26   141   140    2
    27   105   104    1
    28   126   128   ar
    29   140   139    1
    30   140   144   am
    31   139   142    1
    32   134   135    1
    33   103   104    1
    34   127   128   ar
    35   147   146    2
    36   145   144    1
    37   145   146    1
    38   145   148    1
    39   104   107    1
    40   107   108    1
    41   150   148    1
    42   136   135   ar
    43   135   137   ar
    44   100    99    2
    45   148   149    1
    46   142   143    1
    47    19    21   ar
    48    19    17   ar
    49    21    20   ar
    50   101   102    1
    51   101    98    1
    52    99    98    1
    53    17    16   ar
    54    20    18   ar
    55    98    97    1
    56    16    18   ar
    57    16    15    1
    58    74    73    1
    59    12    15    1
    60    12    11    1
    61    12    13    1
    62    97    92   am
    63    73    72   ar
    64    73    71   ar
    65    72    70   ar
    66    14    13    2
    67    93    92    2
    68    92    91    1
    69    71    69   ar
    70    70    68   ar
    71     9     7   ar
    72     9    10   ar
    73    69    68   ar
    74    68    67    1
    75   155   156    1
    76   155   152    1
    77    89    87   am
    78    29    27   ar
    79    95    94    1
    80   156   157    1
    81     7     6   ar
    82    10     8   ar
    83    91    94    1
    84    91    90    1
    85    26    27    1
    86    26    23    1
    87    67    64    1
    88    94    96    1
    89   151   152    1
    90    27    28   ar
    91     4     3    2
    92   153   152    1
    93   153   154    2
    94    87    86    1
    95    87    88    2
    96     3     2    1
    97    22    23    1
    98   158   157    1
    99    23    24    1
   100    86    83    1
   101     6     8   ar
   102     6     5    1
   103    64    63    1
   104    64    65    1
   105     2     5    1
   106     2     1    1
   107    62    61    1
   108    85    84    2
   109    80    79    1
   110    24    30   am
   111    24    25    2
   112    83    82    1
   113    83    84    1
   114    65    75   am
   115    65    66    2
   116    82    77   am
   117    75    76    1
   118    30    31    1
   119    54    53   ar
   120    54    52   ar
   121    53    51   ar
   122    79    76    1
   123    79    81    1
   124    61    60    1
   125    76    77    1
   126    77    78    2
   127    34    31    1
   128    34    35    1
   129    31    32    1
   130    52    50   ar
   131    36    32   am
   132    36    37    1
   133    51    49   ar
   134    43    41    1
   135    40    37    1
   136    40    41    1
   137    60    59    1
   138    32    33    2
   139    37    38    1
   140    50    49   ar
   141    38    39    2
   142    41    42    1
   143    49    48    1
   144    59    56    1
   145    48    45    1
   146    55    56    1
   147    55    46   am
   148    56    57    1
   149    44    45    1
   150    45    46    1
   151    46    47    2
   152    57    58    2
