@<TRIPOS>MOLECULE
tmp/6g79D00.pdb
 200 194 0 0 0
SMALL
GASTEIGER

@<TRIPOS>ATOM
      1  N         88.8340   60.8150   60.5820 N.3    85  ASP85      -0.1225
      2  CA        88.8450   60.1370   61.8900 C.3    85  ASP85       0.1805
      3  C         90.0510   60.5360   62.7420 C.2    85  ASP85       0.2597
      4  O         89.9130   60.7680   63.9450 O.2    85  ASP85      -0.2718
      5  CB        88.7780   58.6090   61.7040 C.3    85  ASP85       0.1424
      6  CG        89.0350   57.8340   62.9930 C.2    85  ASP85       0.3668
      7  OD1       88.4470   58.1820   64.0370 O.co2  85  ASP85      -0.2456
      8  OD2       89.8220   56.8650   62.9540 O.co2  85  ASP85      -0.2456
      9  N         91.2200   60.6190   62.1110 N.am   86  ILE86      -0.1980
     10  CA        92.4410   61.0450   62.7920 C.3    86  ILE86       0.1595
     11  C         92.3420   62.5150   63.2060 C.2    86  ILE86       0.2287
     12  O         92.5340   62.8320   64.3760 O.2    86  ILE86      -0.2864
     13  CB        93.6970   60.7760   61.9290 C.3    86  ILE86       0.0276
     14  CG1       93.9240   59.2630   61.7950 C.3    86  ILE86       0.0022
     15  CG2       94.9450   61.4200   62.5320 C.3    86  ILE86       0.0022
     16  CD1       94.5580   58.8480   60.4860 C.3    86  ILE86       0.0001
     17  N         89.5980   63.1540   66.0190 N.3    89  CYS89      -0.1221
     18  CA        90.0410   62.6300   67.3150 C.3    89  CYS89       0.1808
     19  C         91.4140   63.1560   67.7550 C.2    89  CYS89       0.2601
     20  O         91.8110   62.9440   68.8950 O.2    89  CYS89      -0.2717
     21  CB        90.0450   61.1090   67.2780 C.3    89  CYS89       0.0970
     22  SG        88.4010   60.3870   67.0950 S.3    89  CYS89      -0.0800
     23  N         92.1310   63.8200   66.8490 N.am   90  THR90      -0.1953
     24  CA        93.3430   64.5800   67.1830 C.3    90  THR90       0.1897
     25  C         92.9720   66.0180   67.5790 C.2    90  THR90       0.2313
     26  O         93.6060   66.5960   68.4580 O.2    90  THR90      -0.2863
     27  CB        94.3600   64.5670   66.0180 C.3    90  THR90       0.1794
     28  OG1       94.6990   63.2110   65.6970 O.3    90  THR90      -0.2208
     29  CG2       95.6440   65.3160   66.3740 C.3    90  THR90       0.0378
     30  N         91.3640   49.4930   56.1550 N.3   147  VAL147     -0.1231
     31  CA        92.2110   49.6090   57.3440 C.3   147  VAL147      0.1692
     32  C         93.0920   50.8510   57.2320 C.2   147  VAL147      0.2592
     33  O         93.1080   51.5210   56.1950 O.2   147  VAL147     -0.2718
     34  CB        93.1100   48.3700   57.5070 C.3   147  VAL147      0.0266
     35  CG1       92.2890   47.1440   57.8620 C.3   147  VAL147      0.0020
     36  CG2       93.9620   48.1480   56.2560 C.3   147  VAL147      0.0020
     37  N         93.8260   51.1450   58.3010 N.am  148  VAL148     -0.1966
     38  CA        94.7720   52.2690   58.3120 C.3   148  VAL148      0.1727
     39  C         96.0660   51.7980   57.6450 C.2   148  VAL148      0.2616
     40  O         96.4960   50.6570   57.8430 O.2   148  VAL148     -0.2715
     41  CB        95.0890   52.7720   59.7370 C.3   148  VAL148      0.0290
     42  CG1       95.9420   54.0370   59.7020 C.3   148  VAL148      0.0023
     43  CG2       93.8240   53.0330   60.5480 C.3   148  VAL148      0.0023
     44  N         96.6850   52.6880   56.8730 N.am  149  ASN149     -0.1958
     45  CA        97.8680   52.3570   56.0730 C.3   149  ASN149      0.1819
     46  C         99.1680   52.5510   56.8610 C.2   149  ASN149      0.2621
     47  O         99.6520   53.6760   57.0120 O.2   149  ASN149     -0.2715
     48  CB        97.8980   53.2030   54.7920 C.3   149  ASN149      0.1195
     49  CG        96.6300   53.0640   53.9620 C.2   149  ASN149      0.2630
     50  OD1       96.0800   54.0570   53.4870 O.2   149  ASN149     -0.2716
     51  ND2       96.1620   51.8320   53.7840 N.am  149  ASN149     -0.0877
     52  N         99.7120   51.4440   57.3690 N.am  150  THR150     -0.1951
     53  CA       101.0250   51.4280   58.0230 C.3   150  THR150      0.1897
     54  C        102.0960   51.1040   56.9790 C.2   150  THR150      0.2313
     55  O        102.0150   50.0710   56.3090 O.2   150  THR150     -0.2863
     56  CB       101.0830   50.3810   59.1590 C.3   150  THR150      0.1794
     57  OG1       99.9000   50.4710   59.9630 O.3   150  THR150     -0.2208
     58  CG2      102.3100   50.5980   60.0450 C.3   150  THR150      0.0378
     59  N        104.1670   56.5300   61.9900 N.3   156  THR156     -0.1218
     60  CA       103.2640   55.9930   63.0190 C.3   156  THR156      0.1862
     61  C        103.6550   56.5130   64.4020 C.2   156  THR156      0.2287
     62  O        102.8180   57.0720   65.1100 O.2   156  THR156     -0.2866
     63  CB       103.2700   54.4480   63.0410 C.3   156  THR156      0.1770
     64  OG1      103.0410   53.9450   61.7190 O.3   156  THR156     -0.2211
     65  CG2      102.1890   53.8980   63.9830 C.3   156  THR156      0.0375
     66  N        103.0760   60.2110   64.5170 N.3   159  SER159     -0.1202
     67  CA       101.6480   60.5350   64.5890 C.3   159  SER159      0.2020
     68  C        101.0900   60.3370   65.9970 C.2   159  SER159      0.2619
     69  O        100.5210   61.2630   66.5730 O.2   159  SER159     -0.2717
     70  CB       100.8530   59.6830   63.5920 C.3   159  SER159      0.2103
     71  OG        99.4670   59.9810   63.6400 O.3   159  SER159     -0.2182
     72  N        101.2660   59.1310   66.5360 N.am  160  THR160     -0.1952
     73  CA       100.7140   58.7610   67.8520 C.3   160  THR160      0.1897
     74  C        101.2060   59.6350   69.0150 C.2   160  THR160      0.2313
     75  O        100.4140   60.0110   69.8780 O.2   160  THR160     -0.2863
     76  CB       100.9480   57.2610   68.1850 C.3   160  THR160      0.1794
     77  OG1      100.2530   56.9170   69.3910 O.3   160  THR160     -0.2208
     78  CG2      102.4340   56.9270   68.3460 C.3   160  THR160      0.0378
     79  N         99.9070   63.2590   68.4330 N.3   163  ALA163     -0.1245
     80  CA        98.4370   63.2940   68.5360 C.3   163  ALA163      0.1562
     81  C         97.8460   62.5380   69.7450 C.2   163  ALA163      0.2260
     82  O         96.6430   62.2580   69.7660 O.2   163  ALA163     -0.2867
     83  CB        97.8190   62.7840   67.2380 C.3   163  ALA163      0.0290
     84  N         91.1130   56.9990   75.7980 N.3   210  TRP210     -0.1241
     85  CA        92.0920   57.0170   74.6900 C.3   210  TRP210      0.1605
     86  C         93.3600   56.1820   74.8980 C.2   210  TRP210      0.2264
     87  O         93.8920   55.6430   73.9250 O.2   210  TRP210     -0.2867
     88  CB        92.4830   58.4540   74.2980 C.3   210  TRP210      0.0550
     89  CG        91.5530   59.1000   73.3050 C.ar  210  TRP210      0.0003
     90  CD1       90.9710   60.3300   73.4120 C.ar  210  TRP210      0.0946
     91  CD2       91.1000   58.5500   72.0570 C.ar  210  TRP210      0.0152
     92  NE1       90.1860   60.5820   72.3120 N.ar  210  TRP210     -0.2442
     93  CE2       90.2460   59.5060   71.4660 C.ar  210  TRP210      0.0810
     94  CE3       91.3330   57.3400   71.3800 C.ar  210  TRP210      0.0012
     95  CZ2       89.6200   59.2930   70.2340 C.ar  210  TRP210      0.0191
     96  CZ3       90.7120   57.1290   70.1510 C.ar  210  TRP210      0.0001
     97  CH2       89.8660   58.1040   69.5920 C.ar  210  TRP210      0.0015
     98  N         93.6000   52.7800   73.1390 N.3   213  PHE213     -0.1227
     99  CA        93.7470   52.7790   71.6740 C.3   213  PHE213      0.1736
    100  C         95.1730   53.0930   71.2130 C.2   213  PHE213      0.2595
    101  O         95.7270   52.3790   70.3770 O.2   213  PHE213     -0.2718
    102  CB        92.7670   53.7470   71.0050 C.3   213  PHE213      0.0547
    103  CG        92.8070   53.6870   69.5010 C.ar  213  PHE213     -0.0202
    104  CD1       92.0880   52.7150   68.8130 C.ar  213  PHE213     -0.0042
    105  CD2       93.5900   54.5810   68.7730 C.ar  213  PHE213     -0.0042
    106  CE1       92.1350   52.6460   67.4280 C.ar  213  PHE213     -0.0003
    107  CE2       93.6460   54.5110   67.3880 C.ar  213  PHE213     -0.0003
    108  CZ        92.9130   53.5460   66.7130 C.ar  213  PHE213     -0.0000
    109  N         95.7450   54.1760   71.7320 N.am  214  PHE214     -0.1976
    110  CA        97.1030   54.5970   71.3460 C.3   214  PHE214      0.1639
    111  C         98.2150   53.7080   71.9150 C.2   214  PHE214      0.2290
    112  O         99.3540   53.7770   71.4510 O.2   214  PHE214     -0.2864
    113  CB        97.3430   56.0590   71.7180 C.3   214  PHE214      0.0560
    114  CG        96.4870   57.0190   70.9470 C.ar  214  PHE214     -0.0200
    115  CD1       96.8090   57.3590   69.6390 C.ar  214  PHE214     -0.0042
    116  CD2       95.3490   57.5740   71.5200 C.ar  214  PHE214     -0.0042
    117  CE1       96.0180   58.2410   68.9220 C.ar  214  PHE214     -0.0003
    118  CE2       94.5560   58.4590   70.8080 C.ar  214  PHE214     -0.0003
    119  CZ        94.8880   58.7940   69.5050 C.ar  214  PHE214     -0.0000
    120  N         97.5660   50.3650   71.7520 N.3   216  ILE216     -0.1231
    121  CA        97.3910   49.4340   70.6110 C.3   216  ILE216      0.1692
    122  C         98.2000   49.8440   69.3650 C.2   216  ILE216      0.2592
    123  O         98.6520   48.9760   68.6120 O.2   216  ILE216     -0.2718
    124  CB        95.8690   49.1940   70.3030 C.3   216  ILE216      0.0266
    125  CG1       95.3360   47.9370   71.0190 C.3   216  ILE216      0.0019
    126  CG2       95.5740   49.0250   68.8110 C.3   216  ILE216      0.0020
    127  CD1       95.7710   47.7340   72.4620 C.3   216  ILE216      0.0001
    128  N         98.3810   51.1490   69.1600 N.am  217  SER217     -0.1952
    129  CA        99.2480   51.6690   68.0920 C.3   217  SER217      0.1924
    130  C        100.6840   51.1440   68.1920 C.2   217  SER217      0.2314
    131  O        101.2600   50.7090   67.1930 O.2   217  SER217     -0.2863
    132  CB        99.2580   53.2010   68.1020 C.3   217  SER217      0.2116
    133  OG        99.9280   53.7170   66.9630 O.3   217  SER217     -0.2180
    134  N        100.7750   47.1370   67.8500 N.3   220  MET220     -0.1245
    135  CA       100.7410   46.7760   66.4250 C.3   220  MET220      0.1570
    136  C        101.3650   47.8940   65.5740 C.2   220  MET220      0.2261
    137  O        100.6410   48.7070   64.9900 O.2   220  MET220     -0.2867
    138  CB        99.3030   46.5020   65.9720 C.3   220  MET220      0.0387
    139  CG        98.6570   45.2870   66.6220 C.3   220  MET220      0.0595
    140  SD        97.8960   45.6770   68.2100 S.3   220  MET220     -0.1393
    141  CE        96.4630   44.6010   68.1730 C.3   220  MET220      0.0692
    142  N         97.3260   40.6130   69.1000 N.3   223  PHE223     -0.1227
    143  CA        95.9970   40.0290   69.3110 C.3   223  PHE223      0.1736
    144  C         95.0630   40.4790   68.1890 C.2   223  PHE223      0.2595
    145  O         95.2930   41.5090   67.5490 O.2   223  PHE223     -0.2718
    146  CB        95.4260   40.4160   70.6840 C.3   223  PHE223      0.0547
    147  CG        94.6250   39.3190   71.3370 C.ar  223  PHE223     -0.0202
    148  CD1       95.2620   38.3390   72.0950 C.ar  223  PHE223     -0.0042
    149  CD2       93.2390   39.2550   71.1920 C.ar  223  PHE223     -0.0042
    150  CE1       94.5360   37.3200   72.6970 C.ar  223  PHE223     -0.0003
    151  CE2       92.5080   38.2360   71.7910 C.ar  223  PHE223     -0.0003
    152  CZ        93.1580   37.2680   72.5460 C.ar  223  PHE223     -0.0000
    153  N         94.0130   39.6960   67.9590 N.am  224  HIS224     -0.1961
    154  CA        93.0740   39.9450   66.8560 C.3   224  HIS224      0.1787
    155  C         92.2230   41.2080   67.0440 C.2   224  HIS224      0.2620
    156  O         92.0980   41.7400   68.1490 O.2   224  HIS224     -0.2715
    157  CB        92.2100   38.7040   66.5850 C.3   224  HIS224      0.0785
    158  CG        92.8910   37.6890   65.7190 C.ar  224  HIS224      0.0821
    159  ND1       93.4650   36.5410   66.2200 N.ar  224  HIS224     -0.2267
    160  CD2       93.1180   37.6720   64.3840 C.ar  224  HIS224      0.1154
    161  CE1       94.0010   35.8510   65.2280 C.ar  224  HIS224      0.1986
    162  NE2       93.8040   36.5150   64.1040 N.ar  224  HIS224     -0.2212
    163  N         91.6330   41.6570   65.9390 N.am  225  LEU225     -0.1977
    164  CA        91.0560   43.0060   65.8170 C.3   225  LEU225      0.1596
    165  C         89.6940   43.2590   66.4880 C.2   225  LEU225      0.2287
    166  O         89.1110   44.3300   66.2960 O.2   225  LEU225     -0.2864
    167  CB        90.9570   43.3770   64.3330 C.3   225  LEU225      0.0297
    168  CG        92.2670   43.3850   63.5560 C.3   225  LEU225      0.0022
    169  CD1       92.0320   43.5630   62.0700 C.3   225  LEU225      0.0001
    170  CD2       93.2140   44.4610   64.0540 C.3   225  LEU225      0.0001
    171  N         90.4260   46.0190   68.9640 N.3   228  PHE228     -0.1241
    172  CA        90.6370   47.2890   68.2480 C.3   228  PHE228      0.1605
    173  C         89.3140   48.0320   68.0610 C.2   228  PHE228      0.2264
    174  O         89.2040   49.2110   68.4030 O.2   228  PHE228     -0.2867
    175  CB        91.3020   47.0450   66.8840 C.3   228  PHE228      0.0534
    176  CG        91.4900   48.2960   66.0560 C.ar  228  PHE228     -0.0203
    177  CD1       90.4500   48.7970   65.2690 C.ar  228  PHE228     -0.0042
    178  CD2       92.7060   48.9690   66.0530 C.ar  228  PHE228     -0.0042
    179  CE1       90.6180   49.9470   64.5100 C.ar  228  PHE228     -0.0003
    180  CE2       92.8750   50.1140   65.2890 C.ar  228  PHE228     -0.0003
    181  CZ        91.8350   50.6060   64.5180 C.ar  228  PHE228     -0.0000
    182  N         88.2040   51.8190   69.5490 N.3   232  THR232     -0.1218
    183  CA        87.8050   52.9230   68.6650 C.3   232  THR232      0.1862
    184  C         86.5460   53.5980   69.2060 C.2   232  THR232      0.2287
    185  O         86.5240   54.8130   69.4100 O.2   232  THR232     -0.2866
    186  CB        87.5400   52.4560   67.2180 C.3   232  THR232      0.1770
    187  OG1       86.7050   51.2920   67.2260 O.3   232  THR232     -0.2211
    188  CG2       88.8450   52.1410   66.5030 C.3   232  THR232      0.0375
    189  N         85.5710   57.0930   70.7950 N.3   236  TYR236     -0.1241
    190  CA        84.4030   57.8830   70.3620 C.3   236  TYR236      0.1605
    191  C         83.4000   58.0920   71.5020 C.2   236  TYR236      0.2264
    192  O         82.6110   59.0370   71.4710 O.2   236  TYR236     -0.2867
    193  CB        83.6940   57.2380   69.1630 C.3   236  TYR236      0.0534
    194  CG        84.5870   56.9070   67.9790 C.ar  236  TYR236     -0.0201
    195  CD1       85.6170   57.7630   67.5780 C.ar  236  TYR236     -0.0009
    196  CD2       84.3890   55.7360   67.2450 C.ar  236  TYR236     -0.0009
    197  CE1       86.4260   57.4510   66.4940 C.ar  236  TYR236      0.0417
    198  CE2       85.1930   55.4180   66.1600 C.ar  236  TYR236      0.0417
    199  CZ        86.2090   56.2780   65.7870 C.ar  236  TYR236      0.1957
    200  OH        87.0070   55.9670   64.7110 O.3   236  TYR236     -0.2866
@<TRIPOS>BOND
     1    50    49    2
     2    51    49   am
     3    49    48    1
     4    48    45    1
     5    45    46    1
     6    45    44    1
     7    30    31    1
     8    33    32    2
     9    36    34    1
    10    55    54    2
    11    46    47    2
    12    46    52   am
    13    44    39   am
    14    54    53    1
    15    32    31    1
    16    32    37   am
    17    31    34    1
    18    52    53    1
    19    34    35    1
    20    39    40    2
    21    39    38    1
    22    53    56    1
    23    37    38    1
    24    38    41    1
    25    56    57    1
    26    56    58    1
    27    42    41    1
    28    41    43    1
    29    16    14    1
    30     1     2    1
    31     5     2    1
    32     5     6    1
    33    64    63    1
    34    14    13    1
    35     2     3    1
    36    13    15    1
    37    13    10    1
    38    59    60    1
    39   169   168    1
    40     9     3   am
    41     9    10    1
    42     3     4    2
    43    10    11    1
    44     8     6   ar
    45     6     7   ar
    46    60    63    1
    47    60    61    1
    48    63    65    1
    49    11    12    2
    50   168   170    1
    51   168   167    1
    52    70    71    1
    53    70    67    1
    54   162   160   ar
    55   162   161   ar
    56   167   164    1
    57   160   158   ar
    58    61    62    2
    59   179   181   ar
    60   179   177   ar
    61    66    67    1
    62   181   180   ar
    63    67    68    1
    64   200   199    1
    65   137   136    2
    66   161   159   ar
    67   177   176   ar
    68   180   178   ar
    69   136   135    1
    70    28    27    1
    71   158   159   ar
    72   158   157    1
    73   199   198   ar
    74   199   197   ar
    75   164   163    1
    76   164   165    1
    77   163   155   am
    78   138   135    1
    79   138   139    1
    80    68    72   am
    81    68    69    2
    82    27    29    1
    83    27    24    1
    84    17    18    1
    85   178   176   ar
    86   176   175    1
    87   198   196   ar
    88   166   165    2
    89   135   134    1
    90   197   195   ar
    91   188   186    1
    92    72    73    1
    93   157   154    1
    94   139   140    1
    95   108   107   ar
    96   108   106   ar
    97    23    24    1
    98    23    19   am
    99   154   155    1
   100   154   153    1
   101   175   172    1
   102   133   132    1
   103   155   156    2
   104    22    21    1
   105    24    25    1
   106   131   130    2
   107   186   187    1
   108   186   183    1
   109    83    80    1
   110   196   194   ar
   111    21    18    1
   112    18    19    1
   113   107   105   ar
   114   106   104   ar
   115   145   144    2
   116   195   194   ar
   117    25    26    2
   118    19    20    2
   119    73    76    1
   120    73    74    1
   121   153   144   am
   122   194   193    1
   123   173   172    1
   124   173   174    2
   125   129   132    1
   126   129   130    1
   127   129   128    1
   128   141   140    1
   129    76    78    1
   130    76    77    1
   131   144   143    1
   132   172   171    1
   133    79    80    1
   134    80    81    1
   135   123   122    2
   136   183   184    1
   137   183   182    1
   138   105   103   ar
   139   126   124    1
   140   104   103   ar
   141   117   119   ar
   142   117   115   ar
   143    74    75    2
   144   142   143    1
   145   128   122   am
   146   193   190    1
   147   184   185    2
   148   143   146    1
   149   122   121    1
   150   103   102    1
   151   119   118   ar
   152    97    96   ar
   153    97    95   ar
   154   115   114   ar
   155    81    82    2
   156    96    94   ar
   157    95    93   ar
   158   124   121    1
   159   124   125    1
   160   190   189    1
   161   190   191    1
   162   101   100    2
   163   121   120    1
   164   146   147    1
   165   118   116   ar
   166   114   116   ar
   167   114   113    1
   168   102    99    1
   169   125   127    1
   170   149   147   ar
   171   149   151   ar
   172   100    99    1
   173   100   109   am
   174   147   148   ar
   175   110   113    1
   176   110   109    1
   177   110   111    1
   178    94    91   ar
   179   112   111    2
   180    93    91   ar
   181    93    92   ar
   182   192   191    2
   183    99    98    1
   184   151   152   ar
   185    91    89   ar
   186   148   150   ar
   187    92    90   ar
   188   152   150   ar
   189    89    90   ar
   190    89    88    1
   191    87    86    2
   192    88    85    1
   193    85    86    1
   194    85    84    1
