@<TRIPOS>MOLECULE
tmp/6g7aB00.pdb
 189 183 0 0 0
SMALL
GASTEIGER

@<TRIPOS>ATOM
      1  N          0.0390   15.2640   -1.0250 N.3     3  TRP3       -0.1241
      2  CA         0.7460   14.1480   -0.4460 C.3     3  TRP3        0.1605
      3  C          0.4890   12.9330   -1.3280 C.2     3  TRP3        0.2264
      4  O         -0.5490   12.8130   -2.0600 O.2     3  TRP3       -0.2867
      5  CB         0.2450   13.8920    0.9940 C.3     3  TRP3        0.0550
      6  CG        -1.2670   13.5800    1.1930 C.ar    3  TRP3        0.0003
      7  CD1       -2.2890   14.4340    1.4310 C.ar    3  TRP3        0.0946
      8  CD2       -1.8630   12.2710    1.1370 C.ar    3  TRP3        0.0152
      9  NE1       -3.4810   13.7730    1.5290 N.ar    3  TRP3       -0.2442
     10  CE2       -3.2500   12.4370    1.3950 C.ar    3  TRP3        0.0810
     11  CE3       -1.3090   10.9700    1.0130 C.ar    3  TRP3        0.0012
     12  CZ2       -4.1170   11.3660    1.5020 C.ar    3  TRP3        0.0191
     13  CZ3       -2.1590    9.9130    1.0870 C.ar    3  TRP3        0.0001
     14  CH2       -3.5120   10.1130    1.3280 C.ar    3  TRP3        0.0015
     15  N        -10.8800   10.1180   -5.0780 N.3    63  ASN63      -0.1240
     16  CA       -10.4440   11.3660   -4.3610 C.3    63  ASN63       0.1653
     17  C         -8.9600   11.6930   -4.5460 C.2    63  ASN63       0.2266
     18  O         -8.4370   12.5770   -3.8970 O.2    63  ASN63      -0.2867
     19  CB       -10.8390   11.3030   -2.8640 C.3    63  ASN63       0.1155
     20  CG       -10.0800   10.2240   -2.1470 C.2    63  ASN63       0.2627
     21  OD1       -9.1190    9.6360   -2.6860 O.2    63  ASN63      -0.2716
     22  ND2      -10.5170    9.8740   -0.8970 N.am   63  ASN63      -0.0877
     23  N         -6.5810    9.6340   -3.9330 N.3    65  HIS65      -0.1226
     24  CA        -5.7670    8.7660   -3.0410 C.3    65  HIS65       0.1752
     25  C         -6.3460    7.3830   -2.8890 C.2    65  HIS65       0.2596
     26  O         -5.5730    6.4450   -2.5120 O.2    65  HIS65      -0.2718
     27  CB        -5.6890    9.4250   -1.6650 C.3    65  HIS65       0.0759
     28  CG        -5.1410   10.8020   -1.7010 C.ar   65  HIS65       0.0818
     29  ND1       -3.7990   11.0360   -1.8840 N.ar   65  HIS65      -0.2268
     30  CD2       -5.7330   11.9770   -1.5290 C.ar   65  HIS65       0.1154
     31  CE1       -3.6080   12.3620   -1.8790 C.ar   65  HIS65       0.1986
     32  NE2       -4.7800   12.9280   -1.6130 N.ar   65  HIS65      -0.2212
     33  N         -7.6640    7.2210   -3.0800 N.am   66  SER66      -0.1952
     34  CA        -8.3370    5.9030   -3.0360 C.3    66  SER66       0.1924
     35  C         -9.6110    6.0620   -3.8360 C.2    66  SER66       0.2314
     36  O         -9.8370    7.1260   -4.4450 O.2    66  SER66      -0.2863
     37  CB        -8.6960    5.6070   -1.5620 C.3    66  SER66       0.2116
     38  OG        -9.2230    4.2720   -1.4630 O.3    66  SER66      -0.2180
     39  N        -13.5780    5.8450   -3.0170 N.3    68  LYS68      -0.1245
     40  CA       -14.4820    5.8900   -1.8310 C.3    68  LYS68       0.1561
     41  C        -15.9250    5.8010   -2.2470 C.2    68  LYS68       0.2260
     42  O        -16.3290    6.3450   -3.2440 O.2    68  LYS68      -0.2867
     43  CB       -14.1180    7.0510   -1.0130 C.3    68  LYS68       0.0271
     44  CG       -14.6020    8.3720   -1.4590 C.3    68  LYS68       0.0035
     45  CD       -14.7190    9.3500   -0.2230 C.3    68  LYS68       0.0206
     46  CE       -14.9190   10.6530   -0.8940 C.3    68  LYS68       0.1093
     47  NZ       -14.7570   11.6710    0.2060 N.3    68  LYS68      -0.1314
     48  N        -19.8820    6.8980    7.2680 N.3    87  THR87      -0.1203
     49  CA       -19.7290    8.0480    6.3480 C.3    87  THR87       0.1994
     50  C        -19.2190    7.6140    4.9900 C.2    87  THR87       0.2617
     51  O        -19.6600    8.1280    3.9820 O.2    87  THR87      -0.2717
     52  CB       -18.8480    9.1240    7.0190 C.3    87  THR87       0.1784
     53  OG1      -18.7930   10.2250    6.0580 O.3    87  THR87      -0.2211
     54  CG2      -17.4480    8.6870    7.4030 C.3    87  THR87       0.0376
     55  N        -18.2640    6.6540    4.9440 N.am   88  GLN88      -0.1979
     56  CA       -17.7150    6.2030    3.6390 C.3    88  GLN88       0.1601
     57  C        -16.9330    4.9490    3.8260 C.2    88  GLN88       0.2287
     58  O        -16.5340    4.6600    4.9860 O.2    88  GLN88      -0.2864
     59  CB       -16.7830    7.3290    3.0120 C.3    88  GLN88       0.0394
     60  CG       -15.6660    7.8030    3.9280 C.3    88  GLN88       0.0908
     61  CD       -14.3150    7.3520    3.4590 C.2    88  GLN88       0.2608
     62  OE1      -14.1470    6.1930    3.1970 O.2    88  GLN88      -0.2717
     63  NE2      -13.3790    8.1900    3.3370 N.am   88  GLN88      -0.0878
     64  N        -13.6070    2.7720    1.7480 N.3    90  HIS90      -0.1241
     65  CA       -12.5790    2.9150    0.6650 C.3    90  HIS90       0.1621
     66  C        -11.6230    1.7650    0.8650 C.2    90  HIS90       0.2264
     67  O        -11.7050    0.9610    1.8180 O.2    90  HIS90      -0.2867
     68  CB       -11.8890    4.2940    0.7890 C.3    90  HIS90       0.0745
     69  CG       -11.1660    4.4580    2.0890 C.ar   90  HIS90       0.0817
     70  ND1      -11.7100    5.0650    3.2080 N.ar   90  HIS90      -0.2268
     71  CD2       -9.9220    3.9580    2.4730 C.ar   90  HIS90       0.1154
     72  CE1      -10.8540    4.9370    4.2340 C.ar   90  HIS90       0.1986
     73  NE2       -9.7520    4.2660    3.8190 N.ar   90  HIS90      -0.2212
     74  N         -7.4020    0.1350    0.1650 N.3    92  HIS92      -0.1241
     75  CA        -5.9210    0.2670   -0.0230 C.3    92  HIS92       0.1621
     76  C         -5.4080   -0.9490   -0.6830 C.2    92  HIS92       0.2264
     77  O         -5.8950   -2.0730   -0.3610 O.2    92  HIS92      -0.2867
     78  CB        -5.2290    0.4150    1.3430 C.3    92  HIS92       0.0745
     79  CG        -5.7310    1.5760    2.1200 C.ar   92  HIS92       0.0817
     80  ND1       -5.1400    2.8370    2.0790 N.ar   92  HIS92      -0.2268
     81  CD2       -6.7810    1.7090    3.0000 C.ar   92  HIS92       0.1154
     82  CE1       -5.8030    3.6930    2.8630 C.ar   92  HIS92       0.1986
     83  NE2       -6.8200    3.0430    3.4230 N.ar   92  HIS92      -0.2212
     84  N        -11.6300   -0.3060    4.4180 N.3   116  HIS116     -0.1241
     85  CA       -11.9790    0.4890    5.6480 C.3   116  HIS116      0.1621
     86  C        -13.3450    1.0620    5.5220 C.2   116  HIS116      0.2264
     87  O        -13.6660    1.7190    4.5460 O.2   116  HIS116     -0.2867
     88  CB       -10.9850    1.6910    5.7510 C.3   116  HIS116      0.0745
     89  CG        -9.6310    1.2040    6.1120 C.ar  116  HIS116      0.0817
     90  ND1       -8.4660    1.9160    5.8340 N.ar  116  HIS116     -0.2268
     91  CD2       -9.2370    0.0320    6.6600 C.ar  116  HIS116      0.1154
     92  CE1       -7.4080    1.2090    6.2470 C.ar  116  HIS116      0.1986
     93  NE2       -7.8560    0.0670    6.7490 N.ar  116  HIS116     -0.2212
     94  N        -15.4870    3.7100    7.3710 N.3   118  VAL118     -0.1245
     95  CA       -15.2810    4.7590    8.3130 C.3   118  VAL118      0.1561
     96  C        -16.6210    5.2230    8.8940 C.2   118  VAL118      0.2260
     97  O        -17.5620    5.4550    8.0950 O.2   118  VAL118     -0.2867
     98  CB       -14.5990    5.9740    7.5800 C.3   118  VAL118      0.0252
     99  CG1      -14.2910    7.0730    8.5670 C.3   118  VAL118      0.0019
    100  CG2      -13.2920    5.4780    6.8200 C.3   118  VAL118      0.0019
    101  N        -18.4820   13.6470   10.0690 N.3   128  ALA128     -0.1231
    102  CA       -17.1900   13.0320   10.2800 C.3   128  ALA128      0.1694
    103  C        -16.0650   14.0340   10.3470 C.2   128  ALA128      0.2592
    104  O        -15.1250   13.8280   11.0650 O.2   128  ALA128     -0.2718
    105  CB       -16.9460   12.0180    9.1190 C.3   128  ALA128      0.0304
    106  N        -16.1670   15.1460    9.6060 N.am  129  SER129     -0.1952
    107  CA       -15.0990   16.1860    9.6650 C.3   129  SER129      0.1924
    108  C        -14.9090   16.7160   11.0890 C.2   129  SER129      0.2314
    109  O        -13.7730   16.7930   11.5780 O.2   129  SER129     -0.2863
    110  CB       -15.3700   17.3750    8.7230 C.3   129  SER129      0.2116
    111  OG       -15.3080   17.0200    7.3600 O.3   129  SER129     -0.2180
    112  N        -13.4990   14.1340   13.5750 N.3   132  SER132     -0.1217
    113  CA       -12.1510   13.6180   13.2600 C.3   132  SER132      0.1889
    114  C        -11.1020   14.2170   14.1860 C.2   132  SER132      0.2288
    115  O         -9.9790   13.6900   14.2470 O.2   132  SER132     -0.2866
    116  CB       -11.8370   13.8270   11.8090 C.3   132  SER132      0.2089
    117  OG       -11.6310   15.2060   11.4420 O.3   132  SER132     -0.2183
    118  N        -13.8600    8.8400   15.6290 N.3   138  LEU138     -0.1245
    119  CA       -14.0740    7.9400   14.4690 C.3   138  LEU138      0.1561
    120  C        -13.9270    6.5230   14.8920 C.2   138  LEU138      0.2260
    121  O        -13.1990    6.2010   15.8460 O.2   138  LEU138     -0.2867
    122  CB       -13.0320    8.2110   13.3850 C.3   138  LEU138      0.0270
    123  CG       -13.0480    9.6820   12.8810 C.3   138  LEU138      0.0019
    124  CD1      -11.8630    9.8910   11.9250 C.3   138  LEU138      0.0001
    125  CD2      -14.3690    9.9750   12.1670 C.3   138  LEU138      0.0001
    126  N        -13.3020    2.8340   12.7330 N.3   140  VAL140     -0.1245
    127  CA       -13.1500    2.2010   11.4250 C.3   140  VAL140      0.1561
    128  C        -13.2490    0.7140   11.5420 C.2   140  VAL140      0.2260
    129  O        -12.6290    0.1330   12.4810 O.2   140  VAL140     -0.2867
    130  CB       -11.7730    2.5880   10.7790 C.3   140  VAL140      0.0252
    131  CG1      -11.6270    1.8760    9.4240 C.3   140  VAL140      0.0019
    132  CG2      -11.7460    4.0850   10.6010 C.3   140  VAL140      0.0019
    133  N         -6.0260    8.0100   11.8080 N.3   196  LEU196     -0.1231
    134  CA        -6.1430    7.9430   10.3180 C.3   196  LEU196      0.1693
    135  C         -4.8450    7.4410    9.7450 C.2   196  LEU196      0.2593
    136  O         -3.7640    7.8210   10.1930 O.2   196  LEU196     -0.2718
    137  CB        -6.4320    9.3530    9.6870 C.3   196  LEU196      0.0284
    138  CG        -7.8460    9.7900    9.5660 C.3   196  LEU196      0.0019
    139  CD1       -8.4220   10.1300   10.9000 C.3   196  LEU196      0.0001
    140  CD2       -7.8610   11.0820    8.7100 C.3   196  LEU196      0.0001
    141  N         -4.9350    6.5740    8.6980 N.am  197  THR197     -0.1939
    142  CA        -3.6850    6.1030    8.0800 C.3   197  THR197      0.2028
    143  C         -3.2280    7.0020    6.9260 C.2   197  THR197      0.2643
    144  O         -2.2210    6.7270    6.2790 O.2   197  THR197     -0.2714
    145  CB        -3.7900    4.6850    7.5510 C.3   197  THR197      0.1808
    146  OG1       -4.7570    4.7240    6.5040 O.3   197  THR197     -0.2208
    147  CG2       -4.2090    3.7100    8.6050 C.3   197  THR197      0.0379
    148  N         -4.0350    8.0870    6.6750 N.am  198  THR198     -0.1937
    149  CA        -3.7080    9.0780    5.6730 C.3   198  THR198      0.2013
    150  C         -3.6300   10.4010    6.3890 C.2   198  THR198      0.2484
    151  O         -4.2570   10.6030    7.4170 O.2   198  THR198     -0.2729
    152  CB        -4.8600    9.1870    4.6030 C.3   198  THR198      0.1807
    153  OG1       -6.0730    9.5510    5.2150 O.3   198  THR198     -0.2208
    154  CG2       -5.0670    7.8060    3.9800 C.3   198  THR198      0.0379
    155  N         -2.8790   11.3550    5.7770 N.am  199  PRO199     -0.2715
    156  CA        -2.9900   12.7420    6.2710 C.3   199  PRO199      0.1521
    157  C         -4.4850   13.1430    6.4200 C.2   199  PRO199      0.2440
    158  O         -5.2710   12.7660    5.5850 O.2   199  PRO199     -0.2731
    159  CB        -2.2950   13.5200    5.1390 C.3   199  PRO199      0.0310
    160  CG        -1.2120   12.6090    4.6870 C.3   199  PRO199      0.0237
    161  CD        -1.9750   11.2310    4.6600 C.3   199  PRO199      0.0939
    162  N         -4.8180   13.8740    7.4630 N.am  200  PRO200     -0.2727
    163  CA        -3.9440   14.5050    8.4510 C.3   200  PRO200      0.1402
    164  C         -3.5750   13.6200    9.6700 C.2   200  PRO200      0.2269
    165  O         -3.0380   14.0810   10.6890 O.2   200  PRO200     -0.2865
    166  CB        -4.7880   15.7270    8.8710 C.3   200  PRO200      0.0296
    167  CG        -6.1670   15.1460    8.8490 C.3   200  PRO200      0.0237
    168  CD        -6.2280   14.2630    7.6550 C.3   200  PRO200      0.0939
    169  N         -9.0060    7.5440   16.0810 N.3   205  VAL205     -0.1245
    170  CA        -9.7490    6.3800   15.5490 C.3   205  VAL205      0.1561
    171  C         -9.7420    5.1730   16.4990 C.2   205  VAL205      0.2260
    172  O         -8.6710    4.7680   16.9440 O.2   205  VAL205     -0.2867
    173  CB        -9.1240    5.9490   14.1640 C.3   205  VAL205      0.0252
    174  CG1       -9.8380    4.6930   13.6550 C.3   205  VAL205      0.0019
    175  CG2       -9.2090    7.0570   13.1130 C.3   205  VAL205      0.0019
    176  N        -10.0100    1.5220   16.1500 N.3   207  TRP207     -0.1241
    177  CA        -9.8580    0.5340   15.0710 C.3   207  TRP207      0.1605
    178  C        -10.4370   -0.7890   15.4790 C.2   207  TRP207      0.2264
    179  O        -10.2050   -1.2610   16.6230 O.2   207  TRP207     -0.2867
    180  CB        -8.3290    0.3110   14.7580 C.3   207  TRP207      0.0550
    181  CG        -7.8300    1.3990   13.8500 C.ar  207  TRP207      0.0003
    182  CD1       -7.1840    2.5390   14.2320 C.ar  207  TRP207      0.0946
    183  CD2       -7.9530    1.4270   12.4390 C.ar  207  TRP207      0.0152
    184  NE1       -6.9470    3.3480   13.1540 N.ar  207  TRP207     -0.2442
    185  CE2       -7.4510    2.6950   12.0190 C.ar  207  TRP207      0.0810
    186  CE3       -8.5370    0.5760   11.4960 C.ar  207  TRP207      0.0012
    187  CZ2       -7.4460    3.0900   10.6860 C.ar  207  TRP207      0.0191
    188  CZ3       -8.5310    0.9270   10.1600 C.ar  207  TRP207      0.0001
    189  CH2       -7.9780    2.1930    9.7650 C.ar  207  TRP207      0.0015
@<TRIPOS>BOND
     1    15    16    1
     2    17    16    1
     3    17    18    2
     4    36    35    2
     5    16    19    1
     6    23    24    1
     7    35    34    1
     8    42    41    2
     9    33    34    1
    10    33    25   am
    11    24    25    1
    12    24    27    1
    13    34    37    1
    14    39    40    1
    15    25    26    2
    16    19    20    1
    17    21    20    2
    18    41    40    1
    19    20    22   am
    20     4     3    2
    21    29    31   ar
    22    29    28   ar
    23    31    32   ar
    24    40    43    1
    25    28    27    1
    26    28    30   ar
    27    32    30   ar
    28    37    38    1
    29    44    43    1
    30    44    45    1
    31     3     2    1
    32     1     2    1
    33    46    45    1
    34    46    47    1
    35    76    77    2
    36    76    75    1
    37     2     5    1
    38    75    74    1
    39    75    78    1
    40    65    68    1
    41    65    66    1
    42    65    64    1
    43    68    69    1
    44    66    67    2
    45     5     6    1
    46    11    13   ar
    47    11     8   ar
    48    13    14   ar
    49     8     6   ar
    50     8    10   ar
    51     6     7   ar
    52    14    12   ar
    53    78    79    1
    54    10    12   ar
    55    10     9   ar
    56     7     9   ar
    57    80    79   ar
    58    80    82   ar
    59    69    71   ar
    60    69    70   ar
    61    79    81   ar
    62    71    73   ar
    63    82    83   ar
    64    81    83   ar
    65    59    56    1
    66    59    60    1
    67    62    61    2
    68    70    72   ar
    69    63    61   am
    70    61    60    1
    71    56    57    1
    72    56    55    1
    73    73    72   ar
    74    57    58    2
    75   154   152    1
    76    51    50    2
    77    84    85    1
    78    87    86    2
    79   152   153    1
    80   152   149    1
    81   161   160    1
    82   161   155    1
    83   160   159    1
    84    55    50   am
    85    50    49    1
    86   159   156    1
    87    86    85    1
    88   158   157    2
    89    85    88    1
    90   149   150    1
    91   149   148    1
    92    88    89    1
    93   155   156    1
    94   155   150   am
    95    90    89   ar
    96    90    92   ar
    97    53    52    1
    98    89    91   ar
    99    92    93   ar
   100   156   157    1
   101   144   143    2
   102    49    52    1
   103    49    48    1
   104   150   151    2
   105   157   162   am
   106   146   145    1
   107    91    93   ar
   108   148   143   am
   109   100    98    1
   110   143   142    1
   111    52    54    1
   112   111   110    1
   113    94    95    1
   114   162   168    1
   115   162   163    1
   116   145   142    1
   117   145   147    1
   118    98    95    1
   119    98    99    1
   120   168   167    1
   121   142   141    1
   122    97    96    2
   123    95    96    1
   124   163   166    1
   125   163   164    1
   126   141   135   am
   127   140   138    1
   128   110   107    1
   129   167   166    1
   130   105   102    1
   131   131   130    1
   132   138   137    1
   133   138   139    1
   134   106   107    1
   135   106   103   am
   136   107   108    1
   137   164   165    2
   138   137   134    1
   139   135   136    2
   140   135   134    1
   141   189   188   ar
   142   189   187   ar
   143   101   102    1
   144   188   186   ar
   145   102   103    1
   146   134   133    1
   147   103   104    2
   148   132   130    1
   149   187   185   ar
   150   130   127    1
   151   108   109    2
   152   127   128    1
   153   127   126    1
   154   117   116    1
   155   186   183   ar
   156   128   129    2
   157   116   113    1
   158   124   123    1
   159   185   183   ar
   160   185   184   ar
   161   125   123    1
   162   183   181   ar
   163   123   122    1
   164   175   173    1
   165   184   182   ar
   166   113   112    1
   167   113   114    1
   168   122   119    1
   169   174   173    1
   170   181   182   ar
   171   181   180    1
   172   173   170    1
   173   114   115    2
   174   119   120    1
   175   119   118    1
   176   180   177    1
   177   120   121    2
   178   177   178    1
   179   177   176    1
   180   178   179    2
   181   170   169    1
   182   170   171    1
   183   171   172    2
