@<TRIPOS>MOLECULE
tmp/6g7fY00.pdb
 108 101 0 0 0
SMALL
GASTEIGER

@<TRIPOS>ATOM
      1  N         56.8210 -152.4790    7.5050 N.3     1  THR1       -0.1218
      2  CA        57.0770 -153.6710    6.7250 C.3     1  THR1        0.1862
      3  C         56.4530 -153.4770    5.4040 C.2     1  THR1        0.2287
      4  O         55.3080 -153.0900    5.3070 O.2     1  THR1       -0.2866
      5  CB        56.3600 -154.8300    7.3440 C.3     1  THR1        0.1770
      6  OG1       56.9210 -155.0320    8.5970 O.3     1  THR1       -0.2211
      7  CG2       56.5690 -156.0670    6.5260 C.3     1  THR1        0.0375
      8  N         63.0360 -154.0850    8.0600 N.3    19  ARG19      -0.1231
      9  CA        62.9600 -153.3350    9.3200 C.3    19  ARG19       0.1694
     10  C         61.9970 -153.9480   10.3490 C.2    19  ARG19       0.2592
     11  O         60.9300 -154.4480    9.9910 O.2    19  ARG19      -0.2718
     12  CB        62.5650 -151.8820    9.0290 C.3    19  ARG19       0.0321
     13  CG        62.5500 -150.9920   10.2640 C.3    19  ARG19       0.0489
     14  CD        62.5050 -149.5210    9.9070 C.3    19  ARG19       0.2205
     15  NE        63.7820 -149.0510    9.3720 N.pl3  19  ARG19      -0.0865
     16  CZ        64.0600 -147.7850    9.0610 C.cat  19  ARG19       0.5346
     17  NH1       63.1490 -146.8230    9.2270 N.pl3  19  ARG19       0.1354
     18  NH2       65.2650 -147.4740    8.5850 N.pl3  19  ARG19       0.1354
     19  N         62.3870 -153.8950   11.6230 N.am   20  ALA20      -0.1966
     20  CA        61.5140 -154.2720   12.7410 C.3    20  ALA20       0.1728
     21  C         61.6380 -153.2420   13.8540 C.2    20  ALA20       0.2617
     22  O         62.7470 -152.9400   14.2850 O.2    20  ALA20      -0.2715
     23  CB        61.8820 -155.6490   13.2600 C.3    20  ALA20       0.0334
     24  N         60.5040 -152.7270   14.3280 N.am   21  THR21      -0.1937
     25  CA        60.4780 -151.6590   15.3360 C.3    21  THR21       0.2028
     26  C         59.6490 -152.0350   16.5620 C.2    21  THR21       0.2642
     27  O         58.5710 -152.6110   16.4290 O.2    21  THR21      -0.2714
     28  CB        59.9030 -150.3510   14.7560 C.3    21  THR21       0.1808
     29  OG1       58.5490 -150.5580   14.3340 O.3    21  THR21      -0.2208
     30  CG2       60.7370 -149.8740   13.5740 C.3    21  THR21       0.0379
     31  N         60.1600 -151.6960   17.7460 N.am   22  ALA22      -0.1963
     32  CA        59.4340 -151.8550   19.0120 C.3    22  ALA22       0.1728
     33  C         59.0650 -150.4700   19.5400 C.2    22  ALA22       0.2616
     34  O         59.9220 -149.7310   20.0170 O.2    22  ALA22      -0.2715
     35  CB        60.2870 -152.6060   20.0220 C.3    22  ALA22       0.0334
     36  N         57.7870 -150.1170   19.4470 N.am   23  GLY23      -0.1955
     37  CA        57.3430 -148.7550   19.7510 C.3    23  GLY23       0.1869
     38  C         57.8540 -147.8000   18.6850 C.2    23  GLY23       0.2309
     39  O         57.4880 -147.9220   17.5120 O.2    23  GLY23      -0.2863
     40  N         64.3270 -152.0590   16.4020 N.3    27  ALA27      -0.1245
     41  CA        64.9300 -153.2430   17.0080 C.3    27  ALA27       0.1562
     42  C         65.9090 -153.9220   16.0550 C.2    27  ALA27       0.2260
     43  O         67.0090 -154.2960   16.4630 O.2    27  ALA27      -0.2867
     44  CB        63.8470 -154.2220   17.4390 C.3    27  ALA27       0.0290
     45  N         66.2130 -158.0630    9.0890 N.3    31  VAL31      -0.1245
     46  CA        65.1770 -159.0800    9.2380 C.3    31  VAL31       0.1561
     47  C         64.8970 -159.7130    7.8840 C.2    31  VAL31       0.2260
     48  O         64.8660 -159.0350    6.8510 O.2    31  VAL31      -0.2867
     49  CB        63.8820 -158.4960    9.8490 C.3    31  VAL31       0.0252
     50  CG1       62.8080 -159.5600   10.0250 C.3    31  VAL31       0.0019
     51  CG2       64.1870 -157.8650   11.1950 C.3    31  VAL31       0.0019
     52  N         62.3230 -161.2510    5.7730 N.3    33  LYS33      -0.1245
     53  CA        60.8710 -161.3010    5.6230 C.3    33  LYS33       0.1561
     54  C         60.4390 -162.2170    4.4730 C.2    33  LYS33       0.2260
     55  O         59.2550 -162.2770    4.1380 O.2    33  LYS33      -0.2867
     56  CB        60.3100 -159.8850    5.4700 C.3    33  LYS33       0.0271
     57  CG        60.5980 -159.0310    6.6900 C.3    33  LYS33       0.0035
     58  CD        59.9940 -157.6500    6.5860 C.3    33  LYS33       0.0206
     59  CE        60.3220 -156.8610    7.8370 C.3    33  LYS33       0.1093
     60  NZ        59.8080 -155.4750    7.7710 N.3    33  LYS33      -0.1314
     61  N         56.7800 -162.3820    5.0510 N.3    45  MET45      -0.1182
     62  CA        56.4450 -162.1440    6.4630 C.3    45  MET45       0.1917
     63  C         55.8600 -160.7390    6.6460 C.2    45  MET45       0.2634
     64  O         56.4960 -159.7400    6.3150 O.2    45  MET45      -0.2714
     65  CB        57.6770 -162.3930    7.3610 C.2    45  MET45       0.0083
     66  CG        57.8430 -161.4740    8.5740 C.2    45  MET45       0.0282
     67  SD        59.2770 -161.7400    9.6460 S.3    45  MET45      -0.1125
     68  CE        59.5580 -163.5140    9.5610 C.3    45  MET45       0.0742
     69  N         54.6310 -160.6780    7.1480 N.am   46  ALA46      -0.1963
     70  CA        54.0320 -159.4290    7.6190 C.3    46  ALA46       0.1728
     71  C         53.0510 -159.7300    8.7430 C.2    46  ALA46       0.2617
     72  O         52.4550 -160.8040    8.7770 O.2    46  ALA46      -0.2715
     73  CB        53.3350 -158.6990    6.4840 C.3    46  ALA46       0.0334
     74  N         52.8760 -158.7720    9.6470 N.am   47  GLY47      -0.1940
     75  CA        52.1150 -158.9870   10.8790 C.3    47  GLY47       0.2014
     76  C         53.0750 -159.4920   11.9370 C.2    47  GLY47       0.2639
     77  O         54.0080 -158.7830   12.3160 O.2    47  GLY47      -0.2714
     78  N         52.8780 -160.7310   12.3760 N.am   48  GLY48      -0.1939
     79  CA        53.6970 -161.3430   13.4270 C.3    48  GLY48       0.2014
     80  C         54.8700 -162.0900   12.8200 C.2    48  GLY48       0.2638
     81  O         54.6770 -162.9580   11.9690 O.2    48  GLY48      -0.2714
     82  N         56.0860 -161.7480   13.2440 N.am   49  ALA49      -0.1977
     83  CA        57.2950 -162.4110   12.7460 C.3    49  ALA49       0.1597
     84  C         57.2970 -163.8960   13.0940 C.2    49  ALA49       0.2287
     85  O         57.5470 -164.7380   12.2380 O.2    49  ALA49      -0.2864
     86  CB        58.5400 -161.7460   13.3130 C.3    49  ALA49       0.0319
     87  N         51.6800 -154.7620    4.3170 N.3   130  GLY130     -0.1210
     88  CA        52.4400 -154.0970    5.3720 C.3   130  GLY130      0.1956
     89  C         52.0960 -152.6200    5.5010 C.2   130  GLY130      0.2612
     90  O         51.2820 -152.0920    4.7330 O.2   130  GLY130     -0.2717
     91  N         52.7260 -151.9530    6.4710 N.am  131  SER131     -0.1952
     92  CA        52.5190 -150.5200    6.7050 C.3   131  SER131      0.1924
     93  C         52.9290 -149.6530    5.5080 C.2   131  SER131      0.2314
     94  O         52.3740 -148.5710    5.3200 O.2   131  SER131     -0.2863
     95  CB        53.2640 -150.0620    7.9650 C.3   131  SER131      0.2116
     96  OG        54.6400 -150.3910    7.9100 O.3   131  SER131     -0.2180
     97  N         58.1280 -147.1990    9.3500 N.3   170  TYR170     -0.1241
     98  CA        58.3190 -148.5760    9.8110 C.3   170  TYR170      0.1605
     99  C         58.8410 -149.5400    8.7330 C.2   170  TYR170      0.2264
    100  O         58.8930 -150.7460    8.9640 O.2   170  TYR170     -0.2867
    101  CB        57.0080 -149.0890   10.4190 C.3   170  TYR170      0.0534
    102  CG        56.5180 -148.2050   11.5470 C.ar  170  TYR170     -0.0201
    103  CD1       57.3000 -148.0050   12.6850 C.ar  170  TYR170     -0.0009
    104  CD2       55.2890 -147.5500   11.4730 C.ar  170  TYR170     -0.0009
    105  CE1       56.8740 -147.1870   13.7190 C.ar  170  TYR170      0.0417
    106  CE2       54.8510 -146.7280   12.5070 C.ar  170  TYR170      0.0417
    107  CZ        55.6460 -146.5480   13.6270 C.ar  170  TYR170      0.1957
    108  OH        55.2210 -145.7310   14.6560 O.3   170  TYR170     -0.2866
@<TRIPOS>BOND
     1    55    54    2
     2    87    88    1
     3    54    53    1
     4    90    89    2
     5    61    62    1
     6     4     3    2
     7    94    93    2
     8    88    89    1
     9     3     2    1
    10    56    53    1
    11    56    57    1
    12    89    91   am
    13    93    92    1
    14    53    52    1
    15    64    63    2
    16    62    63    1
    17    62    65    1
    18    91    92    1
    19    73    70    1
    20     7     5    1
    21    58    57    1
    22    58    59    1
    23    63    69   am
    24    92    95    1
    25     2     5    1
    26     2     1    1
    27    48    47    2
    28    69    70    1
    29     5     6    1
    30    65    66    2
    31    70    71    1
    32    60    59    1
    33    47    46    1
    34    96    95    1
    35     8     9    1
    36    66    67    1
    37    18    16    1
    38    99   100    2
    39    99    98    1
    40    71    72    2
    41    71    74   am
    42    12     9    1
    43    12    13    1
    44    16    17    1
    45    16    15    2
    46    45    46    1
    47    46    49    1
    48     9    10    1
    49    97    98    1
    50    15    14    1
    51    68    67    1
    52    74    75    1
    53    98   101    1
    54    49    50    1
    55    49    51    1
    56    14    13    1
    57    11    10    2
    58    10    19   am
    59   101   102    1
    60    75    76    1
    61   104   102   ar
    62   104   106   ar
    63   102   103   ar
    64    19    20    1
    65    76    77    2
    66    76    78   am
    67    81    80    2
    68    85    84    2
    69    78    79    1
    70   106   107   ar
    71   103   105   ar
    72    20    23    1
    73    20    21    1
    74    83    84    1
    75    83    82    1
    76    83    86    1
    77    80    82   am
    78    80    79    1
    79    30    28    1
    80   107   105   ar
    81   107   108    1
    82    21    22    2
    83    21    24   am
    84    24    25    1
    85    29    28    1
    86    28    25    1
    87    25    26    1
    88    42    43    2
    89    42    41    1
    90    40    41    1
    91    27    26    2
    92    26    31   am
    93    41    44    1
    94    39    38    2
    95    31    32    1
    96    38    37    1
    97    32    33    1
    98    32    35    1
    99    36    33   am
   100    36    37    1
   101    33    34    2
