@<TRIPOS>MOLECULE
tmp/6g7fN00.pdb
 119 111 0 0 0
SMALL
GASTEIGER

@<TRIPOS>ATOM
      1  N         43.5250 -143.6610   62.7370 N.3     1  THR1       -0.1218
      2  CA        43.4220 -142.5800   63.6870 C.3     1  THR1        0.1862
      3  C         42.4360 -142.9870   64.7310 C.2     1  THR1        0.2287
      4  O         41.3690 -143.4760   64.4260 O.2     1  THR1       -0.2866
      5  CB        42.8660 -141.3710   62.9620 C.3     1  THR1        0.1770
      6  OG1       43.8290 -140.9340   62.0200 O.3     1  THR1       -0.2211
      7  CG2       42.5500 -140.2790   63.9530 C.3     1  THR1        0.0375
      8  N         49.7510 -141.6260   64.9340 N.3    19  ARG19      -0.1231
      9  CA        50.1690 -142.3010   63.7060 C.3    19  ARG19       0.1694
     10  C         49.5750 -141.6610   62.4480 C.2    19  ARG19       0.2593
     11  O         48.3710 -141.4340   62.3680 O.2    19  ARG19      -0.2718
     12  CB        49.7930 -143.7810   63.7610 C.3    19  ARG19       0.0321
     13  CG        50.2300 -144.5490   62.5240 C.3    19  ARG19       0.0489
     14  CD        50.0770 -146.0430   62.6840 C.3    19  ARG19       0.2205
     15  NE        51.0600 -146.5910   63.6130 N.pl3  19  ARG19      -0.0865
     16  CZ        51.1840 -147.8810   63.9040 C.cat  19  ARG19       0.5346
     17  NH1       50.3850 -148.7870   63.3420 N.pl3  19  ARG19       0.1354
     18  NH2       52.1140 -148.2700   64.7610 N.pl3  19  ARG19       0.1354
     19  N         50.4390 -141.3970   61.4700 N.am   20  THR20      -0.1939
     20  CA        50.0350 -140.9610   60.1370 C.3    20  THR20       0.2028
     21  C         50.5980 -141.9640   59.1500 C.2    20  THR20       0.2643
     22  O         51.8060 -142.2060   59.1470 O.2    20  THR20      -0.2714
     23  CB        50.5800 -139.5560   59.8000 C.3    20  THR20       0.1808
     24  OG1       50.1690 -138.6290   60.8100 O.3    20  THR20      -0.2208
     25  CG2       50.0560 -139.0560   58.4560 C.3    20  THR20       0.0379
     26  N         49.7240 -142.5330   58.3160 N.am   21  THR21      -0.1936
     27  CA        50.1100 -143.5690   57.3550 C.3    21  THR21       0.2028
     28  C         49.8620 -143.1870   55.9070 C.2    21  THR21       0.2643
     29  O         48.8960 -142.4970   55.5960 O.2    21  THR21      -0.2714
     30  CB        49.3370 -144.8720   57.5940 C.3    21  THR21       0.1808
     31  OG1       47.9350 -144.5850   57.6620 O.3    21  THR21      -0.2208
     32  CG2       49.8020 -145.5370   58.8780 C.3    21  THR21       0.0379
     33  N         50.7570 -143.6510   55.0370 N.am   22  THR22      -0.1936
     34  CA        50.5490 -143.6600   53.5950 C.3    22  THR22       0.2028
     35  C         50.5540 -145.1290   53.1980 C.2    22  THR22       0.2642
     36  O         51.6130 -145.7580   53.1330 O.2    22  THR22      -0.2714
     37  CB        51.6530 -142.8850   52.8560 C.3    22  THR22       0.1808
     38  OG1       51.7070 -141.5460   53.3600 O.3    22  THR22      -0.2208
     39  CG2       51.3740 -142.8290   51.3540 C.3    22  THR22       0.0379
     40  N         49.3650 -145.6740   52.9460 N.am   23  GLY23      -0.1954
     41  CA        49.1990 -147.1130   52.7960 C.3    23  GLY23       0.1869
     42  C         49.5430 -147.7980   54.1100 C.2    23  GLY23       0.2309
     43  O         48.9850 -147.4610   55.1570 O.2    23  GLY23      -0.2863
     44  N         52.7890 -137.7300   65.3200 N.3    31  THR31      -0.1218
     45  CA        51.8440 -136.6920   64.9090 C.3    31  THR31       0.1862
     46  C         51.0610 -136.1320   66.1000 C.2    31  THR31       0.2287
     47  O         50.6990 -136.8700   67.0280 O.2    31  THR31      -0.2866
     48  CB        50.8280 -137.2540   63.8930 C.3    31  THR31       0.1770
     49  OG1       51.5150 -138.0650   62.9350 O.3    31  THR31      -0.2211
     50  CG2       50.0780 -136.1350   63.1650 C.3    31  THR31       0.0375
     51  N         47.5790 -134.7530   66.6890 N.3    33  LYS33      -0.1245
     52  CA        46.2320 -134.6790   66.1240 C.3    33  LYS33       0.1561
     53  C         45.2820 -133.8560   66.9910 C.2    33  LYS33       0.2260
     54  O         44.1050 -133.7050   66.6490 O.2    33  LYS33      -0.2867
     55  CB        45.6740 -136.0930   65.9530 C.3    33  LYS33       0.0271
     56  CG        46.5960 -136.9930   65.1510 C.3    33  LYS33       0.0035
     57  CD        46.0470 -138.3920   65.0120 C.3    33  LYS33       0.0206
     58  CE        46.9890 -139.2330   64.1720 C.3    33  LYS33       0.1093
     59  NZ        46.3860 -140.5590   63.8780 N.3    33  LYS33      -0.1314
     60  N         41.3990 -134.2780   65.2000 N.3    45  ARG45      -0.1231
     61  CA        41.3460 -134.3640   63.7520 C.3    45  ARG45       0.1694
     62  C         41.3650 -135.8170   63.2840 C.2    45  ARG45       0.2593
     63  O         42.2500 -136.5910   63.6700 O.2    45  ARG45      -0.2718
     64  CB        42.5060 -133.5730   63.1500 C.3    45  ARG45       0.0321
     65  CG        42.4710 -132.1110   63.5640 C.3    45  ARG45       0.0489
     66  CD        43.5040 -131.2630   62.8550 C.3    45  ARG45       0.2205
     67  NE        44.8680 -131.6500   63.2210 N.pl3  45  ARG45      -0.0865
     68  CZ        45.7020 -132.3750   62.4700 C.cat  45  ARG45       0.5346
     69  NH1       45.3530 -132.8570   61.2690 N.pl3  45  ARG45       0.1354
     70  NH2       46.9190 -132.6320   62.9380 N.pl3  45  ARG45       0.1354
     71  N         40.3630 -136.1770   62.4760 N.am   46  SER46      -0.1938
     72  CA        40.3360 -137.4520   61.7540 C.3    46  SER46       0.2055
     73  C         40.0040 -137.2260   60.2790 C.2    46  SER46       0.2644
     74  O         39.2980 -136.2750   59.9280 O.2    46  SER46      -0.2714
     75  CB        39.3390 -138.4470   62.3700 C.3    46  SER46       0.2130
     76  OG        37.9910 -138.0390   62.1960 O.3    46  SER46      -0.2179
     77  N         40.5070 -138.1160   59.4330 N.am   47  GLY47      -0.1939
     78  CA        40.3510 -138.0080   57.9840 C.3    47  GLY47       0.2014
     79  C         41.6090 -137.4900   57.3030 C.2    47  GLY47       0.2640
     80  O         42.7180 -137.9240   57.6070 O.2    47  GLY47      -0.2714
     81  N         41.4330 -136.5720   56.3640 N.am   48  SER48      -0.1935
     82  CA        42.5580 -136.0190   55.6190 C.3    48  SER48       0.2055
     83  C         43.3280 -135.0240   56.4910 C.2    48  SER48       0.2643
     84  O         42.7360 -134.0840   57.0230 O.2    48  SER48      -0.2714
     85  CB        42.0630 -135.3460   54.3300 C.3    48  SER48       0.2130
     86  OG        43.0390 -134.4830   53.7730 O.3    48  SER48      -0.2179
     87  N         44.6330 -135.2520   56.6590 N.am   49  ALA49      -0.1963
     88  CA        45.5140 -134.3100   57.3680 C.3    49  ALA49       0.1728
     89  C         45.4870 -132.9460   56.7050 C.2    49  ALA49       0.2616
     90  O         45.3070 -131.9480   57.3790 O.2    49  ALA49      -0.2715
     91  CB        46.9440 -134.8280   57.4300 C.3    49  ALA49       0.0334
     92  N         45.6340 -132.9060   55.3870 N.am   50  ALA50      -0.1977
     93  CA        45.6040 -131.6350   54.6700 C.3    50  ALA50       0.1597
     94  C         44.2800 -130.8810   54.8700 C.2    50  ALA50       0.2287
     95  O         44.2970 -129.6810   55.1500 O.2    50  ALA50      -0.2864
     96  CB        45.8870 -131.8420   53.1910 C.3    50  ALA50       0.0319
     97  N         41.8810 -131.3490   57.3490 N.3    52  THR52      -0.1218
     98  CA        41.6300 -131.0110   58.7560 C.3    52  THR52       0.1862
     99  C         42.5640 -129.9170   59.2890 C.2    52  THR52       0.2287
    100  O         42.1460 -129.1110   60.1210 O.2    52  THR52      -0.2866
    101  CB        41.6980 -132.2440   59.6820 C.3    52  THR52       0.1770
    102  OG1       42.9810 -132.8820   59.5700 O.3    52  THR52      -0.2211
    103  CG2       40.5730 -133.2180   59.3440 C.3    52  THR52       0.0375
    104  N         37.5750 -141.7490   64.1140 N.3   128  GLY128     -0.1210
    105  CA        38.7270 -142.3100   63.4220 C.3   128  GLY128      0.1956
    106  C         38.5520 -143.8110   63.2350 C.2   128  GLY128      0.2612
    107  O         37.6850 -144.4320   63.8650 O.2   128  GLY128     -0.2717
    108  N         39.3860 -144.3890   62.3690 N.am  129  SER129     -0.1952
    109  CA        39.3020 -145.8140   62.0170 C.3   129  SER129      0.1924
    110  C         39.3620 -146.7450   63.2360 C.2   129  SER129      0.2314
    111  O         38.6420 -147.7410   63.2790 O.2   129  SER129     -0.2863
    112  CB        40.4080 -146.1900   61.0250 C.3   129  SER129      0.2116
    113  OG        41.6870 -145.8340   61.5270 O.3   129  SER129     -0.2180
    114  N         45.9950 -148.6380   61.4690 N.3   168  SER168     -0.1217
    115  CA        46.0700 -147.2130   61.1570 C.3   168  SER168      0.1889
    116  C         46.4000 -146.3350   62.3700 C.2   168  SER168      0.2288
    117  O         46.7630 -145.1720   62.1930 O.2   168  SER168     -0.2866
    118  CB        44.7610 -146.7300   60.5240 C.3   168  SER168      0.2089
    119  OG        44.2810 -147.6360   59.5400 O.3   168  SER168     -0.2183
@<TRIPOS>BOND
     1    39    37    1
     2    41    40    1
     3    41    42    1
     4    37    38    1
     5    37    34    1
     6    40    35   am
     7    36    35    2
     8    96    93    1
     9    35    34    1
    10    34    33    1
    11    86    85    1
    12    42    43    2
    13    85    82    1
    14    93    94    1
    15    93    92    1
    16    94    95    2
    17    33    28   am
    18    92    89   am
    19    29    28    2
    20    82    81    1
    21    82    83    1
    22    28    27    1
    23    81    79   am
    24    83    87   am
    25    83    84    2
    26    87    88    1
    27    89    88    1
    28    89    90    2
    29    79    80    2
    30    79    78    1
    31    97    98    1
    32    27    30    1
    33    27    26    1
    34    88    91    1
    35    30    31    1
    36    30    32    1
    37    78    77    1
    38    26    21   am
    39    25    23    1
    40    98    99    1
    41    98   101    1
    42    22    21    2
    43    21    20    1
    44    99   100    2
    45   103   101    1
    46    77    73   am
    47   119   118    1
    48   102   101    1
    49    23    20    1
    50    23    24    1
    51    74    73    2
    52    20    19    1
    53    73    72    1
    54   118   115    1
    55   112   113    1
    56   112   109    1
    57   115   114    1
    58   115   116    1
    59    69    68    1
    60    19    10   am
    61    72    75    1
    62    72    71    1
    63   109   108    1
    64   109   110    1
    65     6     5    1
    66   117   116    2
    67    76    75    1
    68    11    10    2
    69   108   106   am
    70    10     9    1
    71    68    70    1
    72    68    67    2
    73    71    62   am
    74    13    14    1
    75    13    12    1
    76    14    15    1
    77     1     2    1
    78    66    67    1
    79    66    65    1
    80    49    48    1
    81     5     2    1
    82     5     7    1
    83    64    65    1
    84    64    61    1
    85    50    48    1
    86   106   105    1
    87   106   107    2
    88   110   111    2
    89    62    63    2
    90    62    61    1
    91    17    16    1
    92   105   104    1
    93    15    16    2
    94     2     3    1
    95     9    12    1
    96     9     8    1
    97    61    60    1
    98    59    58    1
    99    48    45    1
   100    16    18    1
   101    58    57    1
   102     4     3    2
   103    45    44    1
   104    45    46    1
   105    57    56    1
   106    56    55    1
   107    55    52    1
   108    46    47    2
   109    52    51    1
   110    52    53    1
   111    54    53    2
