@<TRIPOS>MOLECULE
tmp/6g7fH00.pdb
 109 99 0 0 0
SMALL
GASTEIGER

@<TRIPOS>ATOM
      1  N         64.2040 -140.0950   44.5270 N.3     1  THR1       -0.1218
      2  CA        64.6340 -138.9060   45.2240 C.3     1  THR1        0.1862
      3  C         64.7680 -139.3050   46.6420 C.2     1  THR1        0.2287
      4  O         63.9610 -140.0170   47.1850 O.2     1  THR1       -0.2866
      5  CB        63.5460 -137.8720   45.0730 C.3     1  THR1        0.1770
      6  OG1       63.5400 -137.4880   43.7200 O.3     1  THR1       -0.2211
      7  CG2       63.8360 -136.6800   45.9350 C.3     1  THR1        0.0375
      8  N         70.0190 -137.3160   41.5380 N.3    19  ARG19      -0.1231
      9  CA        69.5070 -138.0030   40.3390 C.3    19  ARG19       0.1694
     10  C         68.0880 -137.5590   39.9790 C.2    19  ARG19       0.2593
     11  O         67.1930 -137.5640   40.8280 O.2    19  ARG19      -0.2718
     12  CB        69.5240 -139.5240   40.5300 C.3    19  ARG19       0.0321
     13  CG        68.8550 -140.2970   39.3950 C.3    19  ARG19       0.0489
     14  CD        68.8370 -141.7890   39.6510 C.3    19  ARG19       0.2205
     15  NE        70.1650 -142.3900   39.5400 N.pl3  19  ARG19      -0.0865
     16  CZ        70.4260 -143.6880   39.6900 C.cat  19  ARG19       0.5346
     17  NH1       69.4510 -144.5560   39.9610 N.pl3  19  ARG19       0.1354
     18  NH2       71.6770 -144.1280   39.5660 N.pl3  19  ARG19       0.1354
     19  N         67.8920 -137.2180   38.7060 N.am   20  SER20      -0.1938
     20  CA        66.5690 -136.9280   38.1480 C.3    20  SER20       0.2055
     21  C         66.2780 -137.9240   37.0190 C.2    20  SER20       0.2643
     22  O         67.1250 -138.1410   36.1530 O.2    20  SER20      -0.2714
     23  CB        66.5090 -135.4710   37.6700 C.3    20  SER20       0.2130
     24  OG        65.8210 -135.3250   36.4420 O.3    20  SER20      -0.2179
     25  N         65.0850 -138.5190   37.0390 N.am   21  THR21      -0.1950
     26  CA        64.7410 -139.6300   36.1490 C.3    21  THR21       0.1897
     27  C         63.4770 -139.4060   35.3260 C.2    21  THR21       0.2313
     28  O         62.5020 -138.8380   35.8050 O.2    21  THR21      -0.2863
     29  CB        64.5560 -140.9510   36.9360 C.3    21  THR21       0.1794
     30  OG1       63.8220 -140.7070   38.1470 O.3    21  THR21      -0.2208
     31  CG2       65.9050 -141.5620   37.2780 C.3    21  THR21       0.0378
     32  N         61.1120 -141.9660   33.7330 N.3    23  GLY23      -0.1225
     33  CA        60.8680 -143.4050   33.7530 C.3    23  GLY23       0.1811
     34  C         62.1070 -144.1280   34.2760 C.2    23  GLY23       0.2280
     35  O         62.5730 -143.8240   35.3790 O.2    23  GLY23      -0.2866
     36  N         71.4150 -133.3400   39.4960 N.3    31  CYS31      -0.1235
     37  CA        70.2440 -132.5070   39.7480 C.3    31  CYS31       0.1677
     38  C         70.3820 -131.8190   41.0970 C.2    31  CYS31       0.2270
     39  O         70.8800 -132.4120   42.0440 O.2    31  CYS31      -0.2867
     40  CB        68.9810 -133.3680   39.7480 C.3    31  CYS31       0.0956
     41  SG        67.4600 -132.4520   39.4410 S.3    31  CYS31      -0.0801
     42  N         68.4490 -130.6280   44.1620 N.3    33  LYS33      -0.1245
     43  CA        67.1660 -130.8050   44.8510 C.3    33  LYS33       0.1561
     44  C         67.0070 -129.9260   46.0950 C.2    33  LYS33       0.2260
     45  O         65.9750 -129.9900   46.7670 O.2    33  LYS33      -0.2867
     46  CB        66.9880 -132.2760   45.2120 C.3    33  LYS33       0.0271
     47  CG        66.9240 -133.1610   43.9870 C.3    33  LYS33       0.0035
     48  CD        66.7700 -134.6220   44.3470 C.3    33  LYS33       0.0206
     49  CE        67.0350 -135.4890   43.1300 C.3    33  LYS33       0.1093
     50  NZ        66.6020 -136.8940   43.3440 N.3    33  LYS33      -0.1314
     51  N         63.3730 -130.7420   47.9960 N.3    45  GLY45      -0.1210
     52  CA        62.1640 -130.9640   47.2080 C.3    45  GLY45       0.1956
     53  C         62.1470 -132.2860   46.4830 C.2    45  GLY45       0.2612
     54  O         63.0970 -132.6150   45.7770 O.2    45  GLY45      -0.2717
     55  N         61.0530 -133.0270   46.6630 N.am   46  ALA46      -0.1965
     56  CA        60.7910 -134.2860   45.9700 C.3    46  ALA46       0.1728
     57  C         59.4980 -134.1720   45.1860 C.2    46  ALA46       0.2616
     58  O         58.6420 -133.3510   45.5220 O.2    46  ALA46      -0.2715
     59  CB        60.6780 -135.4250   46.9710 C.3    46  ALA46       0.0334
     60  N         59.3530 -135.0190   44.1660 N.am   47  GLY47      -0.1955
     61  CA        58.1650 -135.0390   43.3000 C.3    47  GLY47       0.1869
     62  C         58.4530 -134.4790   41.9190 C.2    47  GLY47       0.2309
     63  O         59.4410 -134.8520   41.2830 O.2    47  GLY47      -0.2863
     64  N         59.9150 -131.9980   39.5650 N.3    49  ALA49      -0.1245
     65  CA        61.0720 -131.0910   39.6790 C.3    49  ALA49       0.1562
     66  C         60.7770 -129.6370   39.2910 C.2    49  ALA49       0.2260
     67  O         61.2660 -128.7040   39.9440 O.2    49  ALA49      -0.2867
     68  CB        62.2310 -131.6210   38.8470 C.3    49  ALA49       0.0290
     69  N         58.7220 -128.2000   42.3480 N.3    52  THR52      -0.1218
     70  CA        59.5020 -127.8960   43.5520 C.3    52  THR52       0.1862
     71  C         60.2810 -126.5910   43.3630 C.2    52  THR52       0.2287
     72  O         60.3590 -125.7900   44.2870 O.2    52  THR52      -0.2866
     73  CB        60.4570 -129.0430   43.9760 C.3    52  THR52       0.1770
     74  OG1       61.3920 -129.3210   42.9290 O.3    52  THR52      -0.2211
     75  CG2       59.6780 -130.3080   44.3160 C.3    52  THR52       0.0375
     76  N         56.6990 -132.0940   47.1710 N.3    97  TYR97      -0.1241
     77  CA        56.8190 -132.7320   48.4740 C.3    97  TYR97       0.1605
     78  C         58.0960 -132.1800   49.0510 C.2    97  TYR97       0.2264
     79  O         59.1710 -132.4960   48.5450 O.2    97  TYR97      -0.2867
     80  CB        56.9030 -134.2450   48.3150 C.3    97  TYR97       0.0534
     81  CG        55.6810 -134.8330   47.6530 C.ar   97  TYR97      -0.0201
     82  CD1       55.4920 -134.7390   46.2720 C.ar   97  TYR97      -0.0009
     83  CD2       54.7080 -135.4790   48.4010 C.ar   97  TYR97      -0.0009
     84  CE1       54.3620 -135.2710   45.6660 C.ar   97  TYR97       0.0417
     85  CE2       53.5850 -136.0120   47.7980 C.ar   97  TYR97       0.0417
     86  CZ        53.4080 -135.9070   46.4370 C.ar   97  TYR97       0.1957
     87  OH        52.2840 -136.4400   45.8450 O.3    97  TYR97      -0.2866
     88  N         61.9600 -138.0370   52.6710 N.3   127  LEU127     -0.1231
     89  CA        60.9340 -137.9550   51.6430 C.3   127  LEU127      0.1693
     90  C         61.4790 -138.4850   50.3230 C.2   127  LEU127      0.2593
     91  O         62.6980 -138.4700   50.0890 O.2   127  LEU127     -0.2718
     92  CB        60.5150 -136.4980   51.4730 C.3   127  LEU127      0.0284
     93  CG        59.0500 -136.1010   51.6200 C.3   127  LEU127      0.0019
     94  CD1       58.5360 -136.3350   53.0240 C.3   127  LEU127      0.0001
     95  CD2       58.9340 -134.6270   51.2620 C.3   127  LEU127      0.0001
     96  N         60.5620 -138.9450   49.4750 N.am  128  GLY128     -0.1942
     97  CA        60.8870 -139.4670   48.1460 C.3   128  GLY128      0.2014
     98  C         60.9070 -140.9840   48.0960 C.2   128  GLY128      0.2639
     99  O         60.5860 -141.6480   49.0850 O.2   128  GLY128     -0.2714
    100  N         61.3000 -141.5310   46.9440 N.am  129  SER129     -0.1949
    101  CA        61.3570 -142.9900   46.7440 C.3   129  SER129      0.1924
    102  C         62.4350 -143.6750   47.5940 C.2   129  SER129      0.2314
    103  O         62.3160 -144.8570   47.9080 O.2   129  SER129     -0.2863
    104  CB        61.5630 -143.3350   45.2640 C.3   129  SER129      0.2116
    105  OG        62.8730 -143.0190   44.8180 O.3   129  SER129     -0.2180
    106  N         65.4920 -145.0010   42.2880 N.3   168  GLY168     -0.1225
    107  CA        65.0890 -143.6150   42.0540 C.3   168  GLY168      0.1811
    108  C         66.1180 -142.5620   42.4570 C.2   168  GLY168      0.2280
    109  O         66.0180 -141.3990   42.0280 O.2   168  GLY168     -0.2866
@<TRIPOS>BOND
     1    32    33    1
     2    33    34    1
     3    34    35    2
     4    27    28    2
     5    27    26    1
     6    26    29    1
     7    26    25    1
     8    22    21    2
     9    24    23    1
    10    29    31    1
    11    29    30    1
    12    21    25   am
    13    21    20    1
    14    23    20    1
    15    20    19    1
    16    19    10   am
    17    68    65    1
    18    66    65    1
    19    66    67    2
    20    13    14    1
    21    13    12    1
    22    41    40    1
    23    36    37    1
    24    15    14    1
    25    15    16    2
    26    64    65    1
    27    18    16    1
    28    16    17    1
    29    37    40    1
    30    37    38    1
    31    10     9    1
    32    10    11    2
    33     9    12    1
    34     9     8    1
    35    38    39    2
    36    63    62    2
    37    62    61    1
    38   109   108    2
    39   107   106    1
    40   107   108    1
    41    69    70    1
    42    74    73    1
    43    49    50    1
    44    49    48    1
    45    61    60    1
    46    71    70    1
    47    71    72    2
    48    70    73    1
    49     6     5    1
    50    73    75    1
    51    47    48    1
    52    47    46    1
    53    42    43    1
    54    60    57   am
    55     1     2    1
    56   105   104    1
    57    43    46    1
    58    43    44    1
    59     5     2    1
    60     5     7    1
    61    57    58    2
    62    57    56    1
    63     2     3    1
    64   104   101    1
    65    84    82   ar
    66    84    86   ar
    67    54    53    2
    68    87    86    1
    69    56    55    1
    70    56    59    1
    71    44    45    2
    72    82    81   ar
    73    86    85   ar
    74    53    55   am
    75    53    52    1
    76     3     4    2
    77   101   100    1
    78   101   102    1
    79   100    98   am
    80    76    77    1
    81    52    51    1
    82   102   103    2
    83    81    80    1
    84    81    83   ar
    85    85    83   ar
    86    98    97    1
    87    98    99    2
    88    97    96    1
    89    80    77    1
    90    77    78    1
    91    79    78    2
    92    96    90   am
    93    91    90    2
    94    90    89    1
    95    95    93    1
    96    92    93    1
    97    92    89    1
    98    93    94    1
    99    89    88    1
