@<TRIPOS>MOLECULE
tmp/6g7hA06.pdb
 101 94 0 0 0
SMALL
GASTEIGER

@<TRIPOS>ATOM
      1  N         11.6020   52.3380   26.2750 N.3   134  TRP134     -0.1241
      2  CA        12.8410   52.1890   27.0330 C.3   134  TRP134      0.1605
      3  C         12.9290   53.1900   28.1720 C.2   134  TRP134      0.2264
      4  O         13.3750   52.8390   29.2800 O.2   134  TRP134     -0.2867
      5  CB        14.0490   52.3540   26.0920 C.3   134  TRP134      0.0550
      6  CG        15.3820   52.2590   26.7470 C.ar  134  TRP134      0.0003
      7  CD1       16.1380   51.1320   26.9350 C.ar  134  TRP134      0.0946
      8  CD2       16.1260   53.3320   27.3450 C.ar  134  TRP134      0.0152
      9  NE1       17.3280   51.4480   27.5820 N.ar  134  TRP134     -0.2442
     10  CE2       17.3300   52.7960   27.8250 C.ar  134  TRP134      0.0810
     11  CE3       15.9150   54.7110   27.4600 C.ar  134  TRP134      0.0012
     12  CZ2       18.2530   53.5690   28.4770 C.ar  134  TRP134      0.0191
     13  CZ3       16.8440   55.4730   28.0900 C.ar  134  TRP134      0.0001
     14  CH2       17.9860   54.9060   28.6060 C.ar  134  TRP134      0.0015
     15  N         13.0440   52.3130   32.1350 N.3   138  THR138     -0.1218
     16  CA        14.1820   52.7530   32.9240 C.3   138  THR138      0.1862
     17  C         13.7320   53.5600   34.1310 C.2   138  THR138      0.2287
     18  O         14.3140   53.4220   35.2100 O.2   138  THR138     -0.2866
     19  CB        15.1430   53.5470   32.0120 C.3   138  THR138      0.1770
     20  OG1       15.6840   52.6660   31.0410 O.3   138  THR138     -0.2211
     21  CG2       16.3650   54.0600   32.8130 C.3   138  THR138      0.0375
     22  N         12.7750   51.0850   36.6840 N.3   141  MET141     -0.1230
     23  CA        13.9910   50.5320   37.2850 C.3   141  MET141      0.1702
     24  C         14.5540   51.4660   38.3330 C.2   141  MET141      0.2592
     25  O         14.9790   51.0120   39.4020 O.2   141  MET141     -0.2718
     26  CB        15.0520   50.2330   36.2050 C.3   141  MET141      0.0401
     27  CG        16.2330   49.4100   36.8160 C.3   141  MET141      0.0596
     28  SD        17.6450   49.2790   35.7400 S.3   141  MET141     -0.1393
     29  CE        18.2010   50.9590   35.9030 C.3   141  MET141      0.0692
     30  N         14.6130   52.7780   38.0350 N.am  142  LEU142     -0.1980
     31  CA        15.1790   53.7230   38.9990 C.3   142  LEU142      0.1596
     32  C         14.3640   53.7760   40.2720 C.2   142  LEU142      0.2287
     33  O         14.9380   53.9190   41.3600 O.2   142  LEU142     -0.2864
     34  CB        15.2800   55.1160   38.3790 C.3   142  LEU142      0.0297
     35  CG        16.3490   55.1560   37.2680 C.3   142  LEU142      0.0022
     36  CD1       16.2560   56.4900   36.5500 C.3   142  LEU142      0.0001
     37  CD2       17.7700   54.9510   37.7790 C.3   142  LEU142      0.0001
     38  N         15.5110   50.7390   42.2990 N.3   145  LEU145     -0.1245
     39  CA        16.8240   50.9230   42.9070 C.3   145  LEU145      0.1561
     40  C         16.7480   51.9380   44.0520 C.2   145  LEU145      0.2260
     41  O         17.4040   51.7750   45.0890 O.2   145  LEU145     -0.2867
     42  CB        17.8290   51.4010   41.8770 C.3   145  LEU145      0.0270
     43  CG        18.0250   50.5170   40.6550 C.3   145  LEU145      0.0019
     44  CD1       19.1280   51.0710   39.7270 C.3   145  LEU145      0.0001
     45  CD2       18.2770   49.1020   40.9870 C.3   145  LEU145      0.0001
     46  N         22.2980   46.2050   42.2350 N.3   175  VAL175     -0.1245
     47  CA        22.2590   47.5120   41.5950 C.3   175  VAL175      0.1561
     48  C         23.2380   47.5980   40.4270 C.2   175  VAL175      0.2260
     49  O         22.9260   48.1560   39.3710 O.2   175  VAL175     -0.2867
     50  CB        22.5180   48.6000   42.6450 C.3   175  VAL175      0.0252
     51  CG1       22.6830   49.9600   41.9590 C.3   175  VAL175      0.0019
     52  CG2       21.3400   48.5700   43.6410 C.3   175  VAL175      0.0019
     53  N         21.6260   47.5500   36.4540 N.3   179  SER179     -0.1217
     54  CA        21.8150   48.7940   35.7390 C.3   179  SER179      0.1889
     55  C         22.4480   48.5970   34.3720 C.2   179  SER179      0.2288
     56  O         22.2690   49.4350   33.4870 O.2   179  SER179     -0.2866
     57  CB        22.7200   49.7160   36.5200 C.3   179  SER179      0.2089
     58  OG        22.0040   50.1510   37.6680 O.3   179  SER179     -0.2183
     59  N         19.6170   47.9200   30.8100 N.3   182  PRO182     -0.2102
     60  CA        19.1300   48.9470   29.8880 C.3   182  PRO182      0.1504
     61  C         20.2000   49.4820   28.9470 C.2   182  PRO182      0.2575
     62  O         19.8760   49.9000   27.8210 O.2   182  PRO182     -0.2718
     63  CB        18.6140   50.0570   30.8260 C.3   182  PRO182      0.0282
     64  CG        19.1990   49.7640   32.2060 C.3   182  PRO182      0.0208
     65  CD        19.2910   48.2370   32.2190 C.3   182  PRO182      0.0893
     66  N         21.4640   49.4770   29.3710 N.am  183  VAL183     -0.1980
     67  CA        22.5500   49.9490   28.4990 C.3   183  VAL183      0.1595
     68  C         22.7950   48.9730   27.3550 C.2   183  VAL183      0.2287
     69  O         22.9090   49.3860   26.1880 O.2   183  VAL183     -0.2864
     70  CB        23.8380   50.1890   29.2920 C.3   183  VAL183      0.0276
     71  CG1       24.9580   50.6610   28.3730 C.3   183  VAL183      0.0022
     72  CG2       23.5900   51.2460   30.4000 C.3   183  VAL183      0.0022
     73  N         19.9800   49.3180   24.8440 N.3   186  LEU186     -0.1231
     74  CA        20.0390   50.5690   24.0970 C.3   186  LEU186      0.1693
     75  C         21.0550   50.5160   22.9570 C.2   186  LEU186      0.2591
     76  O         20.7850   51.0220   21.8490 O.2   186  LEU186     -0.2718
     77  CB        20.3520   51.7160   25.0530 C.3   186  LEU186      0.0284
     78  CG        20.2900   53.1180   24.5370 C.3   186  LEU186      0.0019
     79  CD1       18.8720   53.5110   24.2800 C.3   186  LEU186      0.0001
     80  CD2       20.8790   54.1090   25.5160 C.3   186  LEU186      0.0001
     81  N         22.2530   49.9290   23.2130 N.am  187  ILE187     -0.1980
     82  CA        23.2930   49.8860   22.1910 C.3   187  ILE187      0.1595
     83  C         23.2390   48.6390   21.3130 C.2   187  ILE187      0.2287
     84  O         23.9030   48.6090   20.2640 O.2   187  ILE187     -0.2864
     85  CB        24.6790   50.0030   22.8350 C.3   187  ILE187      0.0276
     86  CG1       24.9830   48.7950   23.7090 C.3   187  ILE187      0.0022
     87  CG2       24.7520   51.2920   23.6180 C.3   187  ILE187      0.0022
     88  CD1       26.3550   48.8550   24.4210 C.3   187  ILE187      0.0001
     89  N         19.8160   50.9750   19.2830 N.3   192  ALA192     -0.1245
     90  CA        20.5700   51.7150   18.2800 C.3   192  ALA192      0.1562
     91  C         21.3560   50.8250   17.3140 C.2   192  ALA192      0.2260
     92  O         21.7990   51.3150   16.2740 O.2   192  ALA192     -0.2867
     93  CB        21.5220   52.6920   19.0010 C.3   192  ALA192      0.0290
     94  N         24.4020   49.3310   17.5300 N.3   194  ILE194     -0.1245
     95  CA        25.8460   49.5840   17.4630 C.3   194  ILE194      0.1561
     96  C         26.6490   48.3200   17.7740 C.2   194  ILE194      0.2260
     97  O         27.7350   48.1010   17.2260 O.2   194  ILE194     -0.2867
     98  CB        26.2030   50.6990   18.4520 C.3   194  ILE194      0.0252
     99  CG1       25.6210   52.0340   17.9990 C.3   194  ILE194      0.0019
    100  CG2       27.7280   50.8300   18.5750 C.3   194  ILE194      0.0019
    101  CD1       25.4610   52.9300   19.1650 C.3   194  ILE194      0.0001
@<TRIPOS>BOND
     1    92    91    2
     2    97    96    2
     3    91    90    1
     4    95    94    1
     5    95    96    1
     6    95    98    1
     7    99    98    1
     8    99   101    1
     9    90    93    1
    10    90    89    1
    11    98   100    1
    12    84    83    2
    13    83    82    1
    14    76    75    2
    15    82    85    1
    16    82    81    1
    17    85    87    1
    18    85    86    1
    19    75    81   am
    20    75    74    1
    21    86    88    1
    22    74    73    1
    23    74    77    1
    24    79    78    1
    25    78    77    1
    26    78    80    1
    27     5     6    1
    28     5     2    1
    29    69    68    2
    30     1     2    1
    31     6     7   ar
    32     6     8   ar
    33     7     9   ar
    34     2     3    1
    35     8    11   ar
    36     8    10   ar
    37    68    67    1
    38    11    13   ar
    39     9    10   ar
    40    62    61    2
    41    10    12   ar
    42    13    14   ar
    43     3     4    2
    44    71    70    1
    45    12    14   ar
    46    67    70    1
    47    67    66    1
    48    61    66   am
    49    61    60    1
    50    70    72    1
    51    60    59    1
    52    60    63    1
    53    59    65    1
    54    63    64    1
    55    20    19    1
    56    19    21    1
    57    19    16    1
    58    15    16    1
    59    64    65    1
    60    16    17    1
    61    56    55    2
    62    17    18    2
    63    55    54    1
    64    54    53    1
    65    54    57    1
    66    28    29    1
    67    28    27    1
    68    26    27    1
    69    26    23    1
    70    57    58    1
    71    36    35    1
    72    22    23    1
    73    35    37    1
    74    35    34    1
    75    23    24    1
    76    30    24   am
    77    30    31    1
    78    24    25    2
    79    34    31    1
    80    31    32    1
    81    49    48    2
    82    44    43    1
    83    32    33    2
    84    48    47    1
    85    43    45    1
    86    43    42    1
    87    47    46    1
    88    47    50    1
    89    42    39    1
    90    51    50    1
    91    38    39    1
    92    50    52    1
    93    39    40    1
    94    40    41    2
