@<TRIPOS>MOLECULE
tmp/6g7hA05.pdb
 96 91 0 0 0
SMALL
GASTEIGER

@<TRIPOS>ATOM
      1  N         14.0900   28.2490   41.8940 N.3    44  LEU44      -0.1245
      2  CA        13.1520   28.5080   40.7820 C.3    44  LEU44       0.1561
      3  C         13.7520   29.4490   39.7650 C.2    44  LEU44       0.2260
      4  O         13.4620   29.3310   38.5790 O.2    44  LEU44      -0.2867
      5  CB        11.8310   29.0880   41.2990 C.3    44  LEU44       0.0270
      6  CG        10.9080   28.0400   41.8230 C.3    44  LEU44       0.0019
      7  CD1        9.7520   28.7550   42.5600 C.3    44  LEU44       0.0001
      8  CD2       10.3450   27.1870   40.5680 C.3    44  LEU44       0.0001
      9  N         13.6790   28.5090   35.7330 N.3    48  ILE48      -0.1245
     10  CA        12.9220   29.2340   34.7000 C.3    48  ILE48       0.1561
     11  C         13.8680   29.7340   33.5990 C.2    48  ILE48       0.2260
     12  O         13.5790   29.6060   32.4030 O.2    48  ILE48      -0.2867
     13  CB        12.1420   30.3890   35.3380 C.3    48  ILE48       0.0252
     14  CG1       11.0720   29.8550   36.2790 C.3    48  ILE48       0.0019
     15  CG2       11.5540   31.3330   34.2790 C.3    48  ILE48       0.0019
     16  CD1       10.5300   30.9080   37.2290 C.3    48  ILE48       0.0001
     17  N         14.7730   27.0820   31.0770 N.3    51  THR51      -0.1203
     18  CA        13.7860   26.7660   30.0600 C.3    51  THR51       0.1994
     19  C         13.7540   27.8180   28.9670 C.2    51  THR51       0.2617
     20  O         13.5750   27.4820   27.7910 O.2    51  THR51      -0.2717
     21  CB        12.3950   26.5550   30.6420 C.3    51  THR51       0.1784
     22  OG1       11.8720   27.7700   31.1420 O.3    51  THR51      -0.2211
     23  CG2       12.4020   25.5540   31.7570 C.3    51  THR51       0.0376
     24  N         13.9570   29.0980   29.3350 N.am   52  MET52      -0.1979
     25  CA        13.8680   30.1300   28.3350 C.3    52  MET52       0.1605
     26  C         15.1450   30.2200   27.4880 C.2    52  MET52       0.2287
     27  O         15.0720   30.4810   26.2730 O.2    52  MET52      -0.2864
     28  CB        13.5210   31.4760   28.9930 C.3    52  MET52       0.0413
     29  CG        12.0560   31.4990   29.5460 C.3    52  MET52       0.0598
     30  SD        10.8130   31.2590   28.2510 S.3    52  MET52      -0.1393
     31  CE        10.4880   29.5100   28.2240 C.3    52  MET52       0.0692
     32  N         12.6080   28.6570   19.2160 N.3    60  TYR60      -0.1241
     33  CA        11.2160   28.9660   19.5320 C.3    60  TYR60       0.1605
     34  C         11.0660   30.3790   20.0640 C.2    60  TYR60       0.2264
     35  O         10.0790   31.0830   19.7460 O.2    60  TYR60      -0.2867
     36  CB        10.6770   27.9280   20.5410 C.3    60  TYR60       0.0534
     37  CG         9.2000   28.0800   20.8430 C.ar   60  TYR60      -0.0201
     38  CD1        8.2540   27.5180   20.0110 C.ar   60  TYR60      -0.0009
     39  CD2        8.7600   28.8710   21.8810 C.ar   60  TYR60      -0.0009
     40  CE1        6.9250   27.6650   20.2520 C.ar   60  TYR60       0.0417
     41  CE2        7.4230   29.0500   22.1330 C.ar   60  TYR60       0.0417
     42  CZ         6.5030   28.4670   21.2900 C.ar   60  TYR60       0.1957
     43  OH         5.1570   28.6400   21.5460 O.3    60  TYR60      -0.2866
     44  N         12.4480   33.1970   19.4220 N.3    62  LEU62      -0.1231
     45  CA        12.9130   34.2290   18.5020 C.3    62  LEU62       0.1693
     46  C         11.7670   34.6170   17.5910 C.2    62  LEU62       0.2592
     47  O         11.0270   33.7440   17.1130 O.2    62  LEU62      -0.2718
     48  CB        14.0830   33.6790   17.6730 C.3    62  LEU62       0.0284
     49  CG        14.7500   34.5120   16.6050 C.3    62  LEU62       0.0019
     50  CD1       15.3250   35.7660   17.1440 C.3    62  LEU62       0.0001
     51  CD2       15.7920   33.6920   15.8890 C.3    62  LEU62       0.0001
     52  N         11.6340   35.9260   17.3060 N.am   63  THR63      -0.1953
     53  CA        10.7250   36.4100   16.2870 C.3    63  THR63       0.1897
     54  C         11.4100   37.5060   15.4790 C.2    63  THR63       0.2313
     55  O         12.4420   38.0110   15.8480 O.2    63  THR63      -0.2863
     56  CB         9.4000   36.8920   16.9170 C.3    63  THR63       0.1794
     57  OG1        8.4110   37.0270   15.9030 O.3    63  THR63      -0.2208
     58  CG2        9.5370   38.2480   17.6890 C.3    63  THR63       0.0378
     59  N         12.2930   37.2440   22.0880 N.3    76  TRP76      -0.1241
     60  CA        11.2510   37.6320   23.0000 C.3    76  TRP76       0.1605
     61  C         11.2490   36.8010   24.2730 C.2    76  TRP76       0.2264
     62  O         10.6880   37.2290   25.2860 O.2    76  TRP76      -0.2867
     63  CB         9.8770   37.5630   22.3140 C.3    76  TRP76       0.0550
     64  CG         9.5000   36.1900   21.8570 C.ar   76  TRP76       0.0003
     65  CD1        9.6180   35.7120   20.6070 C.ar   76  TRP76       0.0946
     66  CD2        8.8940   35.1460   22.6310 C.ar   76  TRP76       0.0152
     67  NE1        9.2040   34.3980   20.5570 N.ar   76  TRP76      -0.2442
     68  CE2        8.7200   34.0500   21.7880 C.ar   76  TRP76       0.0810
     69  CE3        8.5130   35.0190   23.9570 C.ar   76  TRP76       0.0012
     70  CZ2        8.1570   32.8490   22.2200 C.ar   76  TRP76       0.0191
     71  CZ3        7.9840   33.8300   24.4080 C.ar   76  TRP76       0.0001
     72  CH2        7.7970   32.7480   23.5400 C.ar   76  TRP76       0.0015
     73  N          9.8820   36.8080   28.8610 N.3    80  ALA80      -0.1245
     74  CA         9.1070   35.8230   29.5890 C.3    80  ALA80       0.1562
     75  C          9.8780   35.3000   30.7930 C.2    80  ALA80       0.2260
     76  O          9.3070   35.0820   31.8630 O.2    80  ALA80      -0.2867
     77  CB         8.7270   34.6980   28.6420 C.3    80  ALA80       0.0290
     78  N          9.1020   36.6380   35.3810 N.3    84  PHE84      -0.1241
     79  CA         8.9870   35.8270   36.5780 C.3    84  PHE84       0.1605
     80  C         10.2380   35.8360   37.4430 C.2    84  PHE84       0.2264
     81  O         10.1060   35.8160   38.6710 O.2    84  PHE84      -0.2867
     82  CB         8.6500   34.3920   36.1880 C.3    84  PHE84       0.0534
     83  CG         7.3070   34.2590   35.5140 C.ar   84  PHE84      -0.0203
     84  CD1        6.1500   34.3680   36.2670 C.ar   84  PHE84      -0.0042
     85  CD2        7.2370   34.0350   34.1900 C.ar   84  PHE84      -0.0042
     86  CE1        4.9200   34.2810   35.6680 C.ar   84  PHE84      -0.0003
     87  CE2        5.9870   33.9340   33.5500 C.ar   84  PHE84      -0.0003
     88  CZ         4.8360   34.0680   34.2970 C.ar   84  PHE84      -0.0000
     89  N         11.0780   37.4270   41.6170 N.3    88  LEU88      -0.1245
     90  CA        11.5420   36.4280   42.5790 C.3    88  LEU88       0.1561
     91  C         12.8520   36.8770   43.2410 C.2    88  LEU88       0.2260
     92  O         13.0260   36.7350   44.4580 O.2    88  LEU88      -0.2867
     93  CB        11.7170   35.0540   41.9020 C.3    88  LEU88       0.0270
     94  CG        10.3870   34.3320   41.6260 C.3    88  LEU88       0.0019
     95  CD1       10.6740   33.0960   40.7850 C.3    88  LEU88       0.0001
     96  CD2        9.6380   33.9530   42.9220 C.3    88  LEU88       0.0001
@<TRIPOS>BOND
     1    54    55    2
     2    54    53    1
     3    51    49    1
     4    57    56    1
     5    53    56    1
     6    53    52    1
     7    49    50    1
     8    49    48    1
     9    56    58    1
    10    47    46    2
    11    52    46   am
    12    46    45    1
    13    48    45    1
    14    45    44    1
    15    32    33    1
    16    33    34    1
    17    33    36    1
    18    35    34    2
    19    38    40   ar
    20    38    37   ar
    21    40    42   ar
    22    36    37    1
    23    67    65   ar
    24    67    68   ar
    25    65    64   ar
    26    37    39   ar
    27    42    43    1
    28    42    41   ar
    29    68    70   ar
    30    68    66   ar
    31    64    63    1
    32    64    66   ar
    33    39    41   ar
    34    59    60    1
    35    70    72   ar
    36    63    60    1
    37    66    69   ar
    38    60    61    1
    39    72    71   ar
    40    69    71   ar
    41    61    62    2
    42    27    26    2
    43    26    25    1
    44    20    19    2
    45    31    30    1
    46    30    29    1
    47    25    28    1
    48    25    24    1
    49    77    74    1
    50    73    74    1
    51    19    24   am
    52    19    18    1
    53    28    29    1
    54    74    75    1
    55    18    21    1
    56    18    17    1
    57    21    22    1
    58    21    23    1
    59    75    76    2
    60    12    11    2
    61    87    85   ar
    62    87    88   ar
    63    11    10    1
    64    85    83   ar
    65    15    13    1
    66    88    86   ar
    67    10    13    1
    68    10     9    1
    69    13    14    1
    70    78    79    1
    71    83    82    1
    72    83    84   ar
    73    86    84   ar
    74    82    79    1
    75    14    16    1
    76    79    80    1
    77    80    81    2
    78     4     3    2
    79     3     2    1
    80     8     6    1
    81     2     5    1
    82     2     1    1
    83    95    94    1
    84     5     6    1
    85    89    90    1
    86    94    93    1
    87    94    96    1
    88     6     7    1
    89    93    90    1
    90    90    91    1
    91    91    92    2
