@<TRIPOS>MOLECULE
tmp/6g7hA04.pdb
 121 114 0 0 0
SMALL
GASTEIGER

@<TRIPOS>ATOM
      1  N         21.2190   25.2940   33.8660 N.3    17  GLY17      -0.1210
      2  CA        20.8810   23.9310   34.2270 C.3    17  GLY17       0.1956
      3  C         21.7260   23.4020   35.3780 C.2    17  GLY17       0.2611
      4  O         21.1970   22.8290   36.3460 O.2    17  GLY17      -0.2717
      5  N         23.0510   23.6190   35.3000 N.am   18  LEU18      -0.1979
      6  CA        23.9540   23.1850   36.3590 C.3    18  LEU18       0.1596
      7  C         23.6770   23.9280   37.6540 C.2    18  LEU18       0.2287
      8  O         23.6690   23.3300   38.7360 O.2    18  LEU18      -0.2864
      9  CB        25.4070   23.3850   35.9030 C.3    18  LEU18       0.0297
     10  CG        25.9630   22.3140   35.0260 C.3    18  LEU18       0.0022
     11  CD1       24.9580   21.8040   34.0620 C.3    18  LEU18       0.0001
     12  CD2       27.2110   22.9100   34.3450 C.3    18  LEU18       0.0001
     13  N         20.7400   25.1930   38.6240 N.3    20  THR20      -0.1203
     14  CA        19.4980   24.6450   39.1620 C.3    20  THR20       0.1994
     15  C         19.7600   23.3300   39.9200 C.2    20  THR20       0.2617
     16  O         19.3080   23.1570   41.0560 O.2    20  THR20      -0.2717
     17  CB        18.5100   24.3600   38.0320 C.3    20  THR20       0.1784
     18  OG1       18.2110   25.5590   37.3570 O.3    20  THR20      -0.2211
     19  CG2       17.1930   23.8360   38.5720 C.3    20  THR20       0.0376
     20  N         20.5200   22.4250   39.3060 N.am   21  LEU21      -0.1979
     21  CA        20.7890   21.1310   39.9310 C.3    21  LEU21       0.1596
     22  C         21.5800   21.3010   41.2170 C.2    21  LEU21       0.2287
     23  O         21.3010   20.6220   42.2160 O.2    21  LEU21      -0.2864
     24  CB        21.5480   20.2200   38.9570 C.3    21  LEU21       0.0297
     25  CG        20.7010   19.7900   37.7750 C.3    21  LEU21       0.0022
     26  CD1       21.5630   19.0010   36.7680 C.3    21  LEU21       0.0001
     27  CD2       19.4930   18.9010   38.1590 C.3    21  LEU21       0.0001
     28  N         21.5960   23.9130   43.2690 N.3    23  PHE23      -0.1227
     29  CA        20.7700   24.4670   44.3450 C.3    23  PHE23       0.1736
     30  C         19.7350   23.4430   44.8300 C.2    23  PHE23       0.2595
     31  O         19.3810   23.4320   46.0140 O.2    23  PHE23      -0.2718
     32  CB        20.0560   25.7490   43.8620 C.3    23  PHE23       0.0547
     33  CG        20.9610   26.9200   43.5970 C.ar   23  PHE23      -0.0202
     34  CD1       22.1840   27.0270   44.1600 C.ar   23  PHE23      -0.0042
     35  CD2       20.5620   27.9100   42.7440 C.ar   23  PHE23      -0.0042
     36  CE1       22.9740   28.1440   43.9030 C.ar   23  PHE23      -0.0003
     37  CE2       21.3550   29.0340   42.4880 C.ar   23  PHE23      -0.0003
     38  CZ        22.5890   29.1030   43.0340 C.ar   23  PHE23      -0.0000
     39  N         19.2210   22.6180   43.9250 N.am   24  LEU24      -0.1980
     40  CA        18.2580   21.5860   44.2850 C.3    24  LEU24       0.1596
     41  C         18.8980   20.5670   45.2400 C.2    24  LEU24       0.2287
     42  O         18.2940   20.1710   46.2460 O.2    24  LEU24      -0.2864
     43  CB        17.7590   20.9150   42.9800 C.3    24  LEU24       0.0297
     44  CG        16.6040   19.9570   43.0400 C.3    24  LEU24       0.0022
     45  CD1       15.3810   20.7100   43.4660 C.3    24  LEU24       0.0001
     46  CD2       16.4150   19.3660   41.6790 C.3    24  LEU24       0.0001
     47  N         19.6840   22.1190   48.7350 N.3    27  GLY27      -0.1225
     48  CA        18.5060   22.3460   49.5670 C.3    27  GLY27       0.1811
     49  C         17.8410   21.0870   50.0850 C.2    27  GLY27       0.2280
     50  O         16.9010   21.1870   50.8870 O.2    27  GLY27      -0.2866
     51  N         17.0920   20.4300   54.0170 N.3    30  VAL30      -0.1245
     52  CA        16.8850   21.6220   54.8330 C.3    30  VAL30       0.1561
     53  C         15.4860   21.5790   55.4250 C.2    30  VAL30       0.2260
     54  O         14.4980   21.4380   54.7010 O.2    30  VAL30      -0.2867
     55  CB        17.0980   22.9010   53.9960 C.3    30  VAL30       0.0252
     56  CG1       16.7770   24.1460   54.8010 C.3    30  VAL30       0.0019
     57  CG2       18.5330   22.9790   53.5090 C.3    30  VAL30       0.0019
     58  N         13.8450   27.1950   53.9080 N.3    36  LYS36      -0.1245
     59  CA        13.1230   26.5920   52.8060 C.3    36  LYS36       0.1561
     60  C         12.5740   27.6280   51.8420 C.2    36  LYS36       0.2260
     61  O         12.5320   27.3720   50.6240 O.2    36  LYS36      -0.2867
     62  CB        11.9620   25.7060   53.3150 C.3    36  LYS36       0.0271
     63  CG        12.3960   24.4460   53.9910 C.3    36  LYS36       0.0035
     64  CD        11.2770   23.7440   54.7770 C.3    36  LYS36       0.0206
     65  CE        10.4140   22.9340   53.9930 C.3    36  LYS36       0.1093
     66  NZ         9.5410   22.1230   54.9760 N.3    36  LYS36      -0.1314
     67  N         15.5030   28.8190   49.6710 N.3    39  TYR39      -0.1227
     68  CA        15.9070   27.7960   48.7060 C.3    39  TYR39       0.1736
     69  C         14.8780   27.6840   47.5930 C.2    39  TYR39       0.2595
     70  O         15.2480   27.4830   46.4460 O.2    39  TYR39      -0.2718
     71  CB        16.1160   26.4360   49.3910 C.3    39  TYR39       0.0548
     72  CG        17.5180   26.2710   49.8650 C.ar   39  TYR39      -0.0200
     73  CD1       18.4880   25.8400   48.9930 C.ar   39  TYR39      -0.0009
     74  CD2       17.8760   26.5470   51.1880 C.ar   39  TYR39      -0.0009
     75  CE1       19.7760   25.6550   49.3910 C.ar   39  TYR39       0.0417
     76  CE2       19.1990   26.3960   51.5940 C.ar   39  TYR39       0.0417
     77  CZ        20.1500   25.9490   50.6640 C.ar   39  TYR39       0.1957
     78  OH        21.4780   25.7360   51.0680 O.3    39  TYR39      -0.2866
     79  N         13.5810   27.7690   47.9240 N.am   40  ALA40      -0.1980
     80  CA        12.5570   27.6190   46.8860 C.3    40  ALA40       0.1597
     81  C         12.6170   28.7560   45.8940 C.2    40  ALA40       0.2287
     82  O         12.6310   28.5210   44.6770 O.2    40  ALA40      -0.2864
     83  CB        11.1800   27.5430   47.4840 C.3    40  ALA40       0.0319
     84  N         16.0380   28.5850   43.8300 N.3    43  THR43      -0.1203
     85  CA        16.2000   27.4880   42.8870 C.3    43  THR43       0.1994
     86  C         15.2880   27.6760   41.6770 C.2    43  THR43       0.2617
     87  O         15.6450   27.3030   40.5490 O.2    43  THR43      -0.2717
     88  CB        15.8670   26.1720   43.5990 C.3    43  THR43       0.1784
     89  OG1       16.7770   26.0230   44.7280 O.3    43  THR43      -0.2211
     90  CG2       16.1100   24.9750   42.6880 C.3    43  THR43       0.0376
     91  N         14.0900   28.2490   41.8940 N.am   44  LEU44      -0.1979
     92  CA        13.1520   28.5080   40.7820 C.3    44  LEU44       0.1596
     93  C         13.7520   29.4490   39.7650 C.2    44  LEU44       0.2287
     94  O         13.4620   29.3310   38.5790 O.2    44  LEU44      -0.2864
     95  CB        11.8310   29.0880   41.2990 C.3    44  LEU44       0.0297
     96  CG        10.9080   28.0400   41.8230 C.3    44  LEU44       0.0022
     97  CD1        9.7520   28.7550   42.5600 C.3    44  LEU44       0.0001
     98  CD2       10.3450   27.1870   40.5680 C.3    44  LEU44       0.0001
     99  N         15.9340   27.7530   37.2250 N.3    47  ALA47      -0.1245
    100  CA        15.1430   26.7410   36.5320 C.3    47  ALA47       0.1562
    101  C         14.3090   27.3770   35.4170 C.2    47  ALA47       0.2260
    102  O         14.2120   26.8460   34.2980 O.2    47  ALA47      -0.2867
    103  CB        14.2300   26.0430   37.5500 C.3    47  ALA47       0.0290
    104  N         16.6930   28.4870   32.6820 N.3    50  PHE50      -0.1227
    105  CA        17.0750   27.3400   31.8840 C.3    50  PHE50       0.1736
    106  C         16.0670   27.0840   30.7520 C.2    50  PHE50       0.2596
    107  O         16.4460   26.8660   29.5830 O.2    50  PHE50      -0.2718
    108  CB        17.2230   26.0920   32.7680 C.3    50  PHE50       0.0547
    109  CG        17.3030   24.8030   32.0100 C.ar   50  PHE50      -0.0202
    110  CD1       18.4400   24.3820   31.4000 C.ar   50  PHE50      -0.0042
    111  CD2       16.1470   24.0420   31.8680 C.ar   50  PHE50      -0.0042
    112  CE1       18.4710   23.1560   30.6930 C.ar   50  PHE50      -0.0003
    113  CE2       16.1620   22.8510   31.1890 C.ar   50  PHE50      -0.0003
    114  CZ        17.3330   22.4310   30.5320 C.ar   50  PHE50      -0.0000
    115  N         14.7730   27.0820   31.0770 N.am   51  THR51      -0.1953
    116  CA        13.7860   26.7660   30.0600 C.3    51  THR51       0.1897
    117  C         13.7540   27.8180   28.9670 C.2    51  THR51       0.2313
    118  O         13.5750   27.4820   27.7910 O.2    51  THR51      -0.2863
    119  CB        12.3950   26.5550   30.6420 C.3    51  THR51       0.1794
    120  OG1       11.8720   27.7700   31.1420 O.3    51  THR51      -0.2208
    121  CG2       12.4020   25.5540   31.7570 C.3    51  THR51       0.0378
@<TRIPOS>BOND
     1   118   117    2
     2   117   116    1
     3   107   106    2
     4   116   119    1
     5   116   115    1
     6   114   112   ar
     7   114   113   ar
     8   119   120    1
     9   119   121    1
    10   112   110   ar
    11   106   115   am
    12   106   105    1
    13   113   111   ar
    14   110   109   ar
    15   111   109   ar
    16   105   104    1
    17   105   108    1
    18   109   108    1
    19     1     2    1
    20    11    10    1
    21     2     3    1
    22   102   101    2
    23    12    10    1
    24    10     9    1
    25     5     3   am
    26     5     6    1
    27     3     4    2
    28   101   100    1
    29     9     6    1
    30     6     7    1
    31   100    99    1
    32   100   103    1
    33    26    25    1
    34    18    17    1
    35     7     8    2
    36    25    27    1
    37    25    24    1
    38    17    19    1
    39    17    14    1
    40    94    93    2
    41    13    14    1
    42    24    21    1
    43    14    15    1
    44    20    15   am
    45    20    21    1
    46    93    92    1
    47    15    16    2
    48    21    22    1
    49    87    86    2
    50    98    96    1
    51    92    95    1
    52    92    91    1
    53    22    23    2
    54    95    96    1
    55    86    91   am
    56    86    85    1
    57    46    44    1
    58    96    97    1
    59    37    35   ar
    60    37    38   ar
    61    90    88    1
    62    35    33   ar
    63    85    88    1
    64    85    84    1
    65    43    44    1
    66    43    40    1
    67    38    36   ar
    68    44    45    1
    69    28    29    1
    70    33    32    1
    71    33    34   ar
    72    88    89    1
    73    32    29    1
    74    36    34   ar
    75    39    40    1
    76    39    30   am
    77    40    41    1
    78    29    30    1
    79    82    81    2
    80    30    31    2
    81    41    42    2
    82    81    80    1
    83    70    69    2
    84    80    83    1
    85    80    79    1
    86    69    79   am
    87    69    68    1
    88    68    71    1
    89    68    67    1
    90    47    48    1
    91    73    75   ar
    92    73    72   ar
    93    71    72    1
    94    75    77   ar
    95    48    49    1
    96    72    74   ar
    97    49    50    2
    98    61    60    2
    99    77    78    1
   100    77    76   ar
   101    74    76   ar
   102    60    59    1
   103    59    62    1
   104    59    58    1
   105    62    63    1
   106    57    55    1
   107    63    64    1
   108    65    64    1
   109    65    66    1
   110    55    56    1
   111    55    52    1
   112    51    52    1
   113    54    53    2
   114    52    53    1
