@<TRIPOS>MOLECULE
tmp/6g7qB00.pdb
 104 98 0 0 0
SMALL
GASTEIGER

@<TRIPOS>ATOM
      1  N         -7.9230  -18.1710   -1.8850 N.3     8  SER8       -0.1217
      2  CA        -6.6560  -18.2020   -1.1720 C.3     8  SER8        0.1889
      3  C         -6.5200  -17.0600   -0.1950 C.2     8  SER8        0.2288
      4  O         -5.4570  -16.8920    0.4300 O.2     8  SER8       -0.2866
      5  CB        -5.5080  -18.1690   -2.1540 C.3     8  SER8        0.2089
      6  OG        -5.4310  -16.8980   -2.7970 O.3     8  SER8       -0.2183
      7  N         -3.7680  -22.4730   -1.8040 N.3    35  LYS35      -0.1231
      8  CA        -2.8470  -21.4360   -2.2660 C.3    35  LYS35       0.1693
      9  C         -3.3020  -20.9480   -3.6450 C.2    35  LYS35       0.2593
     10  O         -3.8610  -21.7030   -4.4150 O.2    35  LYS35      -0.2718
     11  CB        -1.4310  -21.9910   -2.3330 C.3    35  LYS35       0.0285
     12  CG        -0.8180  -22.1770   -0.9510 C.3    35  LYS35       0.0035
     13  CD         0.6850  -22.5240   -1.0110 C.3    35  LYS35       0.0206
     14  CE         1.6450  -21.5210   -1.7110 C.3    35  LYS35       0.1093
     15  NZ         1.9400  -20.2980   -0.8930 N.3    35  LYS35      -0.1314
     16  N         -2.9860  -19.7020   -3.9420 N.am   36  GLY36      -0.1942
     17  CA        -3.5470  -19.1210   -5.1390 C.3    36  GLY36       0.2014
     18  C         -3.2420  -19.8860   -6.4320 C.2    36  GLY36       0.2638
     19  O         -4.1250  -20.1320   -7.2610 O.2    36  GLY36      -0.2714
     20  N         -1.9590  -20.1650   -6.6600 N.am   37  ASP37      -0.1971
     21  CA        -1.5590  -20.8070   -7.8850 C.3    37  ASP37       0.1709
     22  C         -2.1510  -22.2320   -7.9430 C.2    37  ASP37       0.2293
     23  O         -2.5780  -22.6870   -9.0140 O.2    37  ASP37      -0.2864
     24  CB        -0.0600  -20.8650   -8.0270 C.3    37  ASP37       0.1436
     25  CG         0.5910  -19.4950   -8.3100 C.2    37  ASP37       0.3671
     26  OD1       -0.0730  -18.5190   -8.6990 O.co2  37  ASP37      -0.2456
     27  OD2        1.8730  -19.4840   -8.2850 O.co2  37  ASP37      -0.2456
     28  N         -4.8960  -13.1380   -4.2890 N.3    58  VAL58      -0.1245
     29  CA        -4.1810  -11.8900   -4.1860 C.3    58  VAL58       0.1561
     30  C         -3.2630  -11.7050   -5.3710 C.2    58  VAL58       0.2260
     31  O         -2.6960  -12.6840   -5.9230 O.2    58  VAL58      -0.2867
     32  CB        -3.4200  -11.7480   -2.8620 C.3    58  VAL58       0.0252
     33  CG1       -4.3510  -11.9440   -1.6910 C.3    58  VAL58       0.0019
     34  CG2       -2.1610  -12.5520   -2.7950 C.3    58  VAL58       0.0019
     35  N         -1.4200  -12.5670  -10.4110 N.3    62  ARG62      -0.1245
     36  CA        -2.0390  -13.8920  -10.3100 C.3    62  ARG62       0.1563
     37  C         -3.4240  -13.9430  -10.9360 C.2    62  ARG62       0.2260
     38  O         -3.8070  -14.9270  -11.5540 O.2    62  ARG62      -0.2867
     39  CB        -2.0530  -14.3270   -8.8860 C.3    62  ARG62       0.0307
     40  CG        -2.5710  -15.7220   -8.7250 C.3    62  ARG62       0.0489
     41  CD        -2.4970  -16.2130   -7.3250 C.3    62  ARG62       0.2205
     42  NE        -1.1310  -16.5200   -6.9350 N.pl3  62  ARG62      -0.0865
     43  CZ        -0.4900  -15.9960   -5.8910 C.cat  62  ARG62       0.5346
     44  NH1       -1.0110  -15.0020   -5.1610 N.pl3  62  ARG62       0.1354
     45  NH2        0.7310  -16.4420   -5.6110 N.pl3  62  ARG62       0.1354
     46  N         12.5470   -9.8930   -0.3400 N.3   135  ARG135     -0.1245
     47  CA        12.4190  -11.3210   -0.6050 C.3   135  ARG135      0.1563
     48  C         12.7340  -11.6790   -2.0610 C.2   135  ARG135      0.2260
     49  O         13.0110  -10.8140   -2.8980 O.2   135  ARG135     -0.2867
     50  CB        11.0010  -11.7640   -0.1980 C.3   135  ARG135      0.0307
     51  CG         9.9050  -11.3390   -1.1400 C.3   135  ARG135      0.0489
     52  CD         8.5210  -11.5940   -0.6020 C.3   135  ARG135      0.2205
     53  NE         8.2320  -12.9950   -0.4150 N.pl3 135  ARG135     -0.0865
     54  CZ         7.0660  -13.4170    0.1180 C.cat 135  ARG135      0.5346
     55  NH1        6.1380  -12.5240    0.4770 N.pl3 135  ARG135      0.1354
     56  NH2        6.8360  -14.6760    0.3080 N.pl3 135  ARG135      0.1354
     57  N          8.4950  -14.2920   -5.8070 N.3   139  ASN139     -0.1225
     58  CA         7.2990  -13.7720   -5.2020 C.3   139  ASN139      0.1785
     59  C          6.5090  -12.8580   -6.1430 C.2   139  ASN139      0.2597
     60  O          7.0800  -11.9390   -6.7440 O.2   139  ASN139     -0.2718
     61  CB         7.6830  -13.0090   -3.9480 C.3   139  ASN139      0.1169
     62  CG         6.4910  -12.2800   -3.3430 C.2   139  ASN139      0.2627
     63  OD1        6.3840  -11.0480   -3.4950 O.2   139  ASN139     -0.2716
     64  ND2        5.5990  -13.0140   -2.6960 N.am  139  ASN139     -0.0877
     65  N          5.1950  -13.0800   -6.2190 N.am  140  ILE140     -0.1966
     66  CA         4.3590  -12.3520   -7.1690 C.3   140  ILE140      0.1727
     67  C          4.3450  -10.8280   -6.8550 C.2   140  ILE140      0.2616
     68  O          4.2510  -10.0350   -7.7690 O.2   140  ILE140     -0.2715
     69  CB         2.9170  -12.9380   -7.1950 C.3   140  ILE140      0.0290
     70  CG1        2.0870  -12.4090   -8.3630 C.3   140  ILE140      0.0022
     71  CG2        2.1760  -12.7470   -5.8730 C.3   140  ILE140      0.0023
     72  CD1        2.6210  -12.7880   -9.6980 C.3   140  ILE140      0.0001
     73  N          4.4150  -10.4310   -5.5790 N.am  141  TYR141     -0.1974
     74  CA         4.3580   -9.0040   -5.2640 C.3   141  TYR141      0.1639
     75  C          5.5260   -8.2680   -5.8890 C.2   141  TYR141      0.2290
     76  O          5.4060   -7.1770   -6.4250 O.2   141  TYR141     -0.2864
     77  CB         4.3830   -8.7340   -3.7790 C.3   141  TYR141      0.0560
     78  CG         3.5010   -9.5870   -2.9040 C.ar  141  TYR141     -0.0198
     79  CD1        2.2180   -9.9860   -3.2760 C.ar  141  TYR141     -0.0009
     80  CD2        3.9270   -9.9550   -1.6390 C.ar  141  TYR141     -0.0009
     81  CE1        1.4330  -10.7380   -2.4620 C.ar  141  TYR141      0.0417
     82  CE2        3.1680  -10.7010   -0.7780 C.ar  141  TYR141      0.0417
     83  CZ         1.8920  -11.1220   -1.2130 C.ar  141  TYR141      0.1957
     84  OH         1.1130  -11.8590   -0.3680 O.3   141  TYR141     -0.2866
     85  N          9.9460  -14.2450    3.9100 N.3   176  ASN176     -0.1240
     86  CA         8.7540  -13.6170    3.3450 C.3   176  ASN176      0.1653
     87  C          8.7460  -12.1000    3.6200 C.2   176  ASN176      0.2266
     88  O          9.7550  -11.5150    4.0330 O.2   176  ASN176     -0.2867
     89  CB         7.5030  -14.3730    3.7980 C.3   176  ASN176      0.1155
     90  CG         7.2950  -14.2990    5.2870 C.2   176  ASN176      0.2627
     91  OD1        7.8620  -13.4610    5.9780 O.2   176  ASN176     -0.2716
     92  ND2        6.4610  -15.2260    5.8160 N.am  176  ASN176     -0.0877
     93  N          1.4060   -5.9730    6.0800 N.3   198  TYR198     -0.1241
     94  CA         2.2510   -6.7890    6.9910 C.3   198  TYR198      0.1605
     95  C          2.7070   -5.9570    8.1860 C.2   198  TYR198      0.2264
     96  O          2.8770   -6.4980    9.3020 O.2   198  TYR198     -0.2867
     97  CB         3.4300   -7.4070    6.2560 C.3   198  TYR198      0.0534
     98  CG         3.0240   -8.4440    5.2500 C.ar  198  TYR198     -0.0201
     99  CD1        2.4320   -9.6290    5.6430 C.ar  198  TYR198     -0.0009
    100  CD2        3.2470   -8.2140    3.8830 C.ar  198  TYR198     -0.0009
    101  CE1        2.0290  -10.5520    4.7080 C.ar  198  TYR198      0.0417
    102  CE2        2.8500   -9.1270    2.9600 C.ar  198  TYR198      0.0417
    103  CZ         2.2560  -10.2850    3.3440 C.ar  198  TYR198      0.1957
    104  OH         1.7780  -11.1640    2.3830 O.3   198  TYR198     -0.2866
@<TRIPOS>BOND
     1    38    37    2
     2    37    36    1
     3    35    36    1
     4    36    39    1
     5    72    70    1
     6    23    22    2
     7    39    40    1
     8    40    41    1
     9    26    25   ar
    10    70    69    1
    11    25    27   ar
    12    25    24    1
    13    24    21    1
    14    22    21    1
    15    21    20    1
    16    68    67    2
    17    41    42    1
    18    19    18    2
    19    69    66    1
    20    69    71    1
    21    66    67    1
    22    66    65    1
    23    42    43    2
    24    67    73   am
    25    60    59    2
    26    20    18   am
    27    18    17    1
    28    76    75    2
    29    65    59   am
    30    59    58    1
    31    31    30    2
    32    43    45    1
    33    43    44    1
    34    75    74    1
    35    57    58    1
    36    73    74    1
    37    30    29    1
    38    74    77    1
    39    58    61    1
    40    17    16    1
    41    10     9    2
    42    28    29    1
    43    29    32    1
    44    61    62    1
    45    16     9   am
    46    77    78    1
    47     9     8    1
    48    63    62    2
    49    62    64   am
    50    79    78   ar
    51    79    81   ar
    52    78    80   ar
    53    49    48    2
    54    32    34    1
    55    32    33    1
    56     6     5    1
    57    81    83   ar
    58    11     8    1
    59    11    12    1
    60     8     7    1
    61     5     2    1
    62    48    47    1
    63     1     2    1
    64    14    13    1
    65    14    15    1
    66    80    82   ar
    67    83    82   ar
    68    83    84    1
    69     2     3    1
    70    51    52    1
    71    51    50    1
    72    13    12    1
    73    47    46    1
    74    47    50    1
    75    52    53    1
    76    53    54    2
    77     3     4    2
    78    54    56    1
    79    54    55    1
    80   104   103    1
    81   102   103   ar
    82   102   100   ar
    83   103   101   ar
    84    86    87    1
    85    86    89    1
    86    86    85    1
    87    87    88    2
    88    89    90    1
    89   100    98   ar
    90   101    99   ar
    91    98    99   ar
    92    98    97    1
    93    90    92   am
    94    90    91    2
    95    93    94    1
    96    97    94    1
    97    94    95    1
    98    95    96    2
