@<TRIPOS>MOLECULE
tmp/6g7rA00.pdb
 159 150 0 0 0
SMALL
GASTEIGER

@<TRIPOS>ATOM
      1  N         -3.2510   25.7860   13.2770 N.3     3  ILE3       -0.1245
      2  CA        -4.2020   26.0280   14.3550 C.3     3  ILE3        0.1561
      3  C         -3.8500   25.1360   15.5530 C.2     3  ILE3        0.2260
      4  O         -3.6860   23.9120   15.3960 O.2     3  ILE3       -0.2867
      5  CB        -5.6530   25.7730   13.9170 C.3     3  ILE3        0.0252
      6  CG1       -6.6260   26.1050   15.0500 C.3     3  ILE3        0.0019
      7  CG2       -5.8510   24.3620   13.4120 C.3     3  ILE3        0.0019
      8  CD1       -8.0240   26.4180   14.6050 C.3     3  ILE3        0.0001
      9  N         -4.2540   22.7900   18.6860 N.3     5  VAL5       -0.1245
     10  CA        -5.2100   21.7850   19.1350 C.3     5  VAL5        0.1561
     11  C         -4.6850   21.1450   20.4240 C.2     5  VAL5        0.2260
     12  O         -3.5440   20.6890   20.4980 O.2     5  VAL5       -0.2867
     13  CB        -5.4900   20.7040   18.0620 C.3     5  VAL5        0.0252
     14  CG1       -6.4330   19.6190   18.5950 C.3     5  VAL5        0.0019
     15  CG2       -6.0110   21.3420   16.7850 C.3     5  VAL5        0.0019
     16  N         -5.6910   17.9840   22.8400 N.3     7  TRP7       -0.1241
     17  CA        -6.5040   16.7570   22.8680 C.3     7  TRP7        0.1605
     18  C         -6.3610   16.1310   24.2610 C.2     7  TRP7        0.2264
     19  O         -5.2480   15.7860   24.6620 O.2     7  TRP7       -0.2867
     20  CB        -6.0450   15.8110   21.7660 C.3     7  TRP7        0.0550
     21  CG        -6.8840   14.5890   21.4950 C.ar    7  TRP7        0.0003
     22  CD1       -7.4030   13.6990   22.3960 C.ar    7  TRP7        0.0946
     23  CD2       -7.1550   14.0320   20.2080 C.ar    7  TRP7        0.0152
     24  NE1       -8.0080   12.6550   21.7520 N.ar    7  TRP7       -0.2442
     25  CE2       -7.8740   12.8330   20.3980 C.ar    7  TRP7        0.0810
     26  CE3       -6.8530   14.4590   18.9070 C.ar    7  TRP7        0.0012
     27  CZ2       -8.2950   12.0480   19.3360 C.ar    7  TRP7        0.0191
     28  CZ3       -7.2580   13.6650   17.8570 C.ar    7  TRP7        0.0001
     29  CH2       -7.9550   12.4740   18.0760 C.ar    7  TRP7        0.0015
     30  N         -8.5030    7.7420   14.6820 N.3    20  PHE20      -0.1241
     31  CA        -7.9000    8.8850   14.0410 C.3    20  PHE20       0.1605
     32  C         -6.6380    8.4680   13.2790 C.2    20  PHE20       0.2264
     33  O         -6.4270    8.8740   12.1310 O.2    20  PHE20      -0.2867
     34  CB        -7.6240    9.9700   15.0860 C.3    20  PHE20       0.0534
     35  CG        -6.7330   11.0780   14.6010 C.ar   20  PHE20      -0.0203
     36  CD1       -7.1120   11.9110   13.5680 C.ar   20  PHE20      -0.0042
     37  CD2       -5.4860   11.2660   15.1670 C.ar   20  PHE20      -0.0042
     38  CE1       -6.2600   12.9100   13.1210 C.ar   20  PHE20      -0.0003
     39  CE2       -4.6500   12.2900   14.7690 C.ar   20  PHE20      -0.0003
     40  CZ        -5.0400   13.1000   13.7400 C.ar   20  PHE20      -0.0000
     41  N         -2.6980   20.8940   11.3370 N.3    36  ILE36      -0.1245
     42  CA        -2.9870   21.4180   12.6790 C.3    36  ILE36       0.1561
     43  C         -1.6720   21.4380   13.4430 C.2    36  ILE36       0.2260
     44  O         -0.6900   20.8940   12.9790 O.2    36  ILE36      -0.2867
     45  CB        -4.0380   20.5740   13.4490 C.3    36  ILE36       0.0252
     46  CG1       -3.5280   19.1520   13.7750 C.3    36  ILE36       0.0019
     47  CG2       -5.3590   20.5610   12.6940 C.3    36  ILE36       0.0019
     48  CD1       -4.4180   18.3090   14.6550 C.3    36  ILE36       0.0001
     49  N         -0.8520   19.8500   16.8200 N.3    38  LEU38      -0.1245
     50  CA        -1.3410   19.0090   17.9020 C.3    38  LEU38       0.1561
     51  C         -0.3960   19.2360   19.0730 C.2    38  LEU38       0.2260
     52  O          0.6660   18.6590   19.1600 O.2    38  LEU38      -0.2867
     53  CB        -1.4050   17.5550   17.4450 C.3    38  LEU38       0.0270
     54  CG        -1.9200   16.5610   18.4760 C.3    38  LEU38       0.0019
     55  CD1       -3.3260   16.8990   18.9510 C.3    38  LEU38       0.0001
     56  CD2       -1.8850   15.1390   17.9290 C.3    38  LEU38       0.0001
     57  N         -8.4550   24.8320   19.5500 N.3    68  ILE68      -0.1245
     58  CA        -9.5570   23.8750   19.5500 C.3    68  ILE68       0.1561
     59  C         -9.2620   22.8190   20.6130 C.2    68  ILE68       0.2260
     60  O         -8.1350   22.3140   20.7140 O.2    68  ILE68      -0.2867
     61  CB        -9.7110   23.2040   18.1690 C.3    68  ILE68       0.0252
     62  CG1       -9.9900   24.2150   17.0550 C.3    68  ILE68       0.0019
     63  CG2      -10.7720   22.1210   18.2020 C.3    68  ILE68       0.0019
     64  CD1      -11.2970   24.9460   17.2330 C.3    68  ILE68       0.0001
     65  N        -10.0730   19.0700   21.6200 N.3    70  ALA70      -0.1245
     66  CA       -10.6180   17.7680   21.3040 C.3    70  ALA70       0.1562
     67  C        -10.7170   16.9650   22.6000 C.2    70  ALA70       0.2260
     68  O         -9.7520   16.9390   23.4060 O.2    70  ALA70      -0.2867
     69  CB        -9.7490   17.0510   20.3010 C.3    70  ALA70       0.0290
     70  N        -11.7910   27.8390   21.7070 N.3   103  SER103     -0.1202
     71  CA       -12.7540   28.4860   20.8400 C.3   103  SER103      0.2020
     72  C        -13.9440   27.5800   20.4820 C.2   103  SER103      0.2618
     73  O        -15.0630   28.0670   20.2440 O.2   103  SER103     -0.2717
     74  CB       -12.0880   29.0150   19.6110 C.3   103  SER103      0.2103
     75  OG       -11.6550   27.9680   18.7740 O.3   103  SER103     -0.2182
     76  N        -13.6970   26.2740   20.4710 N.am  104  ALA104     -0.1979
     77  CA       -14.7010   25.2850   20.1710 C.3   104  ALA104      0.1597
     78  C        -14.1800   23.9440   20.6790 C.2   104  ALA104      0.2287
     79  O        -12.9600   23.7870   20.8770 O.2   104  ALA104     -0.2864
     80  CB       -15.0060   25.2100   18.6860 C.3   104  ALA104      0.0319
     81  N        -14.4700   19.6490   20.0800 N.3   106  ILE106     -0.1245
     82  CA       -14.8610   18.4510   19.3700 C.3   106  ILE106      0.1561
     83  C        -14.9940   17.3160   20.3930 C.2   106  ILE106      0.2260
     84  O        -14.0200   16.9720   21.0420 O.2   106  ILE106     -0.2867
     85  CB       -13.8700   18.0790   18.2660 C.3   106  ILE106      0.0252
     86  CG1      -13.5540   19.2520   17.3340 C.3   106  ILE106      0.0019
     87  CG2      -14.4010   16.8950   17.4780 C.3   106  ILE106      0.0019
     88  CD1      -14.7080   20.0440   16.7670 C.3   106  ILE106      0.0001
     89  N        -15.1930   13.7530   20.5400 N.3   108  TRP108     -0.1241
     90  CA       -14.9820   12.5780   19.7430 C.3   108  TRP108      0.1605
     91  C        -15.6890   11.3870   20.3670 C.2   108  TRP108      0.2264
     92  O        -15.5310   11.1180   21.5710 O.2   108  TRP108     -0.2867
     93  CB       -13.5110   12.1920   19.6540 C.3   108  TRP108      0.0550
     94  CG       -12.6100   13.1130   18.9150 C.ar  108  TRP108      0.0003
     95  CD1      -11.4260   13.6030   19.3940 C.ar  108  TRP108      0.0946
     96  CD2      -12.6940   13.5070   17.5290 C.ar  108  TRP108      0.0152
     97  NE1      -10.7710   14.2750   18.3990 N.ar  108  TRP108     -0.2442
     98  CE2      -11.5160   14.2230   17.2520 C.ar  108  TRP108      0.0810
     99  CE3      -13.6300   13.3130   16.4970 C.ar  108  TRP108      0.0012
    100  CZ2      -11.2700   14.7740   15.9980 C.ar  108  TRP108      0.0191
    101  CZ3      -13.3520   13.8100   15.2470 C.ar  108  TRP108      0.0001
    102  CH2      -12.1950   14.5400   15.0040 C.ar  108  TRP108      0.0015
    103  N        -19.2400   26.0660   21.9940 N.3   138  PRO138     -0.2116
    104  CA       -19.6460   25.2160   20.8850 C.3   138  PRO138      0.1372
    105  C        -19.0510   23.8070   21.0200 C.2   138  PRO138      0.2244
    106  O        -17.8480   23.7000   21.1980 O.2   138  PRO138     -0.2868
    107  CB       -19.0760   25.8810   19.6280 C.3   138  PRO138      0.0268
    108  CG       -18.6440   27.2600   20.0560 C.3   138  PRO138      0.0207
    109  CD       -18.3780   27.1580   21.5320 C.3   138  PRO138      0.0892
    110  N        -12.0470   17.2360   10.3840 N.3   156  ILE156     -0.1245
    111  CA       -10.8980   18.1090   10.6340 C.3   156  ILE156      0.1561
    112  C        -10.5540   18.9440    9.3900 C.2   156  ILE156      0.2260
    113  O        -10.3740   20.1590    9.4830 O.2   156  ILE156     -0.2867
    114  CB        -9.6720   17.2980   11.0780 C.3   156  ILE156      0.0252
    115  CG1       -9.9210   16.6020   12.4050 C.3   156  ILE156      0.0019
    116  CG2       -8.4360   18.1950   11.1360 C.3   156  ILE156      0.0019
    117  CD1       -8.9120   15.5570   12.7480 C.3   156  ILE156      0.0001
    118  N        -13.0160   21.7720    8.6850 N.3   159  MET159     -0.1230
    119  CA       -12.8860   22.9330    9.5560 C.3   159  MET159      0.1702
    120  C        -11.6460   23.7640    9.2000 C.2   159  MET159      0.2592
    121  O        -11.7090   24.9860    9.2030 O.2   159  MET159     -0.2718
    122  CB       -12.8440   22.4760   11.0050 C.3   159  MET159      0.0401
    123  CG       -14.1690   21.9200   11.4770 C.3   159  MET159      0.0596
    124  SD       -14.2520   21.5050   13.2070 S.3   159  MET159     -0.1393
    125  CE       -13.1890   20.0890   13.2470 C.3   159  MET159      0.0692
    126  N        -10.5330   23.0990    8.9120 N.am  160  VAL160     -0.1980
    127  CA        -9.3180   23.8280    8.5500 C.3   160  VAL160      0.1595
    128  C         -9.5170   24.5640    7.2230 C.2   160  VAL160      0.2287
    129  O         -9.1260   25.7320    7.0870 O.2   160  VAL160     -0.2864
    130  CB        -8.1120   22.8750    8.5120 C.3   160  VAL160      0.0276
    131  CG1       -6.8730   23.5580    7.9530 C.3   160  VAL160      0.0022
    132  CG2       -7.8440   22.2910    9.8890 C.3   160  VAL160      0.0022
    133  N        -12.6150   27.0350    7.4210 N.3   163  ASP163     -0.1225
    134  CA       -12.4930   27.9700    8.5320 C.3   163  ASP163      0.1805
    135  C        -13.8660   28.1960    9.1840 C.2   163  ASP163      0.2598
    136  O        -14.2480   29.3050    9.5130 O.2   163  ASP163     -0.2718
    137  CB       -11.7830   29.2610    8.1440 C.3   163  ASP163      0.1424
    138  CG       -11.3610   30.1050    9.3330 C.2   163  ASP163      0.3668
    139  OD1      -11.0940   29.5200   10.4160 O.co2 163  ASP163     -0.2456
    140  OD2      -11.3180   31.3430    9.1810 O.co2 163  ASP163     -0.2456
    141  N        -14.5720   27.1090    9.4240 N.am  164  ARG164     -0.1966
    142  CA       -15.8410   27.1730   10.1070 C.3   164  ARG164      0.1729
    143  C        -16.1830   25.7930   10.6600 C.2   164  ARG164      0.2616
    144  O        -15.6400   24.7820   10.2260 O.2   164  ARG164     -0.2715
    145  CB       -16.9580   27.6810    9.2090 C.3   164  ARG164      0.0348
    146  CG       -17.1850   26.7740    8.0300 C.3   164  ARG164      0.0492
    147  CD       -17.9270   27.5380    6.9530 C.3   164  ARG164      0.2205
    148  NE       -19.3440   27.2570    7.0590 N.pl3 164  ARG164     -0.0865
    149  CZ       -20.2680   28.0430    7.5990 C.cat 164  ARG164      0.5346
    150  NH1      -19.9610   29.2510    8.0470 N.pl3 164  ARG164      0.1354
    151  NH2      -21.5150   27.6050    7.6750 N.pl3 164  ARG164      0.1354
    152  N        -17.0620   25.7880   11.6460 N.am  165  LEU165     -0.1977
    153  CA       -17.5700   24.5490   12.1740 C.3   165  LEU165      0.1596
    154  C        -18.5750   23.9300   11.1900 C.2   165  LEU165      0.2287
    155  O        -19.2640   24.6420   10.4630 O.2   165  LEU165     -0.2864
    156  CB       -18.2480   24.7990   13.5210 C.3   165  LEU165      0.0297
    157  CG       -17.3690   25.3690   14.6330 C.3   165  LEU165      0.0022
    158  CD1      -18.1790   25.6240   15.8890 C.3   165  LEU165      0.0001
    159  CD2      -16.1680   24.4790   14.9590 C.3   165  LEU165      0.0001
@<TRIPOS>BOND
     1   147   148    1
     2   147   146    1
     3   148   149    2
     4   129   128    2
     5   128   127    1
     6   133   134    1
     7   149   151    1
     8   149   150    1
     9   131   130    1
    10   146   145    1
    11   137   134    1
    12   137   138    1
    13   130   127    1
    14   130   132    1
    15   134   135    1
    16   127   126    1
    17   118   119    1
    18   126   120   am
    19   140   138   ar
    20   135   141   am
    21   135   136    2
    22   120   121    2
    23   120   119    1
    24   145   142    1
    25   138   139   ar
    26   112   113    2
    27   112   111    1
    28   141   142    1
    29   119   122    1
    30   142   143    1
    31   144   143    2
    32   110   111    1
    33   155   154    2
    34   111   114    1
    35   143   152   am
    36   122   123    1
    37   114   116    1
    38   114   115    1
    39   154   153    1
    40    41    42    1
    41   123   124    1
    42   152   153    1
    43    33    32    2
    44   153   156    1
    45   115   117    1
    46    42    43    1
    47    42    45    1
    48    47    45    1
    49    44    43    2
    50    38    36   ar
    51    38    40   ar
    52   124   125    1
    53     1     2    1
    54    32    31    1
    55     7     5    1
    56    45    46    1
    57   156   157    1
    58    36    35   ar
    59    40    39   ar
    60    46    48    1
    61     5     2    1
    62     5     6    1
    63    31    30    1
    64    31    34    1
    65     2     3    1
    66    35    34    1
    67    35    37   ar
    68     8     6    1
    69   157   159    1
    70   157   158    1
    71    39    37   ar
    72   102   101   ar
    73   102   100   ar
    74   101    99   ar
    75     4     3    2
    76   100    98   ar
    77    99    96   ar
    78    88    86    1
    79    15    13    1
    80    49    50    1
    81    62    64    1
    82    62    61    1
    83    98    96   ar
    84    98    97   ar
    85    86    85    1
    86    53    50    1
    87    53    54    1
    88    87    85    1
    89    96    94   ar
    90    28    29   ar
    91    28    26   ar
    92    50    51    1
    93    56    54    1
    94    13    14    1
    95    13    10    1
    96    29    27   ar
    97    61    63    1
    98    61    58    1
    99    85    82    1
   100    97    95   ar
   101    54    55    1
   102    80    77    1
   103     9    10    1
   104    75    74    1
   105    26    23   ar
   106    94    95   ar
   107    94    93    1
   108    51    52    2
   109    10    11    1
   110    27    25   ar
   111    82    81    1
   112    82    83    1
   113    57    58    1
   114    58    59    1
   115    74    71    1
   116   107   108    1
   117   107   104    1
   118    93    90    1
   119    90    91    1
   120    90    89    1
   121   108   109    1
   122    77    76    1
   123    77    78    1
   124    23    25   ar
   125    23    21   ar
   126    73    72    2
   127    69    66    1
   128    91    92    2
   129    83    84    2
   130    25    24   ar
   131    11    12    2
   132    76    72   am
   133    72    71    1
   134    59    60    2
   135    78    79    2
   136    71    70    1
   137   104   105    1
   138   104   103    1
   139   105   106    2
   140    66    65    1
   141    66    67    1
   142    21    20    1
   143    21    22   ar
   144   109   103    1
   145    24    22   ar
   146    20    17    1
   147    67    68    2
   148    16    17    1
   149    17    18    1
   150    18    19    2
