@<TRIPOS>MOLECULE
tmp/6g83B01.pdb
 138 128 0 0 0
SMALL
GASTEIGER

@<TRIPOS>ATOM
      1  N         27.5070  -26.1740  124.1160 N.3    54  TYR54      -0.1241
      2  CA        27.8580  -27.3260  124.9370 C.3    54  TYR54       0.1605
      3  C         27.7450  -26.9890  126.4210 C.2    54  TYR54       0.2264
      4  O         27.3550  -27.8420  127.2270 O.2    54  TYR54      -0.2867
      5  CB        29.2710  -27.8120  124.6050 C.3    54  TYR54       0.0534
      6  CG        29.4470  -28.3250  123.1860 C.ar   54  TYR54      -0.0201
      7  CD1       29.7140  -27.4570  122.1430 C.ar   54  TYR54      -0.0009
      8  CD2       29.3580  -29.6800  122.8920 C.ar   54  TYR54      -0.0009
      9  CE1       29.8780  -27.9200  120.8520 C.ar   54  TYR54       0.0417
     10  CE2       29.5220  -30.1520  121.6060 C.ar   54  TYR54       0.0417
     11  CZ        29.7850  -29.2710  120.5840 C.ar   54  TYR54       0.1957
     12  OH        29.9400  -29.7320  119.2880 O.3    54  TYR54      -0.2866
     13  N         30.4550  -23.4240  112.7820 N.3   111  GLY111     -0.1210
     14  CA        30.4990  -24.7360  112.1490 C.3   111  GLY111      0.1956
     15  C         29.1490  -25.4180  112.0280 C.2   111  GLY111      0.2612
     16  O         29.0530  -26.4320  111.3270 O.2   111  GLY111     -0.2717
     17  N         28.1240  -24.9120  112.7100 N.am  112  THR112     -0.1952
     18  CA        26.7490  -25.3350  112.4990 C.3   112  THR112      0.1897
     19  C         25.8980  -24.1100  112.1990 C.2   112  THR112      0.2313
     20  O         26.1700  -23.0170  112.6890 O.2   112  THR112     -0.2863
     21  CB        26.1770  -26.0780  113.7140 C.3   112  THR112      0.1794
     22  OG1       24.7980  -26.4000  113.4710 O.3   112  THR112     -0.2208
     23  CG2       26.2960  -25.2340  114.9590 C.3   112  THR112      0.0378
     24  N         32.1470  -16.8930  116.6030 N.3   126  HIS126     -0.1226
     25  CA        33.2200  -16.7070  115.6430 C.3   126  HIS126      0.1752
     26  C         33.1720  -17.8140  114.5950 C.2   126  HIS126      0.2597
     27  O         32.4820  -18.8250  114.7500 O.2   126  HIS126     -0.2718
     28  CB        34.5880  -16.7200  116.3420 C.3   126  HIS126      0.0759
     29  CG        34.9110  -18.0230  117.0210 C.ar  126  HIS126      0.0818
     30  ND1       34.7590  -18.2140  118.3810 N.ar  126  HIS126     -0.2268
     31  CD2       35.3540  -19.2050  116.5240 C.ar  126  HIS126      0.1154
     32  CE1       35.1030  -19.4510  118.6900 C.ar  126  HIS126      0.1986
     33  NE2       35.4700  -20.0740  117.5810 N.ar  126  HIS126     -0.2212
     34  N         33.9330  -17.6240  113.5210 N.am  127  GLY127     -0.1942
     35  CA        33.9840  -18.6100  112.4620 C.3   127  GLY127      0.2014
     36  C         35.2750  -18.5960  111.6640 C.2   127  GLY127      0.2638
     37  O         36.2530  -17.9300  112.0330 O.2   127  GLY127     -0.2714
     38  N         35.2830  -19.3380  110.5540 N.am  128  LYS128     -0.1977
     39  CA        36.4810  -19.4710  109.7390 C.3   128  LYS128      0.1596
     40  C         36.9670  -18.1350  109.1930 C.2   128  LYS128      0.2287
     41  O         38.1370  -18.0270  108.8070 O.2   128  LYS128     -0.2864
     42  CB        36.2360  -20.4110  108.5500 C.3   128  LYS128      0.0298
     43  CG        35.8120  -21.8380  108.9150 C.3   128  LYS128      0.0038
     44  CD        35.8800  -22.7590  107.7030 C.3   128  LYS128      0.0206
     45  CE        35.2860  -24.1330  107.9710 C.3   128  LYS128      0.1093
     46  NZ        35.8500  -24.8060  109.1600 N.3   128  LYS128     -0.1314
     47  N         40.8350  -22.1370  107.8080 N.3   222  SER222     -0.1217
     48  CA        40.8010  -23.0370  108.9550 C.3   222  SER222      0.1889
     49  C         41.5470  -24.2950  108.5300 C.2   222  SER222      0.2288
     50  O         41.9260  -24.4450  107.3640 O.2   222  SER222     -0.2866
     51  CB        39.3690  -23.3570  109.4200 C.3   222  SER222      0.2089
     52  OG        38.6540  -24.1570  108.4920 O.3   222  SER222     -0.2183
     53  N         28.4380  -26.2210  101.9580 N.3   278  THR278     -0.1218
     54  CA        28.6050  -27.4990  102.6470 C.3   278  THR278      0.1862
     55  C         29.9620  -28.1230  102.3390 C.2   278  THR278      0.2287
     56  O         30.6280  -28.6370  103.2400 O.2   278  THR278     -0.2866
     57  CB        27.4500  -28.4300  102.2790 C.3   278  THR278      0.1770
     58  OG1       27.3650  -28.5680  100.8510 O.3   278  THR278     -0.2211
     59  CG2       26.1320  -27.8610  102.8210 C.3   278  THR278      0.0375
     60  N         32.7900  -26.2650  104.2690 N.3   281  TYR281     -0.1241
     61  CA        32.8090  -26.4880  105.7180 C.3   281  TYR281      0.1605
     62  C         32.9710  -28.0110  105.9310 C.2   281  TYR281      0.2264
     63  O         32.0310  -28.6810  106.3120 O.2   281  TYR281     -0.2867
     64  CB        31.5920  -25.8980  106.4840 C.3   281  TYR281      0.0534
     65  CG        31.7440  -24.3710  106.6990 C.ar  281  TYR281     -0.0201
     66  CD1       31.9690  -23.5390  105.6430 C.ar  281  TYR281     -0.0009
     67  CD2       31.6700  -23.7900  107.9530 C.ar  281  TYR281     -0.0009
     68  CE1       32.0980  -22.1950  105.8080 C.ar  281  TYR281      0.0417
     69  CE2       31.7890  -22.4670  108.1450 C.ar  281  TYR281      0.0417
     70  CZ        32.0130  -21.6460  107.0690 C.ar  281  TYR281      0.1957
     71  OH        32.1700  -20.2920  107.2620 O.3   281  TYR281     -0.2866
     72  N         38.1760  -26.1880  123.8130 N.3   287  GLN287     -0.1245
     73  CA        38.6230  -25.1220  122.9330 C.3   287  GLN287      0.1566
     74  C         39.2890  -23.9990  123.7080 C.2   287  GLN287      0.2260
     75  O         38.7700  -23.5400  124.7310 O.2   287  GLN287     -0.2867
     76  CB        37.4730  -24.5210  122.1200 C.3   287  GLN287      0.0367
     77  CG        37.9070  -23.3710  121.2320 C.3   287  GLN287      0.0905
     78  CD        36.7810  -22.9040  120.3470 C.2   287  GLN287      0.2608
     79  OE1       35.6790  -23.4460  120.3910 O.2   287  GLN287     -0.2717
     80  NE2       37.0580  -21.9140  119.5150 N.am  287  GLN287     -0.0878
     81  N         39.3830  -35.2050  115.5420 N.3   314  LEU314     -0.1245
     82  CA        38.6710  -34.0720  114.9500 C.3   314  LEU314      0.1561
     83  C         39.1570  -32.7940  115.6230 C.2   314  LEU314      0.2260
     84  O         38.6440  -32.4010  116.6730 O.2   314  LEU314     -0.2867
     85  CB        37.1560  -34.2270  115.1040 C.3   314  LEU314      0.0270
     86  CG        36.4940  -35.3130  114.2570 C.3   314  LEU314      0.0019
     87  CD1       35.0390  -35.4120  114.6490 C.3   314  LEU314      0.0001
     88  CD2       36.5900  -35.0180  112.7820 C.3   314  LEU314      0.0001
     89  N         40.2480  -28.6990  114.9510 N.3   316  VAL316     -0.1245
     90  CA        40.2700  -27.5260  114.0890 C.3   316  VAL316      0.1561
     91  C         41.2570  -26.5170  114.6520 C.2   316  VAL316      0.2260
     92  O         41.3530  -26.3280  115.8670 O.2   316  VAL316     -0.2867
     93  CB        38.8860  -26.8800  113.9180 C.3   316  VAL316      0.0252
     94  CG1       38.9980  -25.6360  113.0440 C.3   316  VAL316      0.0019
     95  CG2       37.9150  -27.8740  113.3030 C.3   316  VAL316      0.0019
     96  N         42.8800  -22.4990  113.8520 N.3   318  LYS318     -0.1245
     97  CA        42.6070  -21.2110  113.2380 C.3   318  LYS318      0.1561
     98  C         43.4880  -20.1940  113.9490 C.2   318  LYS318      0.2260
     99  O         43.7720  -20.3300  115.1410 O.2   318  LYS318     -0.2867
    100  CB        41.1320  -20.8270  113.3440 C.3   318  LYS318      0.0271
    101  CG        40.8210  -19.4520  112.7610 C.3   318  LYS318      0.0035
    102  CD        41.0840  -19.4000  111.2550 C.3   318  LYS318      0.0206
    103  CE        40.7170  -18.0520  110.6700 C.3   318  LYS318      0.1093
    104  NZ        39.6340  -17.3770  111.4330 N.3   318  LYS318     -0.1314
    105  N         43.2280  -16.4570  114.9590 N.3   320  PHE320     -0.1241
    106  CA        42.2700  -15.3760  115.0930 C.3   320  PHE320      0.1605
    107  C         42.9220  -14.0450  114.7530 C.2   320  PHE320      0.2264
    108  O         44.1350  -13.8620  114.8900 O.2   320  PHE320     -0.2867
    109  CB        41.7150  -15.2820  116.5160 C.3   320  PHE320      0.0534
    110  CG        40.6570  -16.3010  116.8390 C.ar  320  PHE320     -0.0203
    111  CD1       39.8530  -16.8540  115.8380 C.ar  320  PHE320     -0.0042
    112  CD2       40.4720  -16.7200  118.1490 C.ar  320  PHE320     -0.0042
    113  CE1       38.8870  -17.7880  116.1460 C.ar  320  PHE320     -0.0003
    114  CE2       39.5040  -17.6660  118.4710 C.ar  320  PHE320     -0.0003
    115  CZ        38.7030  -18.1900  117.4690 C.ar  320  PHE320     -0.0000
    116  N         44.0740  -20.5380  117.9500 N.3   336  ASN336     -0.1240
    117  CA        42.8520  -21.1580  118.4430 C.3   336  ASN336      0.1653
    118  C         42.7690  -22.5850  117.9240 C.2   336  ASN336      0.2266
    119  O         43.0600  -22.8560  116.7530 O.2   336  ASN336     -0.2867
    120  CB        41.6130  -20.3770  118.0130 C.3   336  ASN336      0.1155
    121  CG        40.3200  -21.1270  118.2860 C.2   336  ASN336      0.2627
    122  OD1       39.7520  -21.0190  119.3760 O.2   336  ASN336     -0.2716
    123  ND2       39.8780  -21.9330  117.3200 N.am  336  ASN336     -0.0877
    124  N         40.3580  -26.3990  118.5160 N.3   338  CYS338     -0.1235
    125  CA        39.2520  -27.1670  119.0630 C.3   338  CYS338      0.1677
    126  C         39.6660  -28.6330  119.0470 C.2   338  CYS338      0.2270
    127  O         40.2300  -29.1050  118.0560 O.2   338  CYS338     -0.2867
    128  CB        37.9630  -26.9970  118.2330 C.3   338  CYS338      0.0956
    129  SG        37.1250  -25.3920  118.2230 S.3   338  CYS338     -0.0801
    130  N         31.6150  -23.7610  124.9120 N.3   369  LYS369     -0.1245
    131  CA        32.1370  -25.1190  124.9110 C.3   369  LYS369      0.1561
    132  C         32.5210  -25.6170  126.3070 C.2   369  LYS369      0.2260
    133  O         33.2490  -26.6110  126.4180 O.2   369  LYS369     -0.2867
    134  CB        33.3670  -25.2230  124.0020 C.3   369  LYS369      0.0271
    135  CG        33.2420  -24.7460  122.5490 C.3   369  LYS369      0.0035
    136  CD        32.2910  -25.5920  121.6950 C.3   369  LYS369      0.0206
    137  CE        32.6190  -25.4880  120.1980 C.3   369  LYS369      0.1093
    138  NZ        33.7640  -26.3490  119.8010 N.3   369  LYS369     -0.1314
@<TRIPOS>BOND
     1    58    57    1
     2    53    54    1
     3    57    54    1
     4    57    59    1
     5    55    54    1
     6    55    56    2
     7    60    61    1
     8    66    68   ar
     9    66    65   ar
    10    61    62    1
    11    61    64    1
    12    68    70   ar
    13    62    63    2
    14    64    65    1
    15    65    67   ar
    16    70    71    1
    17    70    69   ar
    18    50    49    2
    19    44    45    1
    20    44    43    1
    21    47    48    1
    22    67    69   ar
    23    45    46    1
    24    52    51    1
    25    49    48    1
    26    42    43    1
    27    42    39    1
    28    41    40    2
    29    48    51    1
    30    40    39    1
    31    39    38    1
    32    38    36   am
    33   103   102    1
    34   103   104    1
    35   102   101    1
    36    16    15    2
    37    36    37    2
    38    36    35    1
    39    15    14    1
    40    15    17   am
    41    14    13    1
    42    19    18    1
    43    19    20    2
    44    35    34    1
    45    18    17    1
    46    18    21    1
    47   101   100    1
    48    88    86    1
    49    94    93    1
    50    97   100    1
    51    97    96    1
    52    97    98    1
    53    95    93    1
    54    22    21    1
    55    34    26   am
    56    21    23    1
    57    93    90    1
    58    98    99    2
    59    90    91    1
    60    90    89    1
    61    86    87    1
    62    86    85    1
    63    26    27    2
    64    26    25    1
    65    91    92    2
    66   107   108    2
    67   107   106    1
    68    82    85    1
    69    82    81    1
    70    82    83    1
    71   105   106    1
    72   106   109    1
    73    83    84    2
    74    25    28    1
    75    25    24    1
    76   111   113   ar
    77   111   110   ar
    78   113   115   ar
    79    28    29    1
    80   109   110    1
    81    31    29   ar
    82    31    33   ar
    83   119   118    2
    84   110   112   ar
    85    29    30   ar
    86   123   121   am
    87   115   114   ar
    88    33    32   ar
    89   118   117    1
    90   116   117    1
    91   120   121    1
    92   120   117    1
    93   127   126    2
    94   112   114   ar
    95   129   128    1
    96   128   125    1
    97   121   122    2
    98    30    32   ar
    99   124   125    1
   100   126   125    1
   101    12    11    1
   102    80    78   am
   103   138   137    1
   104   137   136    1
   105    78    79    2
   106    78    77    1
   107    11     9   ar
   108    11    10   ar
   109     9     7   ar
   110    77    76    1
   111    10     8   ar
   112   136   135    1
   113    76    73    1
   114     7     6   ar
   115   135   134    1
   116     8     6   ar
   117    73    74    1
   118    73    72    1
   119     6     5    1
   120    74    75    2
   121   134   131    1
   122     1     2    1
   123     5     2    1
   124   131   130    1
   125   131   132    1
   126     2     3    1
   127   132   133    2
   128     3     4    2
