@<TRIPOS>MOLECULE
tmp/6g84C00.pdb
 200 197 0 0 0
SMALL
GASTEIGER

@<TRIPOS>ATOM
      1  N         10.5900  -16.3090   -4.7900 N.3    10  PHE10      -0.1227
      2  CA        12.0240  -16.1450   -5.0060 C.3    10  PHE10       0.1736
      3  C         12.3980  -14.6710   -4.9280 C.2    10  PHE10       0.2595
      4  O         13.0020  -14.2280   -3.9450 O.2    10  PHE10      -0.2718
      5  CB        12.4420  -16.7370   -6.3540 C.3    10  PHE10       0.0547
      6  CG        12.8710  -18.1750   -6.2780 C.ar   10  PHE10      -0.0202
      7  CD1       11.9310  -19.1930   -6.2460 C.ar   10  PHE10      -0.0042
      8  CD2       14.2150  -18.5090   -6.2390 C.ar   10  PHE10      -0.0042
      9  CE1       12.3250  -20.5170   -6.1750 C.ar   10  PHE10      -0.0003
     10  CE2       14.6150  -19.8300   -6.1680 C.ar   10  PHE10      -0.0003
     11  CZ        13.6690  -20.8360   -6.1360 C.ar   10  PHE10      -0.0000
     12  N         12.0500  -13.9060   -5.9580 N.am   11  LEU11      -0.1980
     13  CA        12.1750  -12.4550   -5.9410 C.3    11  LEU11       0.1596
     14  C         10.8040  -11.8580   -5.6530 C.2    11  LEU11       0.2287
     15  O          9.8640  -12.0560   -6.4300 O.2    11  LEU11      -0.2864
     16  CB        12.7260  -11.9280   -7.2660 C.3    11  LEU11       0.0297
     17  CG        14.2480  -11.8430   -7.3800 C.3    11  LEU11       0.0022
     18  CD1       14.6510  -11.2460   -8.7170 C.3    11  LEU11       0.0001
     19  CD2       14.8170  -11.0240   -6.2340 C.3    11  LEU11       0.0001
     20  N          8.3220  -10.1980   -8.2200 N.3    14  ARG14      -0.1231
     21  CA         8.8410  -10.4120   -9.5650 C.3    14  ARG14       0.1694
     22  C          8.7950  -11.8830   -9.9630 C.2    14  ARG14       0.2591
     23  O          8.1960  -12.2340  -10.9850 O.2    14  ARG14      -0.2718
     24  CB        10.2740   -9.8870   -9.6750 C.3    14  ARG14       0.0321
     25  CG        10.4320   -8.4140   -9.3360 C.3    14  ARG14       0.0489
     26  CD        11.8630   -7.9500   -9.5620 C.3    14  ARG14       0.2205
     27  NE        12.0890   -6.6000   -9.0540 N.pl3  14  ARG14      -0.0865
     28  CZ        12.5640   -6.3290   -7.8420 C.cat  14  ARG14       0.5346
     29  NH1       12.7370   -5.0710   -7.4620 N.pl3  14  ARG14       0.1354
     30  NH2       12.8680   -7.3170   -7.0110 N.pl3  14  ARG14       0.1354
     31  N          9.4210  -12.7490   -9.1680 N.am   15  VAL15      -0.1980
     32  CA         9.5840  -14.1600   -9.5030 C.3    15  VAL15       0.1595
     33  C          8.8700  -15.0020   -8.4540 C.2    15  VAL15       0.2287
     34  O          9.0200  -14.7630   -7.2500 O.2    15  VAL15      -0.2864
     35  CB        11.0710  -14.5510   -9.5930 C.3    15  VAL15       0.0276
     36  CG1       11.2150  -16.0000  -10.0310 C.3    15  VAL15       0.0022
     37  CG2       11.8100  -13.6220  -10.5460 C.3    15  VAL15       0.0022
     38  N         18.3380  -23.5160  -21.3950 N.3    57  TYR57      -0.1241
     39  CA        18.4560  -22.4520  -22.3860 C.3    57  TYR57       0.1605
     40  C         17.1080  -22.1470  -23.0290 C.2    57  TYR57       0.2264
     41  O         16.7370  -20.9770  -23.1870 O.2    57  TYR57      -0.2867
     42  CB        19.4880  -22.8390  -23.4460 C.3    57  TYR57       0.0534
     43  CG        19.7850  -21.7450  -24.4470 C.ar   57  TYR57      -0.0201
     44  CD1       19.1300  -21.7000  -25.6700 C.ar   57  TYR57      -0.0009
     45  CD2       20.7230  -20.7580  -24.1690 C.ar   57  TYR57      -0.0009
     46  CE1       19.3980  -20.7030  -26.5880 C.ar   57  TYR57       0.0417
     47  CE2       20.9970  -19.7560  -25.0820 C.ar   57  TYR57       0.0417
     48  CZ        20.3320  -19.7340  -26.2890 C.ar   57  TYR57       0.1957
     49  OH        20.6010  -18.7400  -27.2020 O.3    57  TYR57      -0.2866
     50  N         15.1480  -20.2780  -20.6180 N.3    60  ALA60      -0.1231
     51  CA        15.6100  -18.9140  -20.3900 C.3    60  ALA60       0.1694
     52  C         15.0300  -17.9490  -21.4160 C.2    60  ALA60       0.2591
     53  O         14.6480  -16.8250  -21.0700 O.2    60  ALA60      -0.2718
     54  CB        17.1370  -18.8670  -20.4110 C.3    60  ALA60       0.0304
     55  N         14.9570  -18.3640  -22.6840 N.am   61  VAL61      -0.1980
     56  CA        14.4420  -17.4640  -23.7110 C.3    61  VAL61       0.1595
     57  C         12.9480  -17.2310  -23.5270 C.2    61  VAL61       0.2287
     58  O         12.4490  -16.1330  -23.7970 O.2    61  VAL61      -0.2864
     59  CB        14.7700  -18.0010  -25.1180 C.3    61  VAL61       0.0276
     60  CG1       16.2760  -18.0540  -25.3230 C.3    61  VAL61       0.0022
     61  CG2       14.1520  -19.3720  -25.3380 C.3    61  VAL61       0.0022
     62  N         11.4650  -17.3500  -20.5410 N.3    63  PHE63      -0.1227
     63  CA        11.3930  -16.5170  -19.3460 C.3    63  PHE63       0.1736
     64  C         11.7290  -15.0650  -19.6660 C.2    63  PHE63       0.2595
     65  O         11.1080  -14.1430  -19.1240 O.2    63  PHE63      -0.2718
     66  CB        12.3380  -17.0630  -18.2750 C.3    63  PHE63       0.0547
     67  CG        12.0850  -16.5150  -16.8980 C.ar   63  PHE63      -0.0202
     68  CD1       10.8380  -16.0210  -16.5500 C.ar   63  PHE63      -0.0042
     69  CD2       13.0980  -16.4900  -15.9540 C.ar   63  PHE63      -0.0042
     70  CE1       10.6050  -15.5180  -15.2830 C.ar   63  PHE63      -0.0003
     71  CE2       12.8730  -15.9860  -14.6860 C.ar   63  PHE63      -0.0003
     72  CZ        11.6240  -15.4990  -14.3500 C.ar   63  PHE63      -0.0000
     73  N         12.7040  -14.8410  -20.5520 N.am   64  HIS64      -0.1975
     74  CA        13.1220  -13.4780  -20.8640 C.3    64  HIS64       0.1656
     75  C         12.0890  -12.7590  -21.7230 C.2    64  HIS64       0.2291
     76  O         11.8620  -11.5550  -21.5510 O.2    64  HIS64      -0.2864
     77  CB        14.4840  -13.4940  -21.5580 C.3    64  HIS64       0.0771
     78  CG        15.6060  -13.9510  -20.6780 C.ar   64  HIS64       0.0820
     79  ND1       16.8410  -14.3130  -21.1730 N.ar   64  HIS64      -0.2267
     80  CD2       15.6810  -14.1040  -19.3350 C.ar   64  HIS64       0.1154
     81  CE1       17.6270  -14.6700  -20.1730 C.ar   64  HIS64       0.1986
     82  NE2       16.9470  -14.5520  -19.0470 N.ar   64  HIS64      -0.2212
     83  N          9.4700  -11.5350  -19.3060 N.3    67  LEU67      -0.1231
     84  CA         9.9260  -10.4910  -18.3930 C.3    67  LEU67       0.1693
     85  C          9.9260   -9.1240  -19.0630 C.2    67  LEU67       0.2592
     86  O          9.5880   -8.1150  -18.4330 O.2    67  LEU67      -0.2718
     87  CB        11.3250  -10.8250  -17.8740 C.3    67  LEU67       0.0284
     88  CG        11.5030  -11.3190  -16.4360 C.3    67  LEU67       0.0019
     89  CD1       10.1710  -11.4980  -15.7350 C.3    67  LEU67       0.0001
     90  CD2       12.2980  -12.6160  -16.4190 C.3    67  LEU67       0.0001
     91  N         10.3010   -9.0680  -20.3400 N.am   68  ASN68      -0.1974
     92  CA        10.4660   -7.8080  -21.0520 C.3    68  ASN68       0.1688
     93  C          9.2620   -7.4430  -21.9120 C.2    68  ASN68       0.2292
     94  O          9.3550   -6.5180  -22.7240 O.2    68  ASN68      -0.2864
     95  CB        11.7300   -7.8550  -21.9110 C.3    68  ASN68       0.1181
     96  CG        12.9940   -7.7090  -21.0900 C.2    68  ASN68       0.2629
     97  OD1       12.9710   -7.8480  -19.8670 O.2    68  ASN68      -0.2716
     98  ND2       14.1050   -7.4230  -21.7590 N.am   68  ASN68      -0.0877
     99  N         18.9080  -21.5330  -13.2930 N.3    98  TYR98      -0.1227
    100  CA        18.8190  -20.2630  -14.0070 C.3    98  TYR98       0.1736
    101  C         19.4680  -19.1400  -13.2060 C.2    98  TYR98       0.2595
    102  O         20.2600  -18.3580  -13.7440 O.2    98  TYR98      -0.2718
    103  CB        17.3590  -19.9250  -14.3160 C.3    98  TYR98       0.0548
    104  CG        17.1860  -18.5290  -14.8720 C.ar   98  TYR98      -0.0200
    105  CD1       17.4130  -18.2640  -16.2160 C.ar   98  TYR98      -0.0009
    106  CD2       16.8110  -17.4720  -14.0510 C.ar   98  TYR98      -0.0009
    107  CE1       17.2660  -16.9890  -16.7290 C.ar   98  TYR98       0.0417
    108  CE2       16.6640  -16.1930  -14.5540 C.ar   98  TYR98       0.0417
    109  CZ        16.8920  -15.9580  -15.8940 C.ar   98  TYR98       0.1957
    110  OH        16.7460  -14.6880  -16.4030 O.3    98  TYR98      -0.2866
    111  N         19.1350  -19.0390  -11.9170 N.am   99  MET99      -0.1979
    112  CA        19.7130  -17.9870  -11.0880 C.3    99  MET99       0.1605
    113  C         21.2040  -18.2060  -10.8600 C.2    99  MET99       0.2287
    114  O         21.9470  -17.2390  -10.6560 O.2    99  MET99      -0.2864
    115  CB        18.9780  -17.9090   -9.7490 C.3    99  MET99       0.0413
    116  CG        17.4750  -17.6900   -9.8690 C.3    99  MET99       0.0598
    117  SD        17.0460  -16.1270  -10.6590 S.3    99  MET99      -0.1393
    118  CE        15.2580  -16.1590  -10.5350 C.3    99  MET99       0.0692
    119  N         22.8190  -17.4760  -14.7690 N.3   102  VAL102     -0.1231
    120  CA        22.4570  -16.2470  -15.4590 C.3   102  VAL102      0.1692
    121  C         22.4600  -15.0460  -14.5200 C.2   102  VAL102      0.2592
    122  O         22.9100  -13.9620  -14.9000 O.2   102  VAL102     -0.2718
    123  CB        21.0880  -16.3970  -16.1580 C.3   102  VAL102      0.0266
    124  CG1       20.7350  -15.1290  -16.9200 C.3   102  VAL102      0.0020
    125  CG2       21.0970  -17.6030  -17.0870 C.3   102  VAL102      0.0020
    126  N         21.9670  -15.2130  -13.2950 N.am  103  GLN103     -0.1966
    127  CA        21.8500  -14.1100  -12.3510 C.3   103  GLN103      0.1733
    128  C         22.9630  -14.0900  -11.3120 C.2   103  GLN103      0.2616
    129  O         22.9760  -13.1970  -10.4590 O.2   103  GLN103     -0.2715
    130  CB        20.4870  -14.1580  -11.6540 C.3   103  GLN103      0.0408
    131  CG        19.3040  -14.1060  -12.6110 C.3   103  GLN103      0.0908
    132  CD        19.2580  -12.8240  -13.4260 C.2   103  GLN103      0.2608
    133  OE1       19.7560  -11.7820  -12.9990 O.2   103  GLN103     -0.2717
    134  NE2       18.6550  -12.8970  -14.6070 N.am  103  GLN103     -0.0878
    135  N         23.8870  -15.0520  -11.3600 N.am  104  ALA104     -0.1963
    136  CA        25.0630  -15.0780  -10.4890 C.3   104  ALA104      0.1728
    137  C         24.6720  -15.1200   -9.0110 C.2   104  ALA104      0.2616
    138  O         25.2250  -14.3990   -8.1780 O.2   104  ALA104     -0.2715
    139  CB        25.9860  -13.8910  -10.7780 C.3   104  ALA104      0.0334
    140  N         23.7090  -15.9760   -8.6870 N.am  105  TRP105     -0.1974
    141  CA        23.3370  -16.2090   -7.3000 C.3   105  TRP105      0.1640
    142  C         24.2040  -17.3120   -6.7020 C.2   105  TRP105      0.2290
    143  O         24.7930  -18.1290   -7.4130 O.2   105  TRP105     -0.2864
    144  CB        21.8590  -16.5900   -7.1810 C.3   105  TRP105      0.0576
    145  CG        20.9020  -15.4670   -7.4550 C.ar  105  TRP105      0.0006
    146  CD1       21.1380  -14.3490   -8.2010 C.ar  105  TRP105      0.0946
    147  CD2       19.5560  -15.3510   -6.9750 C.ar  105  TRP105      0.0152
    148  NE1       20.0210  -13.5490   -8.2210 N.ar  105  TRP105     -0.2442
    149  CE2       19.0370  -14.1410   -7.4750 C.ar  105  TRP105      0.0810
    150  CE3       18.7400  -16.1540   -6.1720 C.ar  105  TRP105      0.0012
    151  CZ2       17.7390  -13.7150   -7.1990 C.ar  105  TRP105      0.0191
    152  CZ3       17.4520  -15.7300   -5.9000 C.ar  105  TRP105      0.0001
    153  CH2       16.9650  -14.5220   -6.4110 C.ar  105  TRP105      0.0015
    154  N         21.5880  -18.9790   -1.5490 N.3   109  GLN109     -0.1245
    155  CA        20.5410  -18.0090   -1.8490 C.3   109  GLN109      0.1566
    156  C         19.3880  -18.6430   -2.6200 C.2   109  GLN109      0.2260
    157  O         18.2280  -18.2700   -2.4180 O.2   109  GLN109     -0.2867
    158  CB        21.1240  -16.8320   -2.6320 C.3   109  GLN109      0.0367
    159  CG        21.9580  -15.8800   -1.7860 C.3   109  GLN109      0.0905
    160  CD        22.7300  -14.8760   -2.6220 C.2   109  GLN109      0.2608
    161  OE1       22.7500  -14.9580   -3.8510 O.2   109  GLN109     -0.2717
    162  NE2       23.3750  -13.9240   -1.9570 N.am  109  GLN109     -0.0878
    163  N         17.3890  -21.4350   -0.1500 N.3   112  GLN112     -0.1245
    164  CA        16.5720  -21.0090    0.9860 C.3   112  GLN112      0.1566
    165  C         15.0770  -21.0780    0.6900 C.2   112  GLN112      0.2260
    166  O         14.3270  -21.5850    1.5430 O.2   112  GLN112     -0.2867
    167  CB        16.9990  -19.6090    1.4360 C.3   112  GLN112      0.0367
    168  CG        16.3140  -19.1310    2.7040 C.3   112  GLN112      0.0905
    169  CD        15.6470  -17.7820    2.5310 C.2   112  GLN112      0.2608
    170  OE1       15.2270  -17.4220    1.4320 O.2   112  GLN112     -0.2717
    171  NE2       15.5490  -17.0260    3.6190 N.am  112  GLN112     -0.0878
    172  N         27.2320  -20.3400  -20.3540 N.3   156  LEU156     -0.1231
    173  CA        25.9990  -20.3510  -21.1340 C.3   156  LEU156      0.1693
    174  C         25.9940  -19.3160  -22.2510 C.2   156  LEU156      0.2592
    175  O         25.1400  -19.3960  -23.1390 O.2   156  LEU156     -0.2718
    176  CB        24.7960  -20.1190  -20.2180 C.3   156  LEU156      0.0284
    177  CG        23.5250  -20.8960  -20.5700 C.3   156  LEU156      0.0019
    178  CD1       23.6120  -22.3220  -20.0430 C.3   156  LEU156      0.0001
    179  CD2       22.2840  -20.1940  -20.0390 C.3   156  LEU156      0.0001
    180  N         26.9170  -18.3530  -22.2290 N.am  157  HIS157     -0.1976
    181  CA        26.9560  -17.3370  -23.2740 C.3   157  HIS157      0.1656
    182  C         27.6160  -17.8530  -24.5450 C.2   157  HIS157      0.2291
    183  O         27.2580  -17.4180  -25.6450 O.2   157  HIS157     -0.2864
    184  CB        27.6760  -16.0920  -22.7590 C.3   157  HIS157      0.0771
    185  CG        27.1520  -15.6000  -21.4460 C.ar  157  HIS157      0.0820
    186  ND1       25.8290  -15.2680  -21.2500 N.ar  157  HIS157     -0.2267
    187  CD2       27.7710  -15.3920  -20.2590 C.ar  157  HIS157      0.1154
    188  CE1       25.6550  -14.8740  -20.0020 C.ar  157  HIS157      0.1986
    189  NE2       26.8180  -14.9390  -19.3790 N.ar  157  HIS157     -0.2212
    190  N         27.3080  -21.0260  -25.2050 N.3   159  PHE159     -0.1241
    191  CA        26.5500  -22.2420  -25.4550 C.3   159  PHE159      0.1605
    192  C         25.7740  -22.1360  -26.7610 C.2   159  PHE159      0.2264
    193  O         25.1370  -21.1180  -27.0450 O.2   159  PHE159     -0.2867
    194  CB        25.5930  -22.5130  -24.2940 C.3   159  PHE159      0.0534
    195  CG        24.6060  -23.6130  -24.5620 C.ar  159  PHE159     -0.0203
    196  CD1       24.9910  -24.9410  -24.4860 C.ar  159  PHE159     -0.0042
    197  CD2       23.2900  -23.3180  -24.8820 C.ar  159  PHE159     -0.0042
    198  CE1       24.0830  -25.9550  -24.7310 C.ar  159  PHE159     -0.0003
    199  CE2       22.3780  -24.3270  -25.1280 C.ar  159  PHE159     -0.0003
    200  CZ        22.7740  -25.6470  -25.0520 C.ar  159  PHE159     -0.0000
@<TRIPOS>BOND
     1    49    48    1
     2   193   192    2
     3   192   191    1
     4    46    48   ar
     5    46    44   ar
     6    48    47   ar
     7    44    43   ar
     8   183   182    2
     9   191   190    1
    10   191   194    1
    11    61    59    1
    12    60    59    1
    13   199   200   ar
    14   199   197   ar
    15    59    56    1
    16    47    45   ar
    17   200   198   ar
    18   197   195   ar
    19   198   196   ar
    20   195   196   ar
    21   195   194    1
    22   182   181    1
    23    43    45   ar
    24    43    42    1
    25    58    57    2
    26    56    57    1
    27    56    55    1
    28    42    39    1
    29   181   184    1
    30   181   180    1
    31    41    40    2
    32   175   174    2
    33    40    39    1
    34   184   185    1
    35    94    93    2
    36    55    52   am
    37    39    38    1
    38   174   180   am
    39   174   173    1
    40    93    92    1
    41    95    96    1
    42    95    92    1
    43    98    96   am
    44    75    76    2
    45    75    74    1
    46    77    74    1
    47    77    78    1
    48   185   186   ar
    49   185   187   ar
    50    52    53    2
    51    52    51    1
    52   186   188   ar
    53    79    78   ar
    54    79    81   ar
    55   173   172    1
    56   173   176    1
    57    96    97    2
    58    92    91    1
    59    74    73    1
    60    78    80   ar
    61    50    51    1
    62   177   176    1
    63   177   178    1
    64   177   179    1
    65    73    64   am
    66    62    63    1
    67    54    51    1
    68    91    85   am
    69   187   189   ar
    70    81    82   ar
    71   188   189   ar
    72    64    63    1
    73    64    65    2
    74    63    66    1
    75    80    82   ar
    76    83    84    1
    77    85    86    2
    78    85    84    1
    79    84    87    1
    80    66    67    1
    81    87    88    1
    82   125   123    1
    83   124   123    1
    84    67    68   ar
    85    67    69   ar
    86   107   105   ar
    87   107   109   ar
    88    68    70   ar
    89    88    90    1
    90    88    89    1
    91   110   109    1
    92   105   104   ar
    93   123   120    1
    94    69    71   ar
    95   109   108   ar
    96   120   119    1
    97   120   121    1
    98    70    72   ar
    99   122   121    2
   100   104   103    1
   101   104   106   ar
   102    71    72   ar
   103   134   132   am
   104   108   106   ar
   105   121   126   am
   106   103   100    1
   107   100    99    1
   108   100   101    1
   109   102   101    2
   110   132   133    2
   111   132   131    1
   112   126   127    1
   113   101   111   am
   114   131   130    1
   115   127   130    1
   116   127   128    1
   117   111   112    1
   118   135   128   am
   119   135   136    1
   120   128   129    2
   121   112   113    1
   122   112   115    1
   123    23    22    2
   124   113   114    2
   125   139   136    1
   126   117   118    1
   127   117   116    1
   128    37    35    1
   129   136   137    1
   130    36    35    1
   131    22    21    1
   132    22    31   am
   133   116   115    1
   134    24    21    1
   135    24    25    1
   136    35    32    1
   137    21    20    1
   138    26    25    1
   139    26    27    1
   140    32    31    1
   141    32    33    1
   142    27    28    2
   143   137   140   am
   144   137   138    2
   145    18    17    1
   146   140   141    1
   147    33    34    2
   148   148   146   ar
   149   148   149   ar
   150   146   145   ar
   151    28    29    1
   152    28    30    1
   153   149   151   ar
   154   149   147   ar
   155   145   144    1
   156   145   147   ar
   157   143   142    2
   158    17    16    1
   159    17    19    1
   160   141   144    1
   161   141   142    1
   162    16    13    1
   163   151   153   ar
   164   147   150   ar
   165    15    14    2
   166   153   152   ar
   167     5     6    1
   168     5     2    1
   169     6     7   ar
   170     6     8   ar
   171     7     9   ar
   172     8    10   ar
   173     9    11   ar
   174   150   152   ar
   175    10    11   ar
   176    12    13    1
   177    12     3   am
   178    13    14    1
   179     2     3    1
   180     2     1    1
   181     3     4    2
   182   161   160    2
   183   158   155    1
   184   158   159    1
   185   160   162   am
   186   160   159    1
   187   156   157    2
   188   156   155    1
   189   155   154    1
   190   163   164    1
   191   165   164    1
   192   165   166    2
   193   164   167    1
   194   170   169    2
   195   167   168    1
   196   169   168    1
   197   169   171   am
