@<TRIPOS>MOLECULE
tmp/6g85B00.pdb
 103 98 0 0 0
SMALL
GASTEIGER

@<TRIPOS>ATOM
      1  N         46.0370   60.6230   23.5350 N.3    41  PHE41      -0.1241
      2  CA        45.2620   61.8800   23.3540 C.3    41  PHE41       0.1605
      3  C         45.1850   62.6830   24.6550 C.2    41  PHE41       0.2264
      4  O         45.3940   63.9020   24.6600 O.2    41  PHE41      -0.2867
      5  CB        43.8280   61.5580   22.8720 C.3    41  PHE41       0.0534
      6  CG        43.7840   61.0670   21.4400 C.ar   41  PHE41      -0.0203
      7  CD1       43.8140   59.7170   21.1570 C.ar   41  PHE41      -0.0042
      8  CD2       43.7830   61.9830   20.4020 C.ar   41  PHE41      -0.0042
      9  CE1       43.8410   59.2620   19.8330 C.ar   41  PHE41      -0.0003
     10  CE2       43.7880   61.5590   19.0700 C.ar   41  PHE41      -0.0003
     11  CZ        43.8070   60.1960   18.7870 C.ar   41  PHE41      -0.0000
     12  N         39.6120   58.3500   25.6870 N.3   124  ALA124     -0.1231
     13  CA        40.5110   59.4550   25.3190 C.3   124  ALA124      0.1694
     14  C         39.9670   60.8610   25.6300 C.2   124  ALA124      0.2593
     15  O         40.6210   61.8530   25.2990 O.2   124  ALA124     -0.2718
     16  CB        40.8730   59.3480   23.8170 C.3   124  ALA124      0.0304
     17  N         38.8270   60.9960   26.3200 N.am  125  GLY125     -0.1942
     18  CA        38.2810   62.3120   26.5950 C.3   125  GLY125      0.2014
     19  C         38.7820   62.9740   27.8920 C.2   125  GLY125      0.2638
     20  O         39.6160   62.4250   28.6240 O.2   125  GLY125     -0.2714
     21  N         38.1900   64.1420   28.2130 N.am  126  TYR126     -0.1973
     22  CA        38.7310   65.0280   29.2620 C.3   126  TYR126      0.1639
     23  C         37.9880   64.9860   30.5890 C.2   126  TYR126      0.2290
     24  O         38.2860   65.8040   31.4620 O.2   126  TYR126     -0.2864
     25  CB        38.8000   66.4890   28.7710 C.3   126  TYR126      0.0560
     26  CG        39.8910   66.6070   27.7530 C.ar  126  TYR126     -0.0198
     27  CD1       39.6550   66.3190   26.4290 C.ar  126  TYR126     -0.0009
     28  CD2       41.2060   66.9000   28.1470 C.ar  126  TYR126     -0.0009
     29  CE1       40.6820   66.3620   25.5050 C.ar  126  TYR126      0.0417
     30  CE2       42.2290   66.9280   27.2330 C.ar  126  TYR126      0.0417
     31  CZ        41.9620   66.6660   25.9160 C.ar  126  TYR126      0.1957
     32  OH        42.9780   66.7070   24.9850 O.3   126  TYR126     -0.2866
     33  N         29.2230   68.6540   19.7340 N.3   239  ASP239     -0.1225
     34  CA        30.4360   67.9990   20.2260 C.3   239  ASP239      0.1805
     35  C         30.2330   67.5390   21.6780 C.2   239  ASP239      0.2598
     36  O         29.7230   68.2960   22.5150 O.2   239  ASP239     -0.2718
     37  CB        31.6350   68.9620   20.1200 C.3   239  ASP239      0.1424
     38  CG        33.0180   68.2350   20.1350 C.2   239  ASP239      0.3668
     39  OD1       34.0600   68.9300   20.0450 O.co2 239  ASP239     -0.2456
     40  OD2       33.0760   66.9890   20.2140 O.co2 239  ASP239     -0.2456
     41  N         30.6140   66.2870   21.9580 N.am  240  GLY240     -0.1957
     42  CA        30.5640   65.6980   23.2960 C.3   240  GLY240      0.1869
     43  C         29.2000   65.2180   23.7630 C.2   240  GLY240      0.2309
     44  O         29.0400   64.9070   24.9550 O.2   240  GLY240     -0.2863
     45  N         33.6620   63.8760   12.2030 N.3   269  CYS269     -0.1221
     46  CA        33.2130   64.9670   13.0790 C.3   269  CYS269      0.1808
     47  C         34.3690   65.9370   13.1670 C.2   269  CYS269      0.2601
     48  O         35.0180   66.1760   12.1420 O.2   269  CYS269     -0.2717
     49  CB        32.7460   64.4580   14.4420 C.3   269  CYS269      0.0970
     50  SG        33.7630   63.0800   15.0970 S.3   269  CYS269     -0.0800
     51  N         34.6530   66.5560   14.3240 N.am  270  LYS270     -0.1965
     52  CA        35.8330   67.4140   14.3600 C.3   270  LYS270      0.1728
     53  C         37.0920   66.5570   14.2730 C.2   270  LYS270      0.2616
     54  O         37.9360   66.7530   13.3850 O.2   270  LYS270     -0.2715
     55  CB        35.8330   68.2860   15.6210 C.3   270  LYS270      0.0311
     56  CG        37.0380   69.2500   15.7320 C.3   270  LYS270      0.0038
     57  CD        37.1330   70.2120   14.5500 C.3   270  LYS270      0.0206
     58  CE        38.4050   71.0920   14.6280 C.3   270  LYS270      0.1093
     59  NZ        38.5110   71.8530   15.9210 N.3   270  LYS270     -0.1314
     60  N         37.1980   65.5490   15.1460 N.am  271  ALA271     -0.1977
     61  CA        38.3880   64.6890   15.1920 C.3   271  ALA271      0.1597
     62  C         38.1920   63.3220   14.5180 C.2   271  ALA271      0.2287
     63  O         39.1700   62.5490   14.4150 O.2   271  ALA271     -0.2864
     64  CB        38.8450   64.4800   16.6600 C.3   271  ALA271      0.0319
     65  N         36.4900   60.8590   16.0130 N.3   273  LEU273     -0.1231
     66  CA        36.6160   59.9010   17.1310 C.3   273  LEU273      0.1693
     67  C         35.3000   59.6590   17.8900 C.2   273  LEU273      0.2593
     68  O         34.7870   58.5150   17.9470 O.2   273  LEU273     -0.2718
     69  CB        37.7060   60.4110   18.0990 C.3   273  LEU273      0.0284
     70  CG        39.1800   60.4290   17.6180 C.3   273  LEU273      0.0019
     71  CD1       40.1310   61.0680   18.7110 C.3   273  LEU273      0.0001
     72  CD2       39.7000   59.0130   17.1780 C.3   273  LEU273      0.0001
     73  N         34.7100   60.7070   18.5080 N.am  274  GLY274     -0.1942
     74  CA        33.6250   60.4240   19.4350 C.3   274  GLY274      0.2014
     75  C         32.2710   60.3130   18.7390 C.2   274  GLY274      0.2638
     76  O         31.6530   59.2450   18.7100 O.2   274  GLY274     -0.2714
     77  N         31.8110   61.4280   18.2140 N.am  275  ARG275     -0.1977
     78  CA        30.5680   61.4040   17.4520 C.3   275  ARG275      0.1597
     79  C         30.6030   60.3450   16.3330 C.2   275  ARG275      0.2287
     80  O         29.6430   59.5760   16.1580 O.2   275  ARG275     -0.2864
     81  CB        30.3170   62.7990   16.8880 C.3   275  ARG275      0.0334
     82  CG        29.8720   63.7910   17.9990 C.3   275  ARG275      0.0492
     83  CD        29.6840   65.2310   17.4870 C.3   275  ARG275      0.2205
     84  NE        30.9840   65.8600   17.3240 N.pl3 275  ARG275     -0.0865
     85  CZ        31.1830   67.1290   16.9370 C.cat 275  ARG275      0.5346
     86  NH1       30.1560   67.9310   16.6620 N.pl3 275  ARG275      0.1354
     87  NH2       32.4310   67.6000   16.8360 N.pl3 275  ARG275      0.1354
     88  N         33.9030   58.4600   22.9670 N.3   308  VAL308     -0.1245
     89  CA        34.5000   59.3170   24.0080 C.3   308  VAL308      0.1561
     90  C         33.5030   59.5530   25.1550 C.2   308  VAL308      0.2260
     91  O         32.3310   59.8840   24.9310 O.2   308  VAL308     -0.2867
     92  CB        34.9720   60.6500   23.3930 C.3   308  VAL308      0.0252
     93  CG1       35.4980   61.6330   24.5250 C.3   308  VAL308      0.0019
     94  CG2       36.0750   60.3870   22.3640 C.3   308  VAL308      0.0019
     95  N         29.5190   58.8000   25.6320 N.3   311  GLN311     -0.1245
     96  CA        29.1510   57.9890   24.4700 C.3   311  GLN311      0.1566
     97  C         29.3530   56.4860   24.7130 C.2   311  GLN311      0.2260
     98  O         28.6720   55.6590   24.0800 O.2   311  GLN311     -0.2867
     99  CB        29.9670   58.4590   23.2500 C.3   311  GLN311      0.0367
    100  CG        29.6740   59.9150   22.8710 C.3   311  GLN311      0.0905
    101  CD        30.7190   60.5570   21.9630 C.2   311  GLN311      0.2608
    102  OE1       31.7310   59.9420   21.6030 O.2   311  GLN311     -0.2717
    103  NE2       30.3980   61.7800   21.4540 N.am  311  GLN311     -0.0878
@<TRIPOS>BOND
     1    48    47    2
     2    45    46    1
     3    46    47    1
     4    46    49    1
     5    47    51   am
     6    54    53    2
     7    53    52    1
     8    53    60   am
     9    51    52    1
    10    52    55    1
    11    63    62    2
    12    49    50    1
    13    62    61    1
    14    57    58    1
    15    57    56    1
    16    58    59    1
    17    60    61    1
    18    61    64    1
    19    55    56    1
    20    65    66    1
    21    80    79    2
    22    79    78    1
    23    86    85    1
    24    87    85    1
    25    81    78    1
    26    81    82    1
    27    85    84    2
    28    66    67    1
    29    66    69    1
    30    72    70    1
    31    84    83    1
    32    78    77    1
    33    83    82    1
    34    70    69    1
    35    70    71    1
    36    67    68    2
    37    67    73   am
    38    77    75   am
    39    73    74    1
    40    76    75    2
    41    75    74    1
    42    11    10   ar
    43    11     9   ar
    44    10     8   ar
    45    33    34    1
    46     9     7   ar
    47    39    38   ar
    48    37    38    1
    49    37    34    1
    50    38    40   ar
    51    34    35    1
    52     8     6   ar
    53     7     6   ar
    54     6     5    1
    55   103   101   am
    56   102   101    2
    57    35    41   am
    58    35    36    2
    59    41    42    1
    60   101   100    1
    61    94    92    1
    62   100    99    1
    63     5     2    1
    64    88    89    1
    65    99    96    1
    66    42    43    1
    67     2     1    1
    68     2     3    1
    69    92    89    1
    70    92    93    1
    71    43    44    2
    72    16    13    1
    73    89    90    1
    74    98    97    2
    75    96    97    1
    76    96    95    1
    77     3     4    2
    78    91    90    2
    79    32    31    1
    80    15    14    2
    81    13    14    1
    82    13    12    1
    83    29    31   ar
    84    29    27   ar
    85    14    17   am
    86    31    30   ar
    87    17    18    1
    88    27    26   ar
    89    18    19    1
    90    30    28   ar
    91    26    28   ar
    92    26    25    1
    93    19    21   am
    94    19    20    2
    95    21    22    1
    96    25    22    1
    97    22    23    1
    98    23    24    2
