@<TRIPOS>MOLECULE
tmp/6g85A00.pdb
 155 152 0 0 0
SMALL
GASTEIGER

@<TRIPOS>ATOM
      1  N         31.2950   60.1830   48.6700 N.3    13  LEU13      -0.1245
      2  CA        30.5620   61.4220   48.9360 C.3    13  LEU13       0.1561
      3  C         31.4560   62.3320   49.7680 C.2    13  LEU13       0.2260
      4  O         31.8930   61.9310   50.8580 O.2    13  LEU13      -0.2867
      5  CB        29.2270   61.1750   49.6810 C.3    13  LEU13       0.0270
      6  CG        28.0780   60.5290   48.8790 C.3    13  LEU13       0.0019
      7  CD1       26.9040   60.0100   49.7840 C.3    13  LEU13       0.0001
      8  CD2       27.5250   61.4860   47.7570 C.3    13  LEU13       0.0001
      9  N         31.7660   62.5840   53.7150 N.3    16  ARG16      -0.1231
     10  CA        30.7600   61.7050   54.3090 C.3    16  ARG16       0.1694
     11  C         31.0440   60.2040   54.1340 C.2    16  ARG16       0.2591
     12  O         30.8380   59.4170   55.0730 O.2    16  ARG16      -0.2718
     13  CB        29.3770   62.0380   53.7230 C.3    16  ARG16       0.0321
     14  CG        28.1860   61.3240   54.4080 C.3    16  ARG16       0.0489
     15  CD        27.4570   62.2150   55.4480 C.3    16  ARG16       0.2205
     16  NE        26.5120   61.4670   56.2880 N.pl3  16  ARG16      -0.0865
     17  CZ        25.1850   61.5820   56.2460 C.cat  16  ARG16       0.5346
     18  NH1       24.4280   60.8450   57.0450 N.pl3  16  ARG16       0.1354
     19  NH2       24.6070   62.4310   55.4160 N.pl3  16  ARG16       0.1354
     20  N         31.4260   59.7670   52.9170 N.am   17  VAL17      -0.1980
     21  CA        31.5930   58.3210   52.6430 C.3    17  VAL17       0.1595
     22  C         32.8790   58.0910   51.8510 C.2    17  VAL17       0.2287
     23  O         33.0180   58.6110   50.7310 O.2    17  VAL17      -0.2864
     24  CB        30.3860   57.6980   51.8820 C.3    17  VAL17       0.0276
     25  CG1       30.5930   56.1860   51.5890 C.3    17  VAL17       0.0022
     26  CG2       29.0460   57.9160   52.6830 C.3    17  VAL17       0.0022
     27  N         22.7700   42.8820   52.6080 N.3    59  TYR59      -0.1241
     28  CA        21.7860   43.3050   53.6000 C.3    59  TYR59       0.1605
     29  C         22.4230   43.4870   54.9780 C.2    59  TYR59       0.2264
     30  O         22.1350   44.4820   55.6670 O.2    59  TYR59      -0.2867
     31  CB        20.6440   42.2830   53.6440 C.3    59  TYR59       0.0534
     32  CG        19.5310   42.5760   54.6150 C.ar   59  TYR59      -0.0201
     33  CD1       19.6300   42.1710   55.9480 C.ar   59  TYR59      -0.0009
     34  CD2       18.3800   43.2120   54.1740 C.ar   59  TYR59      -0.0009
     35  CE1       18.6090   42.4740   56.8600 C.ar   59  TYR59       0.0417
     36  CE2       17.3250   43.5020   55.0970 C.ar   59  TYR59       0.0417
     37  CZ        17.4630   43.1190   56.3990 C.ar   59  TYR59       0.1957
     38  OH        16.4190   43.3870   57.2970 O.3    59  TYR59      -0.2866
     39  N         24.4510   46.6810   55.0420 N.3    62  ALA62      -0.1231
     40  CA        23.5910   47.8610   55.1370 C.3    62  ALA62       0.1694
     41  C         23.1760   48.1610   56.5930 C.2    62  ALA62       0.2591
     42  O         23.1690   49.3320   57.0400 O.2    62  ALA62      -0.2718
     43  CB        22.3490   47.6360   54.2670 C.3    62  ALA62       0.0304
     44  N         22.8090   47.1020   57.3600 N.am   63  VAL63      -0.1980
     45  CA        22.4500   47.2920   58.7850 C.3    63  VAL63       0.1595
     46  C         23.6150   47.9230   59.5720 C.2    63  VAL63       0.2287
     47  O         23.4270   48.8770   60.3440 O.2    63  VAL63      -0.2864
     48  CB        22.0060   45.9430   59.4190 C.3    63  VAL63       0.0276
     49  CG1       21.8140   46.0700   61.0010 C.3    63  VAL63       0.0022
     50  CG2       20.7210   45.3960   58.7780 C.3    63  VAL63       0.0022
     51  N         26.3900   49.5780   58.3840 N.3    65  PHE65      -0.1227
     52  CA        26.6460   50.9220   57.8490 C.3    65  PHE65       0.1736
     53  C         25.6670   51.9540   58.4080 C.2    65  PHE65       0.2595
     54  O         26.0770   53.0660   58.7950 O.2    65  PHE65      -0.2718
     55  CB        26.5470   50.8450   56.3200 C.3    65  PHE65       0.0547
     56  CG        27.0850   52.0490   55.5370 C.ar   65  PHE65      -0.0202
     57  CD1       28.0580   52.9020   56.0400 C.ar   65  PHE65      -0.0042
     58  CD2       26.5740   52.2990   54.2670 C.ar   65  PHE65      -0.0042
     59  CE1       28.5670   53.9810   55.2510 C.ar   65  PHE65      -0.0003
     60  CE2       27.0750   53.3980   53.4680 C.ar   65  PHE65      -0.0003
     61  CZ        28.0570   54.2280   53.9870 C.ar   65  PHE65      -0.0000
     62  N         24.3490   51.6480   58.3650 N.am   66  HIS66      -0.1975
     63  CA        23.3410   52.5390   58.9490 C.3    66  HIS66       0.1656
     64  C         23.5280   52.7600   60.4530 C.2    66  HIS66       0.2291
     65  O         23.2900   53.8640   60.9340 O.2    66  HIS66      -0.2864
     66  CB        21.9170   52.0150   58.6910 C.3    66  HIS66       0.0771
     67  CG        21.5250   51.9980   57.2460 C.ar   66  HIS66       0.0820
     68  ND1       20.3410   51.4380   56.8110 N.ar   66  HIS66      -0.2267
     69  CD2       22.1370   52.5000   56.1430 C.ar   66  HIS66       0.1154
     70  CE1       20.2850   51.5210   55.4880 C.ar   66  HIS66       0.1986
     71  NE2       21.3540   52.1710   55.0600 N.ar   66  HIS66      -0.2212
     72  N         26.4160   55.2840   60.6920 N.3    69  LEU69      -0.1231
     73  CA        25.9840   56.5880   60.1750 C.3    69  LEU69       0.1693
     74  C         25.0070   57.2880   61.1170 C.2    69  LEU69       0.2592
     75  O         25.0360   58.5190   61.2440 O.2    69  LEU69      -0.2718
     76  CB        25.3180   56.4120   58.8090 C.3    69  LEU69       0.0284
     77  CG        25.7260   56.7130   57.3580 C.3    69  LEU69       0.0019
     78  CD1       27.0550   57.3850   57.1020 C.3    69  LEU69       0.0001
     79  CD2       25.3800   55.5790   56.3670 C.3    69  LEU69       0.0001
     80  N         24.1120   56.5310   61.7830 N.am   70  ASN70      -0.1974
     81  CA        23.0700   57.1030   62.6220 C.3    70  ASN70       0.1688
     82  C         23.5270   57.3280   64.0580 C.2    70  ASN70       0.2292
     83  O         22.7640   57.8940   64.8620 O.2    70  ASN70      -0.2864
     84  CB        21.8170   56.2000   62.6200 C.3    70  ASN70       0.1181
     85  CG        21.0510   56.2730   61.3060 C.2    70  ASN70       0.2629
     86  OD1       21.0430   57.3150   60.6350 O.2    70  ASN70      -0.2716
     87  ND2       20.4460   55.1590   60.9020 N.am   70  ASN70      -0.0877
     88  N         25.2710   48.5170   47.3170 N.3   100  TYR100     -0.1227
     89  CA        24.5300   49.2620   48.3330 C.3   100  TYR100      0.1736
     90  C         23.9840   50.5780   47.7500 C.2   100  TYR100      0.2595
     91  O         22.7820   50.8840   47.8680 O.2   100  TYR100     -0.2718
     92  CB        25.4270   49.5200   49.5810 C.3   100  TYR100      0.0548
     93  CG        24.7460   50.5020   50.5350 C.ar  100  TYR100     -0.0200
     94  CD1       23.8760   50.0590   51.5360 C.ar  100  TYR100     -0.0009
     95  CD2       24.9220   51.9090   50.3800 C.ar  100  TYR100     -0.0009
     96  CE1       23.2220   50.9540   52.3520 C.ar  100  TYR100      0.0417
     97  CE2       24.2720   52.8010   51.1550 C.ar  100  TYR100      0.0417
     98  CZ        23.4000   52.3400   52.1460 C.ar  100  TYR100      0.1957
     99  OH        22.7300   53.2200   52.9020 O.3   100  TYR100     -0.2866
    100  N         24.8500   51.3350   47.0540 N.am  101  MET101     -0.1979
    101  CA        24.4050   52.6220   46.4800 C.3   101  MET101      0.1605
    102  C         23.3020   52.4340   45.4240 C.2   101  MET101      0.2287
    103  O         22.3350   53.2430   45.3810 O.2   101  MET101     -0.2864
    104  CB        25.6070   53.4030   45.8970 C.3   101  MET101      0.0413
    105  CG        26.5890   53.9620   46.9720 C.3   101  MET101      0.0598
    106  SD        25.8430   54.9990   48.2610 S.3   101  MET101     -0.1393
    107  CE        27.3210   55.5980   49.1090 C.3   101  MET101      0.0692
    108  N         19.9510   50.7820   47.6500 N.3   104  VAL104     -0.1231
    109  CA        19.4070   51.5190   48.7790 C.3   104  VAL104      0.1692
    110  C         19.3260   53.0250   48.5180 C.2   104  VAL104      0.2591
    111  O         18.4390   53.6960   49.0780 O.2   104  VAL104     -0.2718
    112  CB        20.2210   51.2180   50.0720 C.3   104  VAL104      0.0266
    113  CG1       19.6620   52.0080   51.3150 C.3   104  VAL104      0.0020
    114  CG2       20.2410   49.7080   50.3350 C.3   104  VAL104      0.0020
    115  N         20.2250   53.5860   47.6900 N.am  105  GLN105     -0.1979
    116  CA        20.3050   55.0330   47.5270 C.3   105  GLN105      0.1601
    117  C         19.9790   55.5120   46.0930 C.2   105  GLN105      0.2287
    118  O         20.1610   56.7240   45.8080 O.2   105  GLN105     -0.2864
    119  CB        21.6840   55.5670   47.9660 C.3   105  GLN105      0.0394
    120  CG        22.0280   55.2360   49.4430 C.3   105  GLN105      0.0908
    121  CD        21.2430   56.0690   50.4500 C.2   105  GLN105      0.2608
    122  OE1       20.6810   57.1350   50.1200 O.2   105  GLN105     -0.2717
    123  NE2       21.2450   55.6360   51.7190 N.am  105  GLN105     -0.0878
    124  N         21.4320   55.2600   43.2050 N.3   107  TRP107     -0.1241
    125  CA        22.4670   55.7140   42.2640 C.3   107  TRP107      0.1605
    126  C         22.3950   54.9190   40.9620 C.2   107  TRP107      0.2264
    127  O         21.9090   53.7870   40.9390 O.2   107  TRP107     -0.2867
    128  CB        23.9020   55.5380   42.8480 C.3   107  TRP107      0.0550
    129  CG        24.3020   56.4310   44.0430 C.ar  107  TRP107      0.0003
    130  CD1       23.5040   56.8870   45.0870 C.ar  107  TRP107      0.0946
    131  CD2       25.6360   56.9290   44.3050 C.ar  107  TRP107      0.0152
    132  NE1       24.2810   57.6620   45.9700 N.ar  107  TRP107     -0.2442
    133  CE2       25.5890   57.6670   45.5210 C.ar  107  TRP107      0.0810
    134  CE3       26.8810   56.7560   43.6510 C.ar  107  TRP107      0.0012
    135  CZ2       26.7310   58.3010   46.0680 C.ar  107  TRP107      0.0191
    136  CZ3       28.0120   57.3830   44.1890 C.ar  107  TRP107      0.0001
    137  CH2       27.9320   58.1310   45.4080 C.ar  107  TRP107      0.0015
    138  N         14.7530   45.0580   48.1270 N.3   158  LEU158     -0.1231
    139  CA        15.3090   44.9520   49.4710 C.3   158  LEU158      0.1693
    140  C         14.2870   45.2970   50.5440 C.2   158  LEU158      0.2592
    141  O         14.4340   44.8420   51.6860 O.2   158  LEU158     -0.2718
    142  CB        16.5470   45.8420   49.6260 C.3   158  LEU158      0.0284
    143  CG        17.9410   45.3210   49.3190 C.3   158  LEU158      0.0019
    144  CD1       19.0720   46.1900   49.9210 C.3   158  LEU158      0.0001
    145  CD2       18.1600   43.8550   49.7730 C.3   158  LEU158      0.0001
    146  N         13.2330   46.0520   50.2050 N.am  159  HIS159     -0.1976
    147  CA        12.2400   46.3800   51.2210 C.3   159  HIS159      0.1656
    148  C         11.5040   45.1440   51.7120 C.2   159  HIS159      0.2291
    149  O         11.0470   45.1200   52.8590 O.2   159  HIS159     -0.2864
    150  CB        11.2280   47.4070   50.7030 C.3   159  HIS159      0.0771
    151  CG        10.1610   47.7480   51.6990 C.ar  159  HIS159      0.0820
    152  ND1       10.3980   48.5400   52.8040 N.ar  159  HIS159     -0.2267
    153  CD2        8.8590   47.3860   51.7700 C.ar  159  HIS159      0.1154
    154  CE1        9.2870   48.6560   53.5070 C.ar  159  HIS159      0.1986
    155  NE2        8.3360   47.9680   52.9000 N.ar  159  HIS159     -0.2212
@<TRIPOS>BOND
     1   127   126    2
     2   126   125    1
     3   125   128    1
     4   125   124    1
     5   128   129    1
     6   134   136   ar
     7   134   131   ar
     8   129   131   ar
     9   129   130   ar
    10   136   137   ar
    11   131   133   ar
    12   130   132   ar
    13   103   102    2
    14   137   135   ar
    15   102   101    1
    16   133   132   ar
    17   133   135   ar
    18   118   117    2
    19   104   101    1
    20   104   105    1
    21   117   116    1
    22   101   100    1
    23   105   106    1
    24   100    90   am
    25    88    89    1
    26   116   115    1
    27   116   119    1
    28   108   109    1
    29   115   110   am
    30    90    91    2
    31    90    89    1
    32     8     6    1
    33   119   120    1
    34   138   139    1
    35   106   107    1
    36    89    92    1
    37   110   109    1
    38   110   111    2
    39     1     2    1
    40   109   112    1
    41     6     5    1
    42     6     7    1
    43     2     5    1
    44     2     3    1
    45   143   142    1
    46   143   145    1
    47   143   144    1
    48   120   121    1
    49   139   142    1
    50   139   140    1
    51    92    93    1
    52     3     4    2
    53   112   114    1
    54   112   113    1
    55   122   121    2
    56   146   140   am
    57   146   147    1
    58    95    93   ar
    59    95    97   ar
    60   121   123   am
    61    93    94   ar
    62   140   141    2
    63   150   147    1
    64   150   151    1
    65    23    22    2
    66    97    98   ar
    67   147   148    1
    68    94    96   ar
    69    25    24    1
    70   151   153   ar
    71   151   152   ar
    72   148   149    2
    73   153   155   ar
    74    22    21    1
    75    24    21    1
    76    24    26    1
    77    98    96   ar
    78    98    99    1
    79    27    28    1
    80    21    20    1
    81   152   154   ar
    82   155   154   ar
    83    20    11   am
    84    60    61   ar
    85    60    58   ar
    86    28    31    1
    87    28    29    1
    88    31    32    1
    89     9    10    1
    90    13    10    1
    91    13    14    1
    92    61    59   ar
    93    11    10    1
    94    11    12    2
    95    34    32   ar
    96    34    36   ar
    97    43    40    1
    98    58    56   ar
    99    14    15    1
   100    32    33   ar
   101    29    30    2
   102    39    40    1
   103    71    70   ar
   104    71    69   ar
   105    36    37   ar
   106    40    41    1
   107    59    57   ar
   108    19    17    1
   109    15    16    1
   110    70    68   ar
   111    56    57   ar
   112    56    55    1
   113    33    35   ar
   114    69    67   ar
   115    17    16    2
   116    17    18    1
   117    55    52    1
   118    79    77    1
   119    37    35   ar
   120    37    38    1
   121    41    42    2
   122    41    44   am
   123    68    67   ar
   124    78    77    1
   125    67    66    1
   126    77    76    1
   127    44    45    1
   128    52    51    1
   129    52    53    1
   130    62    53   am
   131    62    63    1
   132    53    54    2
   133    66    63    1
   134    50    48    1
   135    45    48    1
   136    45    46    1
   137    76    73    1
   138    63    64    1
   139    48    49    1
   140    46    47    2
   141    73    72    1
   142    73    74    1
   143    64    65    2
   144    86    85    2
   145    87    85   am
   146    74    75    2
   147    74    80   am
   148    85    84    1
   149    80    81    1
   150    84    81    1
   151    81    82    1
   152    82    83    2
