@<TRIPOS>MOLECULE
tmp/6g86A04.pdb
 82 80 0 0 0
SMALL
GASTEIGER

@<TRIPOS>ATOM
      1  N         11.8690   43.6760   38.0770 N.3   149  GLY149     -0.1210
      2  CA        11.0800   43.1720   39.1860 C.3   149  GLY149      0.1956
      3  C         11.5010   41.8260   39.7090 C.2   149  GLY149      0.2612
      4  O         10.7300   41.1770   40.4090 O.2   149  GLY149     -0.2717
      5  N         12.7030   41.3720   39.3930 N.am  150  LEU150     -0.1965
      6  CA        13.1230   40.0410   39.8180 C.3   150  LEU150      0.1728
      7  C         13.8220   40.0420   41.1780 C.2   150  LEU150      0.2616
      8  O         13.9400   38.9760   41.8040 O.2   150  LEU150     -0.2715
      9  CB        14.0650   39.4190   38.7670 C.3   150  LEU150      0.0311
     10  CG        13.5630   39.4290   37.3160 C.3   150  LEU150      0.0022
     11  CD1       14.5990   38.8430   36.3480 C.3   150  LEU150      0.0001
     12  CD2       12.2500   38.6370   37.1820 C.3   150  LEU150      0.0001
     13  N         14.2850   41.2000   41.6360 N.am  151  ILE151     -0.1963
     14  CA        14.8930   41.3790   42.9550 C.3   151  ILE151      0.1727
     15  C         14.0900   42.4350   43.6860 C.2   151  ILE151      0.2616
     16  O         13.8020   43.4920   43.1190 O.2   151  ILE151     -0.2715
     17  CB        16.3620   41.8330   42.8700 C.3   151  ILE151      0.0290
     18  CG1       17.2270   40.7870   42.1850 C.3   151  ILE151      0.0022
     19  CG2       16.9000   42.1640   44.2950 C.3   151  ILE151      0.0023
     20  CD1       18.6330   41.3200   41.8740 C.3   151  ILE151      0.0001
     21  N         13.7430   42.1690   44.9390 N.am  152  ASP152     -0.1971
     22  CA        13.0040   43.1770   45.7110 C.3   152  ASP152      0.1709
     23  C         13.4470   43.0740   47.1680 C.2   152  ASP152      0.2293
     24  O         12.9910   42.1900   47.8910 O.2   152  ASP152     -0.2864
     25  CB        11.5040   42.9750   45.5710 C.3   152  ASP152      0.1436
     26  CG        10.7170   43.9470   46.4130 C.2   152  ASP152      0.3671
     27  OD1       11.1890   45.0920   46.5920 O.co2 152  ASP152     -0.2456
     28  OD2        9.6350   43.5630   46.8970 O.co2 152  ASP152     -0.2456
     29  N         10.7250   42.9310   50.1630 N.3   155  SER155     -0.1202
     30  CA        10.0800   41.6890   50.5380 C.3   155  SER155      0.2020
     31  C         11.0670   40.5620   50.7940 C.2   155  SER155      0.2618
     32  O         10.6360   39.4560   51.1160 O.2   155  SER155     -0.2717
     33  CB         9.0910   41.2680   49.4510 C.3   155  SER155      0.2103
     34  OG         9.7020   41.3330   48.1710 O.3   155  SER155     -0.2182
     35  N         12.3720   40.8090   50.6550 N.am  156  PHE156     -0.1975
     36  CA        13.3520   39.7300   50.7480 C.3   156  PHE156      0.1639
     37  C         13.3790   39.1370   52.1560 C.2   156  PHE156      0.2290
     38  O         13.4250   39.8590   53.1610 O.2   156  PHE156     -0.2864
     39  CB        14.7350   40.2440   50.3400 C.3   156  PHE156      0.0560
     40  CG        15.8370   39.2430   50.5200 C.ar  156  PHE156     -0.0200
     41  CD1       16.0390   38.2220   49.5970 C.ar  156  PHE156     -0.0042
     42  CD2       16.6800   39.3340   51.6100 C.ar  156  PHE156     -0.0042
     43  CE1       17.0790   37.2950   49.7820 C.ar  156  PHE156     -0.0003
     44  CE2       17.7090   38.4330   51.8030 C.ar  156  PHE156     -0.0003
     45  CZ        17.9260   37.4130   50.8850 C.ar  156  PHE156     -0.0000
     46  N         14.9440   30.1730   45.5630 N.3   174  VAL174     -0.1231
     47  CA        14.0130   30.8640   44.6800 C.3   174  VAL174      0.1692
     48  C         14.8070   31.9150   43.9140 C.2   174  VAL174      0.2592
     49  O         15.3440   32.8570   44.5060 O.2   174  VAL174     -0.2718
     50  CB        12.8780   31.5200   45.4940 C.3   174  VAL174      0.0266
     51  CG1       11.8610   32.1810   44.5460 C.3   174  VAL174      0.0020
     52  CG2       12.1990   30.4890   46.3840 C.3   174  VAL174      0.0020
     53  N         14.8940   31.7670   42.5950 N.am  175  LEU175     -0.1966
     54  CA        15.6990   32.7120   41.8200 C.3   175  LEU175      0.1728
     55  C         14.9120   33.9470   41.3990 C.2   175  LEU175      0.2617
     56  O         15.4540   35.0680   41.3990 O.2   175  LEU175     -0.2715
     57  CB        16.2460   32.0190   40.5520 C.3   175  LEU175      0.0311
     58  CG        17.1680   30.8240   40.7980 C.3   175  LEU175      0.0022
     59  CD1       17.5470   30.1920   39.4440 C.3   175  LEU175      0.0001
     60  CD2       18.4050   31.2220   41.5980 C.3   175  LEU175      0.0001
     61  N         13.6680   33.7400   40.9790 N.am  176  THR176     -0.1937
     62  CA        12.7840   34.7790   40.4670 C.3   176  THR176      0.2013
     63  C         11.3730   34.3880   40.8660 C.2   176  THR176      0.2484
     64  O         11.1510   33.2900   41.3880 O.2   176  THR176     -0.2729
     65  CB        12.8790   34.9060   38.9360 C.3   176  THR176      0.1807
     66  OG1       12.2300   33.7830   38.3310 O.3   176  THR176     -0.2208
     67  CG2       14.3320   34.9980   38.4220 C.3   176  THR176      0.0379
     68  N         10.3780   35.2310   40.5940 N.am  177  PRO177     -0.2726
     69  CA         8.9960   34.7950   40.8650 C.3   177  PRO177      0.1402
     70  C          8.5890   33.5700   40.0680 C.2   177  PRO177      0.2269
     71  O          7.5900   32.9300   40.4210 O.2   177  PRO177     -0.2865
     72  CB         8.1560   36.0170   40.4720 C.3   177  PRO177      0.0296
     73  CG         9.0800   37.1820   40.6710 C.3   177  PRO177      0.0237
     74  CD        10.4390   36.6640   40.2520 C.3   177  PRO177      0.0939
     75  N         22.1890   35.3590   43.2570 N.3   303  ILE303     -0.1245
     76  CA        21.1620   34.6820   44.0630 C.3   303  ILE303      0.1561
     77  C         21.6460   33.3170   44.5430 C.2   303  ILE303      0.2260
     78  O         21.4140   32.9350   45.7050 O.2   303  ILE303     -0.2867
     79  CB        19.8470   34.5350   43.2710 C.3   303  ILE303      0.0252
     80  CG1       19.3960   35.8820   42.6730 C.3   303  ILE303      0.0019
     81  CG2       18.7360   33.9570   44.2050 C.3   303  ILE303      0.0019
     82  CD1       19.2010   36.9990   43.7580 C.3   303  ILE303      0.0001
@<TRIPOS>BOND
     1    11    10    1
     2    12    10    1
     3    10     9    1
     4     1     2    1
     5    66    65    1
     6    67    65    1
     7     9     6    1
     8    65    62    1
     9     2     3    1
    10     5     3   am
    11     5     6    1
    12    59    58    1
    13     3     4    2
    14     6     7    1
    15    70    71    2
    16    70    69    1
    17    74    68    1
    18    74    73    1
    19    62    63    1
    20    62    61    1
    21    72    73    1
    22    72    69    1
    23    57    58    1
    24    57    54    1
    25    68    69    1
    26    68    63   am
    27    58    60    1
    28    63    64    2
    29    61    55   am
    30     7    13   am
    31     7     8    2
    32    55    56    2
    33    55    54    1
    34    13    14    1
    35    54    53    1
    36    20    18    1
    37    18    17    1
    38    53    48   am
    39    80    79    1
    40    80    82    1
    41    17    14    1
    42    17    19    1
    43    14    15    1
    44    16    15    2
    45    75    76    1
    46    79    76    1
    47    79    81    1
    48    15    21   am
    49    48    49    2
    50    48    47    1
    51    76    77    1
    52    77    78    2
    53    51    50    1
    54    47    50    1
    55    47    46    1
    56    21    22    1
    57    50    52    1
    58    25    22    1
    59    25    26    1
    60    22    23    1
    61    26    27   ar
    62    26    28   ar
    63    23    24    2
    64    34    33    1
    65    33    30    1
    66    41    43   ar
    67    41    40   ar
    68    43    45   ar
    69    29    30    1
    70    39    40    1
    71    39    36    1
    72    40    42   ar
    73    30    31    1
    74    35    36    1
    75    35    31   am
    76    36    37    1
    77    31    32    2
    78    45    44   ar
    79    42    44   ar
    80    37    38    2
