@<TRIPOS>MOLECULE
tmp/6g86B03.pdb
 99 95 0 0 0
SMALL
GASTEIGER

@<TRIPOS>ATOM
      1  N         20.1320   60.0710   18.7770 N.3   252  ASP252     -0.1225
      2  CA        18.7740   59.5720   18.8810 C.3   252  ASP252      0.1805
      3  C         18.6220   58.3370   18.0020 C.2   252  ASP252      0.2598
      4  O         19.2600   58.2140   16.9540 O.2   252  ASP252     -0.2718
      5  CB        17.7720   60.6450   18.4620 C.3   252  ASP252      0.1424
      6  CG        16.3610   60.2970   18.8760 C.2   252  ASP252      0.3668
      7  OD1       15.5380   59.9980   17.9790 O.co2 252  ASP252     -0.2456
      8  OD2       16.0880   60.2900   20.0990 O.co2 252  ASP252     -0.2456
      9  N         17.7850   57.3990   18.4510 N.am  253  LEU253     -0.1966
     10  CA        17.5860   56.1760   17.6670 C.3   253  LEU253      0.1728
     11  C         17.0090   56.4620   16.2850 C.2   253  LEU253      0.2616
     12  O         17.1860   55.6570   15.3640 O.2   253  LEU253     -0.2715
     13  CB        16.6790   55.1970   18.4270 C.3   253  LEU253      0.0311
     14  CG        17.2880   54.4790   19.6280 C.3   253  LEU253      0.0022
     15  CD1       16.2700   53.5070   20.2310 C.3   253  LEU253      0.0001
     16  CD2       18.5700   53.7400   19.2300 C.3   253  LEU253      0.0001
     17  N         16.3460   57.6020   16.0950 N.am  254  SER254     -0.1950
     18  CA        15.9170   57.9510   14.7440 C.3   254  SER254      0.1924
     19  C         17.1150   58.1690   13.8170 C.2   254  SER254      0.2314
     20  O         17.0900   57.7580   12.6530 O.2   254  SER254     -0.2863
     21  CB        15.0190   59.1910   14.7910 C.3   254  SER254      0.2116
     22  OG        15.7340   60.3110   15.3020 O.3   254  SER254     -0.2180
     23  N         18.5150   54.6200   13.0690 N.3   257  LYS257     -0.1245
     24  CA        17.7460   53.8690   12.0840 C.3   257  LYS257      0.1561
     25  C         17.9420   54.4310   10.6810 C.2   257  LYS257      0.2260
     26  O         18.0280   53.6740    9.7090 O.2   257  LYS257     -0.2867
     27  CB        16.2640   53.8780   12.4590 C.3   257  LYS257      0.0271
     28  CG        15.9580   53.0680   13.7260 C.3   257  LYS257      0.0035
     29  CD        14.4600   53.2040   14.0940 C.3   257  LYS257      0.0206
     30  CE        14.1200   52.4810   15.3960 C.3   257  LYS257      0.1093
     31  NZ        12.7130   52.8350   15.8650 N.3   257  LYS257     -0.1314
     32  N         17.3040   43.4670   17.4110 N.3   332  GLU332     -0.1231
     33  CA        15.8680   43.4090   17.2220 C.3   332  GLU332      0.1699
     34  C         15.4830   43.8270   15.8100 C.2   332  GLU332      0.2592
     35  O         14.5920   43.2310   15.1860 O.2   332  GLU332     -0.2718
     36  CB        15.2380   44.3800   18.2060 C.3   332  GLU332      0.0402
     37  CG        13.9400   44.0330   18.7760 C.3   332  GLU332      0.1161
     38  CD        13.7750   44.6990   20.1200 C.2   332  GLU332      0.3649
     39  OE1       13.2920   45.8500   20.1350 O.co2 332  GLU332     -0.2457
     40  OE2       14.1740   44.0920   21.1480 O.co2 332  GLU332     -0.2457
     41  N         16.1230   44.8900   15.3150 N.am  333  TRP333     -0.1976
     42  CA        15.6970   45.5230   14.0820 C.3   333  TRP333      0.1640
     43  C         15.7650   44.5790   12.8970 C.2   333  TRP333      0.2290
     44  O         15.0750   44.8160   11.9030 O.2   333  TRP333     -0.2864
     45  CB        16.5560   46.7610   13.7830 C.3   333  TRP333      0.0576
     46  CG        16.3560   47.8330   14.7800 C.ar  333  TRP333      0.0006
     47  CD1       15.3700   47.9090   15.7170 C.ar  333  TRP333      0.0946
     48  CD2       17.1930   48.9800   14.9760 C.ar  333  TRP333      0.0152
     49  NE1       15.5370   49.0400   16.4810 N.ar  333  TRP333     -0.2442
     50  CE2       16.6410   49.7200   16.0370 C.ar  333  TRP333      0.0810
     51  CE3       18.3490   49.4500   14.3500 C.ar  333  TRP333      0.0012
     52  CZ2       17.2010   50.9240   16.4880 C.ar  333  TRP333      0.0191
     53  CZ3       18.9030   50.6540   14.7910 C.ar  333  TRP333      0.0001
     54  CH2       18.3270   51.3700   15.8510 C.ar  333  TRP333      0.0015
     55  N         12.2040   43.3840   13.2800 N.3   336  THR336     -0.1203
     56  CA        11.1050   44.3100   13.4690 C.3   336  THR336      0.1994
     57  C         11.0970   45.4410   12.4500 C.2   336  THR336      0.2618
     58  O         10.1230   46.1980   12.4140 O.2   336  THR336     -0.2717
     59  CB        11.1390   44.9080   14.8790 C.3   336  THR336      0.1784
     60  OG1       12.3590   45.6490   15.0480 O.3   336  THR336     -0.2211
     61  CG2       11.0370   43.7880   15.9650 C.3   336  THR336      0.0376
     62  N         12.1380   45.5670   11.6250 N.am  337  THR337     -0.1952
     63  CA        12.1860   46.6060   10.6080 C.3   337  THR337      0.1897
     64  C         12.5020   46.0040    9.2570 C.2   337  THR337      0.2313
     65  O         12.9890   44.8810    9.1420 O.2   337  THR337     -0.2863
     66  CB        13.2450   47.6910   10.8980 C.3   337  THR337      0.1794
     67  OG1       14.5610   47.1440   10.6800 O.3   337  THR337     -0.2208
     68  CG2       13.1310   48.1900   12.3050 C.3   337  THR337      0.0378
     69  N         15.3050   52.5490    7.7820 N.3   353  LEU353     -0.1231
     70  CA        14.5980   51.4620    8.4470 C.3   353  LEU353      0.1693
     71  C         13.1990   51.9130    8.8340 C.2   353  LEU353      0.2592
     72  O         13.0270   52.9930    9.4120 O.2   353  LEU353     -0.2718
     73  CB        15.3470   51.0210    9.6980 C.3   353  LEU353      0.0284
     74  CG        16.6780   50.3210    9.5030 C.3   353  LEU353      0.0019
     75  CD1       17.1070   49.7060   10.8390 C.3   353  LEU353      0.0001
     76  CD2       16.5560   49.2600    8.4540 C.3   353  LEU353      0.0001
     77  N         12.2010   51.0820    8.5380 N.am  354  ILE354     -0.1966
     78  CA        10.8190   51.3370    8.9280 C.3   354  ILE354      0.1727
     79  C         10.2360   50.0650    9.5370 C.2   354  ILE354      0.2616
     80  O         10.7800   48.9730    9.3930 O.2   354  ILE354     -0.2715
     81  CB         9.9520   51.8010    7.7450 C.3   354  ILE354      0.0290
     82  CG1       10.0640   50.7830    6.6010 C.3   354  ILE354      0.0022
     83  CG2       10.3650   53.2080    7.2820 C.3   354  ILE354      0.0023
     84  CD1        8.9220   50.8800    5.6030 C.3   354  ILE354      0.0001
     85  N          9.0990   50.2180   10.2110 N.am  355  SER355     -0.1950
     86  CA         8.4730   49.0750   10.8560 C.3   355  SER355      0.1924
     87  C          7.9000   48.1040    9.8270 C.2   355  SER355      0.2314
     88  O          7.6130   48.4590    8.6800 O.2   355  SER355     -0.2863
     89  CB         7.3600   49.5420   11.7810 C.3   355  SER355      0.2116
     90  OG         6.2430   49.9100   11.0060 O.3   355  SER355     -0.2180
     91  N          4.5940   49.4870    8.6000 N.3   358  GLU358     -0.1245
     92  CA         4.8170   50.5140    7.5890 C.3   358  GLU358      0.1567
     93  C          5.1810   49.8790    6.2590 C.2   358  GLU358      0.2260
     94  O          4.6420   50.2460    5.2070 O.2   358  GLU358     -0.2867
     95  CB         5.9260   51.4600    8.0420 C.3   358  GLU358      0.0388
     96  CG         5.4140   52.7660    8.5770 C.3   358  GLU358      0.1160
     97  CD         4.7240   53.5850    7.5040 C.2   358  GLU358      0.3649
     98  OE1        3.4720   53.5210    7.4030 O.co2 358  GLU358     -0.2457
     99  OE2        5.4380   54.2880    6.7560 O.co2 358  GLU358     -0.2457
@<TRIPOS>BOND
     1    94    93    2
     2    84    82    1
     3    93    92    1
     4    82    81    1
     5    99    97   ar
     6    83    81    1
     7    98    97   ar
     8    97    96    1
     9    92    95    1
    10    92    91    1
    11    81    78    1
    12    69    70    1
    13    95    96    1
    14    70    71    1
    15    70    73    1
    16    76    74    1
    17    77    71   am
    18    77    78    1
    19    88    87    2
    20    71    72    2
    21    78    79    1
    22    65    64    2
    23    64    63    1
    24    80    79    2
    25    74    73    1
    26    74    75    1
    27    79    85   am
    28    26    25    2
    29    87    86    1
    30    85    86    1
    31    63    66    1
    32    63    62    1
    33    67    66    1
    34    25    24    1
    35    86    89    1
    36    66    68    1
    37    90    89    1
    38    62    57   am
    39    44    43    2
    40    24    27    1
    41    24    23    1
    42    58    57    2
    43    57    56    1
    44    27    28    1
    45    20    19    2
    46    43    42    1
    47    55    56    1
    48    56    59    1
    49    28    29    1
    50    45    42    1
    51    45    46    1
    52    19    18    1
    53    42    41    1
    54    29    30    1
    55    51    53   ar
    56    51    48   ar
    57    18    21    1
    58    18    17    1
    59    46    48   ar
    60    46    47   ar
    61    21    22    1
    62    53    54   ar
    63    59    60    1
    64    59    61    1
    65    48    50   ar
    66    35    34    2
    67    41    34   am
    68    12    11    2
    69    30    31    1
    70    47    49   ar
    71    34    33    1
    72    54    52   ar
    73    50    49   ar
    74    50    52   ar
    75    17    11   am
    76    11    10    1
    77     4     3    2
    78    33    32    1
    79    33    36    1
    80    10    13    1
    81    10     9    1
    82     7     6   ar
    83     3     9   am
    84     3     2    1
    85    36    37    1
    86    13    14    1
    87     5     6    1
    88     5     2    1
    89    37    38    1
    90     1     2    1
    91     6     8   ar
    92    16    14    1
    93    14    15    1
    94    38    39   ar
    95    38    40   ar
