@<TRIPOS>MOLECULE
tmp/6g86A03.pdb
 89 85 0 0 0
SMALL
GASTEIGER

@<TRIPOS>ATOM
      1  N         31.1510   36.0160   54.8430 N.3    37  PHE37      -0.1241
      2  CA        32.1290   35.1890   54.1320 C.3    37  PHE37       0.1605
      3  C         31.4690   34.5290   52.9300 C.2    37  PHE37       0.2264
      4  O         30.3470   34.0340   53.0590 O.2    37  PHE37      -0.2867
      5  CB        32.6890   34.0200   54.9970 C.3    37  PHE37       0.0534
      6  CG        33.2120   34.4060   56.3580 C.ar   37  PHE37      -0.0203
      7  CD1       34.5800   34.4880   56.5900 C.ar   37  PHE37      -0.0042
      8  CD2       32.3500   34.5920   57.4270 C.ar   37  PHE37      -0.0042
      9  CE1       35.0770   34.8100   57.8500 C.ar   37  PHE37      -0.0003
     10  CE2       32.8400   34.9080   58.6910 C.ar   37  PHE37      -0.0003
     11  CZ        34.2050   35.0140   58.9000 C.ar   37  PHE37      -0.0000
     12  N         31.2960   31.2510   50.7040 N.3    39  ASN39      -0.1240
     13  CA        31.5970   29.8220   50.8180 C.3    39  ASN39       0.1653
     14  C         31.9570   29.2700   49.4380 C.2    39  ASN39       0.2266
     15  O         31.0720   29.0490   48.6010 O.2    39  ASN39      -0.2867
     16  CB        30.4040   29.0640   51.3900 C.3    39  ASN39       0.1155
     17  CG        30.0800   29.4680   52.8250 C.2    39  ASN39       0.2627
     18  OD1       30.9660   29.8660   53.5970 O.2    39  ASN39      -0.2716
     19  ND2       28.8020   29.3540   53.1910 N.am   39  ASN39      -0.0877
     20  N         26.6070   37.1690   47.7350 N.3    49  ASN49      -0.1240
     21  CA        25.2520   36.9320   47.2670 C.3    49  ASN49       0.1653
     22  C         24.2770   37.9070   47.9290 C.2    49  ASN49       0.2266
     23  O         24.6580   38.7800   48.7090 O.2    49  ASN49      -0.2867
     24  CB        24.8450   35.4670   47.4890 C.3    49  ASN49       0.1155
     25  CG        24.7580   35.0800   48.9620 C.2    49  ASN49       0.2627
     26  OD1       24.3080   35.8560   49.8120 O.2    49  ASN49      -0.2716
     27  ND2       25.1570   33.8470   49.2570 N.am   49  ASN49      -0.0877
     28  N         21.9040   37.5340   50.1330 N.3    51  GLY51      -0.1210
     29  CA        21.8380   37.4960   51.5930 C.3    51  GLY51       0.1956
     30  C         23.0130   38.2120   52.2390 C.2    51  GLY51       0.2611
     31  O         22.8530   38.9290   53.2320 O.2    51  GLY51      -0.2717
     32  N         24.2210   37.9760   51.7240 N.am   52  HIS52      -0.1975
     33  CA        25.3800   38.7490   52.1800 C.3    52  HIS52       0.1656
     34  C         25.1310   40.2330   52.0320 C.2    52  HIS52       0.2291
     35  O         25.4660   41.0330   52.9220 O.2    52  HIS52      -0.2864
     36  CB        26.6060   38.3630   51.3630 C.3    52  HIS52       0.0771
     37  CG        27.0360   36.9510   51.5480 C.ar   52  HIS52       0.0820
     38  ND1       27.6170   36.2090   50.5330 N.ar   52  HIS52      -0.2267
     39  CD2       26.9670   36.1350   52.6240 C.ar   52  HIS52       0.1154
     40  CE1       27.8990   35.0010   50.9900 C.ar   52  HIS52       0.1986
     41  NE2       27.5130   34.9300   52.2550 N.ar   52  HIS52      -0.2212
     42  N         22.8050   41.5480   54.6360 N.3    55  ARG55      -0.1245
     43  CA        23.4570   41.7220   55.9320 C.3    55  ARG55       0.1563
     44  C         24.4700   42.8570   55.9100 C.2    55  ARG55       0.2260
     45  O         24.6360   43.5490   56.9160 O.2    55  ARG55      -0.2867
     46  CB        24.1310   40.4320   56.3720 C.3    55  ARG55       0.0307
     47  CG        23.0860   39.3860   56.8410 C.3    55  ARG55       0.0489
     48  CD        23.7640   38.1790   57.4650 C.3    55  ARG55       0.2205
     49  NE        22.8180   37.1350   57.8820 N.pl3  55  ARG55      -0.0865
     50  CZ        22.1470   37.1160   59.0410 C.cat  55  ARG55       0.5346
     51  NH1       22.2540   38.1160   59.9190 N.pl3  55  ARG55       0.1354
     52  NH2       21.3500   36.0740   59.3180 N.pl3  55  ARG55       0.1354
     53  N         15.9130   32.6090   52.9020 N.3   161  TYR161     -0.1227
     54  CA        17.0310   32.4880   51.9720 C.3   161  TYR161      0.1736
     55  C         18.1540   31.6350   52.5620 C.2   161  TYR161      0.2595
     56  O         18.6210   30.6720   51.9430 O.2   161  TYR161     -0.2718
     57  CB        17.5230   33.8910   51.6310 C.3   161  TYR161      0.0548
     58  CG        18.7010   33.9040   50.6860 C.ar  161  TYR161     -0.0200
     59  CD1       18.5030   33.7870   49.3180 C.ar  161  TYR161     -0.0009
     60  CD2       20.0030   34.0290   51.1750 C.ar  161  TYR161     -0.0009
     61  CE1       19.5840   33.8070   48.4400 C.ar  161  TYR161      0.0417
     62  CE2       21.0910   34.0430   50.3170 C.ar  161  TYR161      0.0417
     63  CZ        20.8780   33.9240   48.9490 C.ar  161  TYR161      0.1957
     64  OH        21.9570   33.9570   48.0890 O.3   161  TYR161     -0.2866
     65  N         18.6010   31.9730   53.7710 N.am  162  GLU162     -0.1979
     66  CA        19.7490   31.2760   54.3400 C.3   162  GLU162      0.1602
     67  C         19.4040   29.8630   54.7540 C.2   162  GLU162      0.2287
     68  O         20.2580   28.9670   54.6890 O.2   162  GLU162     -0.2864
     69  CB        20.2910   32.0510   55.5530 C.3   162  GLU162      0.0415
     70  CG        20.8550   33.4140   55.1620 C.3   162  GLU162      0.1163
     71  CD        21.5230   34.1380   56.3410 C.2   162  GLU162      0.3649
     72  OE1       21.2010   33.8140   57.5040 O.co2 162  GLU162     -0.2457
     73  OE2       22.3690   35.0340   56.1020 O.co2 162  GLU162     -0.2457
     74  N         19.1840   27.3410   51.5030 N.3   165  GLU165     -0.1245
     75  CA        20.4840   27.0950   50.8860 C.3   165  GLU165      0.1567
     76  C         21.1650   25.8770   51.4840 C.2   165  GLU165      0.2260
     77  O         21.9710   25.2190   50.8120 O.2   165  GLU165     -0.2867
     78  CB        21.3890   28.3040   51.0910 C.3   165  GLU165      0.0388
     79  CG        21.1790   29.4090   50.1400 C.3   165  GLU165      0.1160
     80  CD        22.2870   30.4420   50.2790 C.2   165  GLU165      0.3649
     81  OE1       22.6350   30.7420   51.4550 O.co2 165  GLU165     -0.2457
     82  OE2       22.8110   30.9010   49.2250 O.co2 165  GLU165     -0.2457
     83  N         25.1490   31.1910   44.3500 N.3   305  PRO305     -0.2116
     84  CA        26.5420   31.1470   43.9080 C.3   305  PRO305      0.1372
     85  C         26.8400   29.8500   43.1670 C.2   305  PRO305      0.2244
     86  O         26.3000   28.7830   43.4930 O.2   305  PRO305     -0.2868
     87  CB        27.3330   31.2540   45.2130 C.3   305  PRO305      0.0268
     88  CG        26.4510   32.1490   46.0780 C.3   305  PRO305      0.0207
     89  CD        25.0120   31.6900   45.7330 C.3   305  PRO305      0.0892
@<TRIPOS>BOND
     1    85    86    2
     2    85    84    1
     3    84    83    1
     4    84    87    1
     5    83    89    1
     6    87    88    1
     7    89    88    1
     8    21    24    1
     9    21    20    1
    10    21    22    1
    11    24    25    1
    12    22    23    2
    13    64    63    1
    14    61    63   ar
    15    61    59   ar
    16    15    14    2
    17    63    62   ar
    18    25    27   am
    19    25    26    2
    20    82    80   ar
    21    59    58   ar
    22    14    13    1
    23    28    29    1
    24    79    80    1
    25    79    78    1
    26    80    81   ar
    27    62    60   ar
    28    38    40   ar
    29    38    37   ar
    30    58    60   ar
    31    58    57    1
    32    12    13    1
    33    77    76    2
    34    13    16    1
    35    75    78    1
    36    75    76    1
    37    75    74    1
    38    40    41   ar
    39    36    37    1
    40    36    33    1
    41    16    17    1
    42    37    39   ar
    43    29    30    1
    44    57    54    1
    45    32    33    1
    46    32    30   am
    47    56    55    2
    48    54    55    1
    49    54    53    1
    50    34    33    1
    51    34    35    2
    52    30    31    2
    53    41    39   ar
    54    55    65   am
    55    17    19   am
    56    17    18    2
    57     3     4    2
    58     3     2    1
    59    65    66    1
    60     2     1    1
    61     2     5    1
    62    66    67    1
    63    66    69    1
    64    42    43    1
    65    68    67    2
    66     5     6    1
    67    70    69    1
    68    70    71    1
    69    44    43    1
    70    44    45    2
    71    43    46    1
    72    73    71   ar
    73    71    72   ar
    74     6     7   ar
    75     6     8   ar
    76    46    47    1
    77     7     9   ar
    78    47    48    1
    79     8    10   ar
    80    48    49    1
    81     9    11   ar
    82    49    50    2
    83    10    11   ar
    84    50    52    1
    85    50    51    1
