@<TRIPOS>MOLECULE
tmp/6g8mV00.pdb
 123 112 0 0 0
SMALL
GASTEIGER

@<TRIPOS>ATOM
      1  N          4.8940 -159.9710   43.3930 N.3     1  THR1       -0.1218
      2  CA         4.4590 -161.2350   43.9240 C.3     1  THR1        0.1862
      3  C          4.3870 -161.0660   45.3940 C.2     1  THR1        0.2287
      4  O          5.2300 -160.4300   45.9690 O.2     1  THR1       -0.2866
      5  CB         5.5470 -162.2240   43.5920 C.3     1  THR1        0.1770
      6  OG1        5.5640 -162.3870   42.1950 O.3     1  THR1       -0.2211
      7  CG2        5.2600 -163.5430   44.2380 C.3     1  THR1        0.0375
      8  N         -1.1030 -162.1890   40.2990 N.3    19  ARG19      -0.1231
      9  CA        -0.6010 -161.2990   39.2430 C.3    19  ARG19       0.1694
     10  C          0.8160 -161.6820   38.8160 C.2    19  ARG19       0.2593
     11  O          1.6960 -161.8460   39.6550 O.2    19  ARG19      -0.2718
     12  CB        -0.6150 -159.8340   39.7010 C.3    19  ARG19       0.0321
     13  CG        -0.0090 -158.8690   38.6830 C.3    19  ARG19       0.0489
     14  CD         0.0290 -157.4420   39.1850 C.3    19  ARG19       0.2205
     15  NE        -1.2860 -156.8070   39.1550 N.pl3  19  ARG19      -0.0865
     16  CZ        -1.5360 -155.5550   39.5370 C.cat  19  ARG19       0.5346
     17  NH1       -0.5640 -154.7720   39.9910 N.pl3  19  ARG19       0.1354
     18  NH2       -2.7740 -155.0800   39.4680 N.pl3  19  ARG19       0.1354
     19  N          1.0300 -161.7880   37.5070 N.am   20  SER20      -0.1938
     20  CA         2.3710 -161.9330   36.9380 C.3    20  SER20       0.2055
     21  C          2.6030 -160.7770   35.9730 C.2    20  SER20       0.2643
     22  O          1.7270 -160.4530   35.1670 O.2    20  SER20      -0.2714
     23  CB         2.5220 -163.2790   36.2230 C.3    20  SER20       0.2130
     24  OG         1.7740 -163.3270   35.0190 O.3    20  SER20      -0.2179
     25  N          3.7750 -160.1520   36.0670 N.am   21  THR21      -0.1950
     26  CA         4.1010 -158.9700   35.2700 C.3    21  THR21       0.1897
     27  C          5.3630 -159.1200   34.4170 C.2    21  THR21       0.2313
     28  O          6.2560 -159.8860   34.7550 O.2    21  THR21      -0.2863
     29  CB         4.3280 -157.7490   36.1790 C.3    21  THR21       0.1794
     30  OG1        5.3160 -158.0700   37.1670 O.3    21  THR21      -0.2208
     31  CG2        3.0420 -157.3410   36.8740 C.3    21  THR21       0.0378
     32  N          7.8410 -156.2300   33.2890 N.3    23  GLY23      -0.1225
     33  CA         8.1010 -154.8080   33.4210 C.3    23  GLY23       0.1811
     34  C          6.8790 -154.2440   34.1230 C.2    23  GLY23       0.2280
     35  O          6.4800 -154.7730   35.1620 O.2    23  GLY23      -0.2866
     36  N         -2.9050 -165.7540   37.6330 N.3    31  CYS31      -0.1235
     37  CA        -1.7140 -166.6220   37.6290 C.3    31  CYS31       0.1677
     38  C         -1.6110 -167.4910   38.8910 C.2    31  CYS31       0.2270
     39  O         -1.9880 -167.0650   39.9800 O.2    31  CYS31      -0.2867
     40  CB        -0.4560 -165.7510   37.4870 C.3    31  CYS31       0.0956
     41  SG         1.1360 -166.5770   37.7310 S.3    31  CYS31      -0.0801
     42  N          0.6470 -169.1850   41.5770 N.3    33  LYS33      -0.1245
     43  CA         1.9630 -169.1610   42.2240 C.3    33  LYS33       0.1561
     44  C          2.1100 -170.2120   43.3140 C.2    33  LYS33       0.2260
     45  O          3.1650 -170.3060   43.9400 O.2    33  LYS33      -0.2867
     46  CB         2.2190 -167.7820   42.8110 C.3    33  LYS33       0.0271
     47  CG         2.1390 -166.6970   41.7650 C.3    33  LYS33       0.0035
     48  CD         2.3380 -165.3380   42.3790 C.3    33  LYS33       0.0206
     49  CE         1.9750 -164.2650   41.3800 C.3    33  LYS33       0.1093
     50  NZ         2.4010 -162.9440   41.8960 N.3    33  LYS33      -0.1314
     51  N          5.9630 -169.6590   45.0620 N.3    45  GLY45      -0.1210
     52  CA         7.1980 -169.2120   44.4230 C.3    45  GLY45       0.1956
     53  C          7.1710 -167.7590   44.0040 C.2    45  GLY45       0.2612
     54  O          6.1830 -167.2830   43.4400 O.2    45  GLY45      -0.2717
     55  N          8.2700 -167.0670   44.3010 N.am   46  ALA46      -0.1965
     56  CA         8.5280 -165.7230   43.8240 C.3    46  ALA46       0.1728
     57  C          9.8020 -165.7320   42.9870 C.2    46  ALA46       0.2616
     58  O         10.6340 -166.6270   43.1270 O.2    46  ALA46      -0.2715
     59  CB         8.6690 -164.7700   44.9970 C.3    46  ALA46       0.0334
     60  N          9.9400 -164.7340   42.1180 N.am   47  GLY47      -0.1955
     61  CA        11.1120 -164.5900   41.2560 C.3    47  GLY47       0.1869
     62  C         10.8260 -165.0060   39.8420 C.2    47  GLY47       0.2309
     63  O          9.7270 -164.7800   39.3370 O.2    47  GLY47      -0.2863
     64  N          9.5390 -166.9630   37.1620 N.3    49  ALA49      -0.1245
     65  CA         8.3770 -167.8640   37.2130 C.3    49  ALA49       0.1562
     66  C          8.6220 -169.2340   36.5960 C.2    49  ALA49       0.2260
     67  O          8.0860 -170.2360   37.0680 O.2    49  ALA49      -0.2867
     68  CB         7.1920 -167.2100   36.5290 C.3    49  ALA49       0.0290
     69  N         10.7360 -171.1830   39.2940 N.3    52  THR52      -0.1218
     70  CA         9.9560 -171.6720   40.4420 C.3    52  THR52       0.1862
     71  C          9.0750 -172.8560   40.0780 C.2    52  THR52       0.2287
     72  O          8.8230 -173.6950   40.9230 O.2    52  THR52      -0.2866
     73  CB         9.0450 -170.6070   41.0860 C.3    52  THR52       0.1770
     74  OG1        8.0230 -170.2140   40.1650 O.3    52  THR52      -0.2211
     75  CG2        9.8380 -169.3990   41.5320 C.3    52  THR52       0.0375
     76  N         12.7020 -168.1620   44.5830 N.3    97  TYR97      -0.1241
     77  CA        12.5380 -167.7960   45.9870 C.3    97  TYR97       0.1605
     78  C         11.2340 -168.4500   46.4330 C.2    97  TYR97       0.2264
     79  O         10.1660 -168.0840   45.9380 O.2    97  TYR97      -0.2867
     80  CB        12.4830 -166.2680   46.1370 C.3    97  TYR97       0.0534
     81  CG        13.7340 -165.5600   45.6560 C.ar   97  TYR97      -0.0201
     82  CD1       13.9180 -165.2610   44.3030 C.ar   97  TYR97      -0.0009
     83  CD2       14.7400 -165.1890   46.5520 C.ar   97  TYR97      -0.0009
     84  CE1       15.0650 -164.6180   43.8560 C.ar   97  TYR97       0.0417
     85  CE2       15.8910 -164.5420   46.1130 C.ar   97  TYR97       0.0417
     86  CZ        16.0470 -164.2610   44.7600 C.ar   97  TYR97       0.1957
     87  OH        17.1720 -163.6270   44.2840 O.3    97  TYR97      -0.2866
     88  N          7.2820 -163.4070   51.1820 N.3   127  LEU127     -0.1231
     89  CA         8.2710 -163.3090   50.1150 C.3   127  LEU127      0.1693
     90  C          7.7010 -162.4990   48.9610 C.2   127  LEU127      0.2593
     91  O          6.4840 -162.3430   48.8410 O.2   127  LEU127     -0.2718
     92  CB         8.6280 -164.7110   49.6240 C.3   127  LEU127      0.0284
     93  CG        10.0860 -165.1510   49.6370 C.3   127  LEU127      0.0019
     94  CD1       10.6080 -165.2470   51.0560 C.3   127  LEU127      0.0001
     95  CD2       10.2200 -166.4940   48.9350 C.3   127  LEU127      0.0001
     96  N          8.5930 -161.9800   48.1260 N.am  128  GLY128     -0.1942
     97  CA         8.2090 -161.2140   46.9360 C.3   128  GLY128      0.2014
     98  C          8.2150 -159.7080   47.1480 C.2   128  GLY128      0.2639
     99  O          8.5660 -159.2240   48.2230 O.2   128  GLY128     -0.2714
    100  N          7.8120 -158.9690   46.1160 N.am  129  SER129     -0.1949
    101  CA         7.7930 -157.4960   46.1630 C.3   129  SER129      0.1924
    102  C          6.7810 -156.9340   47.1640 C.2   129  SER129      0.2314
    103  O          6.9640 -155.8340   47.6780 O.2   129  SER129     -0.2863
    104  CB         7.5200 -156.9080   44.7730 C.3   129  SER129      0.2116
    105  OG         6.2380 -157.2720   44.2940 O.3   129  SER129     -0.2180
    106  N          6.1650 -158.4860   50.0360 N.3   131  SER131     -0.1202
    107  CA         6.4960 -159.1370   51.3050 C.3   131  SER131      0.2020
    108  C          6.5230 -158.1580   52.4720 C.2   131  SER131      0.2618
    109  O          6.1600 -158.5260   53.5860 O.2   131  SER131     -0.2717
    110  CB         7.8370 -159.8760   51.2190 C.3   131  SER131      0.2103
    111  OG         8.9270 -158.9910   51.0430 O.3   131  SER131     -0.2182
    112  N          6.9450 -156.9200   52.2180 N.am  132  LEU132     -0.1979
    113  CA         6.9860 -155.8920   53.2650 C.3   132  LEU132      0.1596
    114  C          5.5870 -155.4810   53.7190 C.2   132  LEU132      0.2287
    115  O          5.3400 -155.3370   54.9180 O.2   132  LEU132     -0.2864
    116  CB         7.7920 -154.6660   52.8170 C.3   132  LEU132      0.0297
    117  CG         9.2830 -154.7370   53.1580 C.3   132  LEU132      0.0022
    118  CD1        9.9740 -155.9000   52.4600 C.3   132  LEU132      0.0001
    119  CD2        9.9630 -153.4290   52.8020 C.3   132  LEU132      0.0001
    120  N          3.5300 -154.6340   42.1100 N.3   168  GLY168     -0.1225
    121  CA         3.9170 -155.9570   41.6170 C.3   168  GLY168      0.1811
    122  C          2.9320 -157.0860   41.8800 C.2   168  GLY168      0.2280
    123  O          3.0800 -158.1610   41.3010 O.2   168  GLY168     -0.2866
@<TRIPOS>BOND
     1    32    33    1
     2    33    34    1
     3    34    35    2
     4    27    28    2
     5    27    26    1
     6    24    23    1
     7    22    21    2
     8    26    25    1
     9    26    29    1
    10    21    25   am
    11    21    20    1
    12    29    31    1
    13    29    30    1
    14    23    20    1
    15    68    65    1
    16    66    67    2
    17    66    65    1
    18    20    19    1
    19    64    65    1
    20    40    37    1
    21    40    41    1
    22    19    10   am
    23    37    36    1
    24    37    38    1
    25    13    14    1
    26    13    12    1
    27    10     9    1
    28    10    11    2
    29    38    39    2
    30    15    14    1
    31    15    16    2
    32     9    12    1
    33     9     8    1
    34    69    70    1
    35    63    62    2
    36    18    16    1
    37    16    17    1
    38    62    61    1
    39    71    70    1
    40    71    72    2
    41    74    73    1
    42    70    73    1
    43    73    75    1
    44    61    60    1
    45   123   122    2
    46    49    50    1
    47    49    48    1
    48    42    43    1
    49   121   122    1
    50   121   120    1
    51    47    48    1
    52    47    46    1
    53    60    57   am
    54     6     5    1
    55    43    46    1
    56    43    44    1
    57    57    58    2
    58    57    56    1
    59    44    45    2
    60     1     2    1
    61    54    53    2
    62     5     2    1
    63     5     7    1
    64    56    55    1
    65    56    59    1
    66    84    82   ar
    67    84    86   ar
    68     2     3    1
    69    53    55   am
    70    53    52    1
    71    87    86    1
    72   105   104    1
    73    82    81   ar
    74    52    51    1
    75    76    77    1
    76    86    85   ar
    77   104   101    1
    78     3     4    2
    79    81    80    1
    80    81    83   ar
    81    79    78    2
    82    77    80    1
    83    77    78    1
    84    85    83   ar
    85   100   101    1
    86   100    98   am
    87   101   102    1
    88    97    98    1
    89    97    96    1
    90    98    99    2
    91   102   103    2
    92    96    90   am
    93    91    90    2
    94    95    93    1
    95    90    89    1
    96    92    93    1
    97    92    89    1
    98    93    94    1
    99   106   107    1
   100    89    88    1
   101   111   110    1
   102   110   107    1
   103   107   108    1
   104   112   108   am
   105   112   113    1
   106   118   117    1
   107   108   109    2
   108   119   117    1
   109   116   117    1
   110   116   113    1
   111   113   114    1
   112   114   115    2
