@<TRIPOS>MOLECULE
tmp/6g8mN00.pdb
 124 115 0 0 0
SMALL
GASTEIGER

@<TRIPOS>ATOM
      1  N         43.4570 -143.3570   63.0480 N.3     1  THR1       -0.1218
      2  CA        43.3700 -142.2680   63.9770 C.3     1  THR1        0.1862
      3  C         42.3450 -142.6110   65.0160 C.2     1  THR1        0.2287
      4  O         41.2980 -143.1220   64.7100 O.2     1  THR1       -0.2866
      5  CB        42.8580 -141.0970   63.1910 C.3     1  THR1        0.1770
      6  OG1       43.8390 -140.6960   62.2470 O.3     1  THR1       -0.2211
      7  CG2       42.5250 -139.9620   64.1210 C.3     1  THR1        0.0375
      8  N         49.8570 -141.2730   65.3860 N.3    19  ARG19      -0.1231
      9  CA        50.2630 -141.9510   64.1520 C.3    19  ARG19       0.1694
     10  C         49.6450 -141.2850   62.9340 C.2    19  ARG19       0.2593
     11  O         48.4580 -140.9710   62.9080 O.2    19  ARG19      -0.2718
     12  CB        49.8880 -143.4360   64.1730 C.3    19  ARG19       0.0321
     13  CG        50.3420 -144.1900   62.9280 C.3    19  ARG19       0.0489
     14  CD        50.2570 -145.6930   63.1040 C.3    19  ARG19       0.2205
     15  NE        51.2590 -146.1910   64.0430 N.pl3  19  ARG19      -0.0865
     16  CZ        51.4640 -147.4720   64.3320 C.cat  19  ARG19       0.5346
     17  NH1       50.7400 -148.4270   63.7520 N.pl3  19  ARG19       0.1354
     18  NH2       52.4120 -147.8040   65.2030 N.pl3  19  ARG19       0.1354
     19  N         50.4770 -141.0940   61.9220 N.am   20  THR20      -0.1939
     20  CA        50.0610 -140.5430   60.6570 C.3    20  THR20       0.2028
     21  C         50.6250 -141.4330   59.5570 C.2    20  THR20       0.2643
     22  O         51.8420 -141.6030   59.4590 O.2    20  THR20      -0.2714
     23  CB        50.6030 -139.1160   60.5250 C.3    20  THR20       0.1808
     24  OG1       49.9570 -138.2660   61.4820 O.3    20  THR20      -0.2208
     25  CG2       50.3280 -138.5880   59.2110 C.3    20  THR20       0.0379
     26  N         49.7430 -141.9900   58.7320 N.am   21  THR21      -0.1936
     27  CA        50.1330 -143.0050   57.7570 C.3    21  THR21       0.2028
     28  C         49.9490 -142.5560   56.3180 C.2    21  THR21       0.2643
     29  O         49.1020 -141.7250   56.0150 O.2    21  THR21      -0.2714
     30  CB        49.3270 -144.3010   57.9470 C.3    21  THR21       0.1808
     31  OG1       47.9330 -143.9840   58.0170 O.3    21  THR21      -0.2208
     32  CG2       49.7550 -145.0150   59.2180 C.3    21  THR21       0.0379
     33  N         50.7850 -143.1130   55.4490 N.am   22  THR22      -0.1936
     34  CA        50.6020 -143.0580   54.0150 C.3    22  THR22       0.2028
     35  C         50.5620 -144.4970   53.5230 C.2    22  THR22       0.2642
     36  O         51.6050 -145.1210   53.3040 O.2    22  THR22      -0.2714
     37  CB        51.7590 -142.3340   53.3290 C.3    22  THR22       0.1808
     38  OG1       51.8060 -140.9750   53.7850 O.3    22  THR22      -0.2208
     39  CG2       51.5450 -142.3650   51.8500 C.3    22  THR22       0.0379
     40  N         49.3540 -145.0160   53.3440 N.am   23  GLY23      -0.1954
     41  CA        49.1690 -146.4360   53.0850 C.3    23  GLY23       0.1869
     42  C         49.5320 -147.1770   54.3570 C.2    23  GLY23       0.2309
     43  O         48.9270 -146.9430   55.4070 O.2    23  GLY23      -0.2863
     44  N         54.1960 -142.1220   58.1400 N.3    27  ALA27      -0.1245
     45  CA        54.8640 -140.8800   57.7200 C.3    27  ALA27       0.1562
     46  C         55.2910 -140.0060   58.8960 C.2    27  ALA27       0.2260
     47  O         56.2570 -139.2620   58.7870 O.2    27  ALA27      -0.2867
     48  CB        53.9710 -140.0880   56.7770 C.3    27  ALA27       0.0290
     49  N         52.8710 -137.3380   65.7410 N.3    31  THR31      -0.1218
     50  CA        51.9740 -136.2730   65.2910 C.3    31  THR31       0.1862
     51  C         51.1480 -135.6940   66.4350 C.2    31  THR31       0.2287
     52  O         50.7240 -136.4210   67.3370 O.2    31  THR31      -0.2866
     53  CB        50.9860 -136.7960   64.2300 C.3    31  THR31       0.1770
     54  OG1       51.6900 -137.6050   63.2820 O.3    31  THR31      -0.2211
     55  CG2       50.3000 -135.6440   63.4930 C.3    31  THR31       0.0375
     56  N         47.6660 -134.2180   67.0110 N.3    33  LYS33      -0.1245
     57  CA        46.3180 -134.1320   66.4420 C.3    33  LYS33       0.1561
     58  C         45.3590 -133.3080   67.2990 C.2    33  LYS33       0.2260
     59  O         44.2020 -133.1160   66.9150 O.2    33  LYS33      -0.2867
     60  CB        45.7460 -135.5390   66.2630 C.3    33  LYS33       0.0271
     61  CG        46.6080 -136.4290   65.3840 C.3    33  LYS33       0.0035
     62  CD        46.0110 -137.8120   65.2250 C.3    33  LYS33       0.0206
     63  CE        46.9230 -138.6800   64.3810 C.3    33  LYS33       0.1093
     64  NZ        46.3130 -140.0050   64.1130 N.3    33  LYS33      -0.1314
     65  N         41.3800 -133.7260   65.2670 N.3    45  ARG45      -0.1231
     66  CA        41.2470 -133.8310   63.8170 C.3    45  ARG45       0.1694
     67  C         41.3150 -135.2830   63.3370 C.2    45  ARG45       0.2593
     68  O         42.1340 -136.0720   63.8200 O.2    45  ARG45      -0.2718
     69  CB        42.3330 -133.0040   63.1390 C.3    45  ARG45       0.0321
     70  CG        42.1990 -131.5140   63.4120 C.3    45  ARG45       0.0489
     71  CD        43.3050 -130.6910   62.7710 C.3    45  ARG45       0.2205
     72  NE        44.6310 -131.1080   63.2300 N.pl3  45  ARG45      -0.0865
     73  CZ        45.5030 -131.8550   62.5440 C.cat  45  ARG45       0.5346
     74  NH1       45.2300 -132.3390   61.3260 N.pl3  45  ARG45       0.1354
     75  NH2       46.6780 -132.1340   63.1040 N.pl3  45  ARG45       0.1354
     76  N         40.4350 -135.6170   62.3910 N.am   46  SER46      -0.1938
     77  CA        40.4740 -136.9020   61.6890 C.3    46  SER46       0.2055
     78  C         40.0640 -136.7310   60.2270 C.2    46  SER46       0.2644
     79  O         39.2800 -135.8420   59.8940 O.2    46  SER46      -0.2714
     80  CB        39.5880 -137.9480   62.3810 C.3    46  SER46       0.2130
     81  OG        38.2120 -137.7090   62.1510 O.3    46  SER46      -0.2179
     82  N         40.5960 -137.6000   59.3720 N.am   47  GLY47      -0.1939
     83  CA        40.4020 -137.5150   57.9240 C.3    47  GLY47       0.2014
     84  C         41.6580 -136.9970   57.2530 C.2    47  GLY47       0.2640
     85  O         42.7690 -137.2960   57.6940 O.2    47  GLY47      -0.2714
     86  N         41.4780 -136.2310   56.1790 N.am   48  SER48      -0.1935
     87  CA        42.5890 -135.5650   55.4880 C.3    48  SER48       0.2055
     88  C         43.1640 -134.4810   56.3940 C.2    48  SER48       0.2643
     89  O         42.4320 -133.6000   56.8400 O.2    48  SER48      -0.2714
     90  CB        42.1020 -134.9310   54.1770 C.3    48  SER48       0.2130
     91  OG        43.1120 -134.1370   53.5700 O.3    48  SER48      -0.2179
     92  N         44.4600 -134.5380   56.6740 N.am   49  ALA49      -0.1963
     93  CA        45.0780 -133.4920   57.4980 C.3    49  ALA49       0.1728
     94  C         45.2620 -132.1990   56.7460 C.2    49  ALA49       0.2616
     95  O         45.2370 -131.1500   57.3620 O.2    49  ALA49      -0.2715
     96  CB        46.3960 -133.9050   58.0670 C.3    49  ALA49       0.0334
     97  N         45.4730 -132.2600   55.4350 N.am   50  ALA50      -0.1977
     98  CA        45.4840 -131.0430   54.6320 C.3    50  ALA50       0.1597
     99  C         44.1900 -130.2730   54.8610 C.2    50  ALA50       0.2287
    100  O         44.2210 -129.0850   55.1810 O.2    50  ALA50      -0.2864
    101  CB        45.6470 -131.3660   53.1600 C.3    50  ALA50       0.0319
    102  N         41.8340 -130.8140   57.3700 N.3    52  THR52      -0.1218
    103  CA        41.5800 -130.4920   58.7840 C.3    52  THR52       0.1862
    104  C         42.5070 -129.4040   59.3350 C.2    52  THR52       0.2287
    105  O         42.1020 -128.6440   60.2190 O.2    52  THR52      -0.2866
    106  CB        41.6520 -131.7290   59.7030 C.3    52  THR52       0.1770
    107  OG1       42.9530 -132.3200   59.6230 O.3    52  THR52      -0.2211
    108  CG2       40.5780 -132.7400   59.3400 C.3    52  THR52       0.0375
    109  N         37.4930 -141.2350   64.2390 N.3   128  GLY128     -0.1210
    110  CA        38.6630 -141.8010   63.5790 C.3   128  GLY128      0.1956
    111  C         38.4610 -143.2870   63.3440 C.2   128  GLY128      0.2612
    112  O         37.5510 -143.8970   63.9110 O.2   128  GLY128     -0.2717
    113  N         39.3200 -143.8700   62.5100 N.am  129  SER129     -0.1952
    114  CA        39.2230 -145.2920   62.1470 C.3   129  SER129      0.1924
    115  C         39.2470 -146.2130   63.3730 C.2   129  SER129      0.2314
    116  O         38.5080 -147.1950   63.4240 O.2   129  SER129     -0.2863
    117  CB        40.3470 -145.6770   61.1770 C.3   129  SER129      0.2116
    118  OG        41.6190 -145.3520   61.7170 O.3   129  SER129     -0.2180
    119  N         46.1490 -148.0850   61.7300 N.3   168  SER168     -0.1217
    120  CA        46.2350 -146.6500   61.4290 C.3   168  SER168      0.1889
    121  C         46.4540 -145.7600   62.6510 C.2   168  SER168      0.2288
    122  O         46.7530 -144.5790   62.4880 O.2   168  SER168     -0.2866
    123  CB        44.9690 -146.1810   60.7090 C.3   168  SER168      0.2089
    124  OG        44.7110 -146.9760   59.5670 O.3   168  SER168     -0.2183
@<TRIPOS>BOND
     1    39    37    1
     2    41    40    1
     3    41    42    1
     4   101    98    1
     5    36    35    2
     6    37    38    1
     7    37    34    1
     8    40    35   am
     9    35    34    1
    10    91    90    1
    11    34    33    1
    12    90    87    1
    13    42    43    2
    14    98    99    1
    15    98    97    1
    16    99   100    2
    17    97    94   am
    18    33    28   am
    19    87    86    1
    20    87    88    1
    21    29    28    2
    22    86    84   am
    23    28    27    1
    24    88    92   am
    25    88    89    2
    26    92    93    1
    27    94    95    2
    28    94    93    1
    29    48    45    1
    30    84    85    2
    31    84    83    1
    32   102   103    1
    33    93    96    1
    34    45    44    1
    35    45    46    1
    36    27    30    1
    37    27    26    1
    38    83    82    1
    39    30    31    1
    40    30    32    1
    41    26    21   am
    42   103   104    1
    43   103   106    1
    44    47    46    2
    45    25    23    1
    46   104   105    2
    47   108   106    1
    48    82    78   am
    49    22    21    2
    50    21    20    1
    51   124   123    1
    52   107   106    1
    53    79    78    2
    54    78    77    1
    55    23    20    1
    56    23    24    1
    57    20    19    1
    58   123   120    1
    59   117   118    1
    60   117   114    1
    61    74    73    1
    62   120   119    1
    63   120   121    1
    64    77    80    1
    65    77    76    1
    66    19    10   am
    67   114   113    1
    68   114   115    1
    69    81    80    1
    70     6     5    1
    71    76    67   am
    72   122   121    2
    73   113   111   am
    74    73    75    1
    75    73    72    2
    76    71    72    1
    77    71    70    1
    78    11    10    2
    79    13    14    1
    80    13    12    1
    81    10     9    1
    82     1     2    1
    83    14    15    1
    84    69    70    1
    85    69    66    1
    86     5     2    1
    87     5     7    1
    88    54    53    1
    89    67    66    1
    90    67    68    2
    91   111   110    1
    92   111   112    2
    93   115   116    2
    94    55    53    1
    95   110   109    1
    96    17    16    1
    97    66    65    1
    98     2     3    1
    99    15    16    2
   100    64    63    1
   101     9    12    1
   102     9     8    1
   103    53    50    1
   104    16    18    1
   105    63    62    1
   106     4     3    2
   107    62    61    1
   108    50    49    1
   109    50    51    1
   110    61    60    1
   111    60    57    1
   112    51    52    2
   113    57    56    1
   114    57    58    1
   115    59    58    2
