@<TRIPOS>MOLECULE
tmp/6g8nK00.pdb
 104 97 0 0 0
SMALL
GASTEIGER

@<TRIPOS>ATOM
      1  N         12.0610 -142.2310    9.0350 N.3     1  THR1       -0.1218
      2  CA        11.5440 -140.9660    8.5960 C.3     1  THR1        0.1862
      3  C         11.9680 -140.8160    7.2000 C.2     1  THR1        0.2287
      4  O         13.0860 -141.1190    6.8800 O.2     1  THR1       -0.2866
      5  CB        12.2030 -139.8830    9.4090 C.3     1  THR1        0.1770
      6  OG1       11.7910 -140.0500   10.7530 O.3     1  THR1       -0.2211
      7  CG2       11.7950 -138.5380    8.8640 C.3     1  THR1        0.0375
      8  N          5.2940 -140.6350   10.0120 N.3    19  ARG19      -0.1231
      9  CA         5.3760 -141.5890   11.1310 C.3    19  ARG19       0.1694
     10  C          6.4590 -141.2480   12.1650 C.2    19  ARG19       0.2592
     11  O          7.5920 -140.9260   11.8020 O.2    19  ARG19      -0.2718
     12  CB         5.6140 -143.0080   10.5960 C.3    19  ARG19       0.0321
     13  CG         5.9720 -144.0420   11.6600 C.3    19  ARG19       0.0489
     14  CD         6.0780 -145.4290   11.0630 C.3    19  ARG19       0.2205
     15  NE         4.7730 -145.9910   10.7330 N.pl3  19  ARG19      -0.0865
     16  CZ         4.5800 -147.1890   10.1800 C.cat  19  ARG19       0.5346
     17  NH1        5.6140 -147.9780    9.8740 N.pl3  19  ARG19       0.1354
     18  NH2        3.3400 -147.6040    9.9250 N.pl3  19  ARG19       0.1354
     19  N          6.1050 -141.3740   13.4460 N.am   20  ALA20      -0.1966
     20  CA         7.0500 -141.2430   14.5580 C.3    20  ALA20       0.1728
     21  C          6.9450 -142.4510   15.4860 C.2    20  ALA20       0.2617
     22  O          5.8440 -142.9140   15.7780 O.2    20  ALA20      -0.2715
     23  CB         6.7750 -139.9700   15.3300 C.3    20  ALA20       0.0334
     24  N          8.0930 -142.9340   15.9600 N.am   21  THR21      -0.1937
     25  CA         8.1870 -144.1710   16.7490 C.3    21  THR21       0.2028
     26  C          9.0280 -143.9860   18.0140 C.2    21  THR21       0.2642
     27  O         10.0330 -143.2870   17.9930 O.2    21  THR21      -0.2714
     28  CB         8.8250 -145.2930   15.9110 C.3    21  THR21       0.1808
     29  OG1       10.0630 -144.8290   15.3600 O.3    21  THR21      -0.2208
     30  CG2        7.9140 -145.6970   14.7750 C.3    21  THR21       0.0379
     31  N          8.6100 -144.6180   19.1100 N.am   22  ALA22      -0.1963
     32  CA         9.4070 -144.6940   20.3480 C.3    22  ALA22       0.1728
     33  C          9.7300 -146.1650   20.6290 C.2    22  ALA22       0.2616
     34  O          8.8550 -146.9350   21.0360 O.2    22  ALA22      -0.2715
     35  CB         8.6470 -144.0870   21.5190 C.3    22  ALA22       0.0334
     36  N         10.9830 -146.5530   20.4150 N.am   23  GLY23      -0.1955
     37  CA        11.3450 -147.9690   20.3870 C.3    23  GLY23       0.1869
     38  C         10.7270 -148.5990   19.1470 C.2    23  GLY23       0.2309
     39  O         10.8630 -148.0620   18.0440 O.2    23  GLY23      -0.2863
     40  N          4.3110 -144.1260   17.9100 N.3    27  ALA27      -0.1245
     41  CA         3.7230 -143.0330   18.6720 C.3    27  ALA27       0.1562
     42  C          2.7140 -142.2340   17.8700 C.2    27  ALA27       0.2260
     43  O          1.6570 -141.8930   18.3860 O.2    27  ALA27      -0.2867
     44  CB         4.8160 -142.1130   19.1800 C.3    27  ALA27       0.0290
     45  N          2.2080 -136.9250   11.8310 N.3    31  VAL31      -0.1245
     46  CA         3.2120 -135.9110   12.1540 C.3    31  VAL31       0.1561
     47  C          3.4870 -135.0780   10.9060 C.2    31  VAL31       0.2260
     48  O          3.7530 -135.6180    9.8220 O.2    31  VAL31      -0.2867
     49  CB         4.5480 -136.5080   12.6670 C.3    31  VAL31       0.0252
     50  CG1        5.4000 -135.4270   13.3280 C.3    31  VAL31       0.0019
     51  CG2        4.3110 -137.6270   13.6690 C.3    31  VAL31       0.0019
     52  N          5.9730 -133.2160    9.0330 N.3    33  LYS33      -0.1245
     53  CA         7.4300 -133.1760    8.9130 C.3    33  LYS33       0.1561
     54  C          7.9100 -132.1250    7.9080 C.2    33  LYS33       0.2260
     55  O          9.1080 -132.0430    7.6160 O.2    33  LYS33      -0.2867
     56  CB         7.9450 -134.5630    8.5390 C.3    33  LYS33       0.0271
     57  CG         7.6880 -135.5840    9.6310 C.3    33  LYS33       0.0035
     58  CD         8.1950 -136.9590    9.2510 C.3    33  LYS33       0.0206
     59  CE         8.1460 -137.8800   10.4560 C.3    33  LYS33       0.1093
     60  NZ         8.5050 -139.2760   10.0930 N.3    33  LYS33      -0.1314
     61  N         11.7880 -131.8990    8.1810 N.3    45  MET45      -0.1182
     62  CA        12.1770 -132.3010    9.5340 C.3    45  MET45       0.1917
     63  C         12.7030 -133.7410    9.5510 C.2    45  MET45       0.2634
     64  O         12.0180 -134.6750    9.1320 O.2    45  MET45      -0.2714
     65  CB        11.0070 -132.0710   10.5130 C.2    45  MET45       0.0083
     66  CG        10.7410 -133.1610   11.5480 C.2    45  MET45       0.0282
     67  SD         9.3960 -132.8800   12.7200 S.3    45  MET45      -0.1125
     68  CE         9.3230 -131.0880   12.8060 C.3    45  MET45       0.0742
     69  N         13.9340 -133.8950   10.0240 N.am   46  ALA46      -0.1963
     70  CA        14.5180 -135.2030   10.2900 C.3    46  ALA46       0.1728
     71  C         15.4350 -135.1040   11.5070 C.2    46  ALA46       0.2617
     72  O         16.0180 -134.0480   11.7580 O.2    46  ALA46      -0.2715
     73  CB        15.2820 -135.6990    9.0760 C.3    46  ALA46       0.0334
     74  N         15.5430 -136.1970   12.2640 N.am   47  GLY47      -0.1940
     75  CA        16.3970 -136.2590   13.4500 C.3    47  GLY47       0.2014
     76  C         15.6190 -136.0270   14.7290 C.2    47  GLY47       0.2639
     77  O         14.9640 -136.9380   15.2320 O.2    47  GLY47      -0.2714
     78  N         15.7060 -134.8090   15.2580 N.am   48  GLY48      -0.1939
     79  CA        15.0120 -134.4260   16.4860 C.3    48  GLY48       0.2014
     80  C         13.8610 -133.5240   16.1120 C.2    48  GLY48       0.2638
     81  O         14.0870 -132.4640   15.5230 O.2    48  GLY48      -0.2714
     82  N         12.6380 -133.9520   16.4400 N.am   49  ALA49      -0.1977
     83  CA        11.4080 -133.2230   16.0760 C.3    49  ALA49       0.1597
     84  C         11.3590 -131.8190   16.6770 C.2    49  ALA49       0.2287
     85  O         10.9670 -130.8570   16.0080 O.2    49  ALA49      -0.2864
     86  CB        10.1770 -134.0090   16.5040 C.3    49  ALA49       0.0319
     87  N         15.6870 -142.4540    7.8640 N.3   131  SER131     -0.1217
     88  CA        15.9160 -143.9070    7.8530 C.3   131  SER131      0.1889
     89  C         15.5060 -144.5910    6.5410 C.2   131  SER131      0.2288
     90  O         16.0950 -145.6150    6.1780 O.2   131  SER131     -0.2866
     91  CB        15.2080 -144.5820    9.0350 C.3   131  SER131      0.2089
     92  OG        13.8070 -144.4010    8.9890 O.3   131  SER131     -0.2183
     93  N         10.3610 -147.7480    9.9950 N.3   170  TYR170     -0.1241
     94  CA        10.2020 -146.4700   10.7160 C.3   170  TYR170      0.1605
     95  C          9.6200 -145.3100    9.8790 C.2   170  TYR170      0.2264
     96  O          9.4760 -144.1910   10.4040 O.2   170  TYR170     -0.2867
     97  CB        11.5500 -146.0620   11.3390 C.3   170  TYR170      0.0534
     98  CG        12.0680 -147.1010   12.3120 C.ar  170  TYR170     -0.0201
     99  CD1       11.3240 -147.4420   13.4440 C.ar  170  TYR170     -0.0009
    100  CD2       13.2840 -147.7640   12.1000 C.ar  170  TYR170     -0.0009
    101  CE1       11.7720 -148.4020   14.3410 C.ar  170  TYR170      0.0417
    102  CE2       13.7410 -148.7270   12.9950 C.ar  170  TYR170      0.0417
    103  CZ        12.9780 -149.0410   14.1160 C.ar  170  TYR170      0.1957
    104  OH        13.3940 -149.9870   15.0280 O.3   170  TYR170     -0.2866
@<TRIPOS>BOND
     1    90    89    2
     2    89    88    1
     3     4     3    2
     4     3     2    1
     5    55    54    2
     6    88    87    1
     7    88    91    1
     8    54    53    1
     9    61    62    1
    10    56    53    1
    11    56    57    1
    12     2     1    1
    13     2     5    1
    14     7     5    1
    15    53    52    1
    16    92    91    1
    17    73    70    1
    18    64    63    2
    19    58    57    1
    20    58    59    1
    21     5     6    1
    22    62    63    1
    23    62    65    1
    24    63    69   am
    25    48    47    2
    26    17    16    1
    27    95    96    2
    28    95    94    1
    29    18    16    1
    30    93    94    1
    31     8     9    1
    32    69    70    1
    33    60    59    1
    34    16    15    2
    35    70    71    1
    36    65    66    2
    37    12     9    1
    38    12    13    1
    39    94    97    1
    40    15    14    1
    41    47    46    1
    42    14    13    1
    43     9    10    1
    44    97    98    1
    45    71    72    2
    46    71    74   am
    47    66    67    1
    48    11    10    2
    49    45    46    1
    50   100    98   ar
    51   100   102   ar
    52    46    49    1
    53    10    19   am
    54    74    75    1
    55    98    99   ar
    56    49    50    1
    57    49    51    1
    58    67    68    1
    59   102   103   ar
    60    99   101   ar
    61    19    20    1
    62    75    76    1
    63   103   101   ar
    64   103   104    1
    65    20    23    1
    66    20    21    1
    67    76    77    2
    68    76    78   am
    69    30    28    1
    70    78    79    1
    71    29    28    1
    72    21    22    2
    73    21    24   am
    74    81    80    2
    75    28    25    1
    76    24    25    1
    77    85    84    2
    78    83    82    1
    79    83    86    1
    80    83    84    1
    81    80    82   am
    82    80    79    1
    83    25    26    1
    84    42    43    2
    85    42    41    1
    86    40    41    1
    87    27    26    2
    88    26    31   am
    89    39    38    2
    90    41    44    1
    91    31    32    1
    92    38    37    1
    93    32    33    1
    94    32    35    1
    95    37    36    1
    96    36    33   am
    97    33    34    2
