@<TRIPOS>MOLECULE
tmp/6g8xA00.pdb
 93 87 0 0 0
SMALL
GASTEIGER

@<TRIPOS>ATOM
      1  N          1.8930   12.5370   47.1630 N.3    25  ALA25      -0.1231
      2  CA         0.4630   12.7390   46.9680 C.3    25  ALA25       0.1694
      3  C         -0.0900   13.7930   47.9220 C.2    25  ALA25       0.2592
      4  O         -0.6800   14.7730   47.4610 O.2    25  ALA25      -0.2718
      5  CB        -0.2690   11.4330   47.1150 C.3    25  ALA25       0.0304
      6  N          0.0830   13.5960   49.2380 N.am   26  TYR26      -0.1976
      7  CA         0.1980   14.7150   50.1720 C.3    26  TYR26       0.1639
      8  C          1.3180   14.4150   51.1750 C.2    26  TYR26       0.2290
      9  O          1.0820   13.8330   52.2410 O.2    26  TYR26      -0.2864
     10  CB        -1.1310   15.0620   50.8760 C.3    26  TYR26       0.0560
     11  CG        -0.9820   16.2010   51.8670 C.ar   26  TYR26      -0.0198
     12  CD1       -0.7350   17.5000   51.4340 C.ar   26  TYR26      -0.0009
     13  CD2       -1.0530   15.9730   53.2380 C.ar   26  TYR26      -0.0009
     14  CE1       -0.5830   18.5490   52.3400 C.ar   26  TYR26       0.0417
     15  CE2       -0.9000   17.0120   54.1530 C.ar   26  TYR26       0.0417
     16  CZ        -0.6620   18.3010   53.7010 C.ar   26  TYR26       0.1957
     17  OH        -0.5130   19.3480   54.5850 O.3    26  TYR26      -0.2866
     18  N          8.9740    8.6060   51.7170 N.3    44  LYS44      -0.1245
     19  CA         7.8970    9.5700   51.5760 C.3    44  LYS44       0.1561
     20  C          7.2110    9.7320   52.9130 C.2    44  LYS44       0.2260
     21  O          6.8300    8.7400   53.5380 O.2    44  LYS44      -0.2867
     22  CB         6.9110    9.1940   50.4580 C.3    44  LYS44       0.0271
     23  CG         6.0260    7.9890   50.6700 C.3    44  LYS44       0.0035
     24  CD         5.1600    7.7670   49.4160 C.3    44  LYS44       0.0206
     25  CE         4.4580    6.4380   49.4590 C.3    44  LYS44       0.1093
     26  NZ         3.3460    6.3680   48.4710 N.3    44  LYS44      -0.1314
     27  N          4.0350   10.8470   54.9710 N.3    46  ILE46      -0.1245
     28  CA         2.6050   10.9320   54.7870 C.3    46  ILE46       0.1561
     29  C          2.0760   11.4560   56.1010 C.2    46  ILE46       0.2260
     30  O          2.4450   10.9500   57.1600 O.2    46  ILE46      -0.2867
     31  CB         1.9450    9.5840   54.4150 C.3    46  ILE46       0.0252
     32  CG1        2.6370    8.9360   53.2210 C.3    46  ILE46       0.0019
     33  CG2        0.4550    9.7760   54.0950 C.3    46  ILE46       0.0019
     34  CD1        2.1750    7.5870   52.9090 C.3    46  ILE46       0.0001
     35  N         -7.2230   10.7000   52.8890 N.3    54  TYR54      -0.1241
     36  CA        -5.8020   10.3540   53.0160 C.3    54  TYR54       0.1605
     37  C         -5.5970    9.0900   53.8750 C.2    54  TYR54       0.2264
     38  O         -4.7280    8.2980   53.5170 O.2    54  TYR54      -0.2867
     39  CB        -4.9460   11.5390   53.5100 C.3    54  TYR54       0.0534
     40  CG        -4.9610   12.7630   52.6130 C.ar   54  TYR54      -0.0201
     41  CD1       -5.1310   12.6460   51.2310 C.ar   54  TYR54      -0.0009
     42  CD2       -4.8130   14.0390   53.1430 C.ar   54  TYR54      -0.0009
     43  CE1       -5.1660   13.7690   50.4100 C.ar   54  TYR54       0.0417
     44  CE2       -4.8510   15.1730   52.3280 C.ar   54  TYR54       0.0417
     45  CZ        -5.0290   15.0340   50.9610 C.ar   54  TYR54       0.1957
     46  OH        -5.0500   16.1400   50.1410 O.3    54  TYR54      -0.2866
     47  N         -6.4500    6.0100   51.6210 N.3    57  ARG57      -0.1231
     48  CA        -5.4210    5.8100   50.5890 C.3    57  ARG57       0.1694
     49  C         -4.1460    5.2840   51.1680 C.2    57  ARG57       0.2592
     50  O         -3.5370    4.3940   50.5780 O.2    57  ARG57      -0.2718
     51  CB        -5.1150    7.1100   49.8730 C.3    57  ARG57       0.0321
     52  CG        -6.2850    7.6270   49.0620 C.3    57  ARG57       0.0489
     53  CD        -6.0250    9.0140   48.5950 C.3    57  ARG57       0.2205
     54  NE        -7.0780    9.4690   47.6820 N.pl3  57  ARG57      -0.0865
     55  CZ        -7.1620   10.6780   47.1310 C.cat  57  ARG57       0.5346
     56  NH1       -6.2510   11.6030   47.3970 N.pl3  57  ARG57       0.1354
     57  NH2       -8.1670   10.9730   46.3160 N.pl3  57  ARG57       0.1354
     58  N         -3.7210    5.8430   52.3450 N.am   58  THR58      -0.1953
     59  CA        -2.5500    5.3450   53.0490 C.3    58  THR58       0.1897
     60  C         -2.7080    3.8790   53.4340 C.2    58  THR58       0.2313
     61  O         -1.7760    3.1120   53.2730 O.2    58  THR58      -0.2863
     62  CB        -2.2870    6.1740   54.3180 C.3    58  THR58       0.1794
     63  OG1       -2.1650    7.5420   53.9440 O.3    58  THR58      -0.2208
     64  CG2       -1.0360    5.7290   55.0470 C.3    58  THR58       0.0378
     65  N         -2.6770    1.4300   50.2440 N.3    61  GLU61      -0.1245
     66  CA        -1.3620    1.3030   49.6900 C.3    61  GLU61       0.1567
     67  C         -0.4910    0.4300   50.5450 C.2    61  GLU61       0.2260
     68  O          0.1900   -0.4470   50.0350 O.2    61  GLU61      -0.2867
     69  CB        -0.7130    2.6540   49.5560 C.3    61  GLU61       0.0388
     70  CG         0.1470    2.7460   48.3320 C.3    61  GLU61       0.1160
     71  CD         1.3750    3.5640   48.5450 C.2    61  GLU61       0.3649
     72  OE1        1.5530    4.1190   49.6510 O.co2  61  GLU61      -0.2457
     73  OE2        2.1260    3.7200   47.5680 O.co2  61  GLU61      -0.2457
     74  N          2.3300    3.6170   43.5980 N.3   156  ASP156     -0.1239
     75  CA         1.1860    4.3780   44.0800 C.3   156  ASP156      0.1674
     76  C         -0.0880    3.6100   43.9600 C.2   156  ASP156      0.2266
     77  O         -0.7730    3.7120   42.9730 O.2   156  ASP156     -0.2867
     78  CB         1.0210    5.7490   43.4310 C.3   156  ASP156      0.1410
     79  CG         0.0460    6.6140   44.2490 C.2   156  ASP156      0.3668
     80  OD1       -0.6200    6.0730   45.1860 O.co2 156  ASP156     -0.2456
     81  OD2       -0.0550    7.7960   43.9710 O.co2 156  ASP156     -0.2456
     82  N         -2.5670    3.9850   46.1840 N.3   158  GLY158     -0.1210
     83  CA        -3.5380    4.6640   47.0300 C.3   158  GLY158      0.1956
     84  C         -4.9290    4.7320   46.4410 C.2   158  GLY158      0.2611
     85  O         -5.8960    4.8370   47.1820 O.2   158  GLY158     -0.2717
     86  N         -5.0560    4.6740   45.1040 N.am  159  LEU159     -0.1979
     87  CA        -6.3420    4.7940   44.4410 C.3   159  LEU159      0.1596
     88  C         -6.8640    3.4210   43.9800 C.2   159  LEU159      0.2287
     89  O         -7.8930    3.3370   43.3090 O.2   159  LEU159     -0.2864
     90  CB        -6.1820    5.7510   43.2530 C.3   159  LEU159      0.0297
     91  CG        -5.6190    7.1910   43.5570 C.3   159  LEU159      0.0022
     92  CD1       -6.2960    7.8160   44.7300 C.3   159  LEU159      0.0001
     93  CD2       -4.0940    7.1960   43.7450 C.3   159  LEU159      0.0001
@<TRIPOS>BOND
     1    77    76    2
     2    90    91    1
     3    90    87    1
     4    89    88    2
     5    78    75    1
     6    78    79    1
     7    91    93    1
     8    91    92    1
     9    74    75    1
    10    76    75    1
    11    81    79   ar
    12    88    87    1
    13    79    80   ar
    14    87    86    1
    15    86    84   am
    16    82    83    1
    17    57    55    1
    18    84    83    1
    19    84    85    2
    20     2     5    1
    21     2     1    1
    22     2     3    1
    23    55    56    1
    24    55    54    2
    25     4     3    2
    26    73    71   ar
    27    54    53    1
    28     3     6   am
    29    70    71    1
    30    70    69    1
    31    26    25    1
    32    71    72   ar
    33    53    52    1
    34    52    51    1
    35     6     7    1
    36    24    25    1
    37    24    23    1
    38    69    66    1
    39    66    65    1
    40    66    67    1
    41    51    48    1
    42    68    67    2
    43    46    45    1
    44     7    10    1
    45     7     8    1
    46    43    45   ar
    47    43    41   ar
    48    22    23    1
    49    22    19    1
    50    50    49    2
    51    48    49    1
    52    48    47    1
    53    10    11    1
    54    45    44   ar
    55    49    58   am
    56     8     9    2
    57    41    40   ar
    58    12    11   ar
    59    12    14   ar
    60    19    18    1
    61    19    20    1
    62    11    13   ar
    63    44    42   ar
    64    14    16   ar
    65    58    59    1
    66    40    42   ar
    67    40    39    1
    68    35    36    1
    69    34    32    1
    70    20    21    2
    71    36    39    1
    72    36    37    1
    73    59    60    1
    74    59    62    1
    75    32    31    1
    76    13    15   ar
    77    61    60    2
    78    38    37    2
    79    16    15   ar
    80    16    17    1
    81    63    62    1
    82    33    31    1
    83    62    64    1
    84    31    28    1
    85    28    27    1
    86    28    29    1
    87    29    30    2
