@<TRIPOS>MOLECULE
tmp/6g8xA01.pdb
 117 108 0 0 0
SMALL
GASTEIGER

@<TRIPOS>ATOM
      1  N         13.6890   15.2430   47.1660 N.3    21  ILE21      -0.1245
      2  CA        13.4300   14.7570   45.8020 C.3    21  ILE21       0.1561
      3  C         12.2710   15.5440   45.2020 C.2    21  ILE21       0.2260
      4  O         12.4160   16.1280   44.1320 O.2    21  ILE21      -0.2867
      5  CB        13.1440   13.2240   45.7690 C.3    21  ILE21       0.0252
      6  CG1       14.4600   12.4430   45.8090 C.3    21  ILE21       0.0019
      7  CG2       12.3080   12.8330   44.5140 C.3    21  ILE21       0.0019
      8  CD1       14.3200   10.9370   46.0530 C.3    21  ILE21       0.0001
      9  N          8.9190   13.9620   49.8140 N.3    29  VAL29      -0.1245
     10  CA         9.7120   12.7830   49.4420 C.3    29  VAL29       0.1561
     11  C         11.1980   13.1750   49.4630 C.2    29  VAL29       0.2260
     12  O         11.5520   14.2250   48.9310 O.2    29  VAL29      -0.2867
     13  CB         9.2930   12.2110   48.0600 C.3    29  VAL29       0.0252
     14  CG1       10.0010   10.8960   47.7730 C.3    29  VAL29       0.0019
     15  CG2        7.7820   12.0220   47.9800 C.3    29  VAL29       0.0019
     16  N         14.4760    5.7140   48.9940 N.3    42  ALA42      -0.1245
     17  CA        13.4580    6.7480   48.8980 C.3    42  ALA42       0.1562
     18  C         12.6070    6.6610   50.1750 C.2    42  ALA42       0.2260
     19  O         12.4040    5.5680   50.6990 O.2    42  ALA42      -0.2867
     20  CB        12.5960    6.5280   47.6720 C.3    42  ALA42       0.0290
     21  N          8.9740    8.6060   51.7170 N.3    44  LYS44      -0.1245
     22  CA         7.8970    9.5700   51.5760 C.3    44  LYS44       0.1561
     23  C          7.2110    9.7320   52.9130 C.2    44  LYS44       0.2260
     24  O          6.8300    8.7400   53.5380 O.2    44  LYS44      -0.2867
     25  CB         6.9110    9.1940   50.4580 C.3    44  LYS44       0.0271
     26  CG         6.0260    7.9890   50.6700 C.3    44  LYS44       0.0035
     27  CD         5.1600    7.7670   49.4160 C.3    44  LYS44       0.0206
     28  CE         4.4580    6.4380   49.4590 C.3    44  LYS44       0.1093
     29  NZ         3.3460    6.3680   48.4710 N.3    44  LYS44      -0.1314
     30  N          6.7530   -1.6540   43.0360 N.3    74  ILE74      -0.1245
     31  CA         7.5770   -1.1160   44.1170 C.3    74  ILE74       0.1561
     32  C          7.1990   -1.8180   45.4500 C.2    74  ILE74       0.2260
     33  O          6.0440   -2.0550   45.7290 O.2    74  ILE74      -0.2867
     34  CB         7.4050    0.4350   44.2140 C.3    74  ILE74       0.0252
     35  CG1        8.5340    1.0580   45.0770 C.3    74  ILE74       0.0019
     36  CG2        6.0430    0.8070   44.8130 C.3    74  ILE74       0.0019
     37  CD1        9.9220    0.9900   44.4630 C.3    74  ILE74       0.0001
     38  N         11.2090    2.9970   50.4870 N.3    95  GLN95      -0.1231
     39  CA        11.1550    2.2260   49.2600 C.3    95  GLN95       0.1698
     40  C         12.4770    2.3110   48.5440 C.2    95  GLN95       0.2592
     41  O         13.2950    3.2210   48.7900 O.2    95  GLN95      -0.2718
     42  CB         9.9980    2.7010   48.3860 C.3    95  GLN95       0.0381
     43  CG         8.6560    2.6520   49.1120 C.3    95  GLN95       0.0905
     44  CD         7.5290    3.1200   48.2480 C.2    95  GLN95       0.2608
     45  OE1        7.4630    4.2830   47.8900 O.2    95  GLN95      -0.2717
     46  NE2        6.5780    2.2570   47.9530 N.am   95  GLN95      -0.0878
     47  N         12.7070    1.3380   47.6630 N.am   96  ASP96      -0.1960
     48  CA        13.8820    1.3500   46.7900 C.3    96  ASP96       0.1840
     49  C         13.9890    2.6830   46.1010 C.2    96  ASP96       0.2622
     50  O         12.9770    3.2410   45.6630 O.2    96  ASP96      -0.2715
     51  CB        13.8030    0.2500   45.7140 C.3    96  ASP96       0.1450
     52  CG        13.9540   -1.1620   46.2340 C.2    96  ASP96       0.3671
     53  OD1       13.5670   -2.0990   45.5160 O.co2  96  ASP96      -0.2456
     54  OD2       14.3350   -1.3260   47.4050 O.co2  96  ASP96      -0.2456
     55  N         15.2110    3.2110   46.0170 N.am   97  LEU97      -0.1963
     56  CA        15.4250    4.4440   45.3400 C.3    97  LEU97       0.1728
     57  C         15.4840    4.1310   43.8470 C.2    97  LEU97       0.2616
     58  O         16.2140    3.2200   43.4320 O.2    97  LEU97      -0.2715
     59  CB        16.7160    5.1330   45.7810 C.3    97  LEU97       0.0311
     60  CG        16.9540    6.5400   45.2660 C.3    97  LEU97       0.0022
     61  CD1       15.8610    7.4920   45.6320 C.3    97  LEU97       0.0001
     62  CD2       18.3060    7.0680   45.7610 C.3    97  LEU97       0.0001
     63  N         14.6920    4.8570   43.0680 N.am   98  MET98      -0.1963
     64  CA        14.7200    4.7420   41.5940 C.3    98  MET98       0.1736
     65  C         15.1400    6.0880   40.9690 C.2    98  MET98       0.2616
     66  O         14.5480    7.0950   41.3070 O.2    98  MET98      -0.2715
     67  CB        13.3130    4.3270   41.1200 C.3    98  MET98       0.0427
     68  CG        12.7910    3.0190   41.7330 C.3    98  MET98       0.0599
     69  SD        13.7200    1.6000   41.1960 S.3    98  MET98      -0.1393
     70  CE        12.8470    1.2660   39.6330 C.3    98  MET98       0.0692
     71  N         16.1470    6.0990   40.0540 N.am   99  GLU99      -0.1963
     72  CA        16.7430    7.3300   39.4530 C.3    99  GLU99       0.1733
     73  C         15.6630    8.2760   38.9040 C.2    99  GLU99       0.2617
     74  O         15.7290    9.4880   39.1200 O.2    99  GLU99      -0.2715
     75  CB        17.7670    6.9850   38.3160 C.3    99  GLU99       0.0429
     76  CG        18.0130    8.1100   37.3020 C.3    99  GLU99       0.1163
     77  CD        19.3490    8.1630   36.5830 C.2    99  GLU99       0.3649
     78  OE1       20.3430    8.5580   37.2350 O.co2  99  GLU99      -0.2457
     79  OE2       19.3820    7.9330   35.3490 O.co2  99  GLU99      -0.2457
     80  N         14.6660    7.7260   38.1750 N.am  100  THR100     -0.1937
     81  CA        13.7410    8.6070   37.4760 C.3   100  THR100      0.2028
     82  C         12.3640    7.9690   37.3650 C.2   100  THR100      0.2642
     83  O         12.0690    7.0020   38.0750 O.2   100  THR100     -0.2714
     84  CB        14.3500    9.0190   36.1280 C.3   100  THR100      0.1808
     85  OG1       13.5740   10.0880   35.5660 O.3   100  THR100     -0.2208
     86  CG2       14.5280    7.8680   35.1550 C.3   100  THR100      0.0379
     87  N         11.5190    8.5300   36.5110 N.am  101  ASP101     -0.1971
     88  CA        10.2000    7.9630   36.2550 C.3   101  ASP101      0.1709
     89  C          9.8420    8.1990   34.7980 C.2   101  ASP101      0.2293
     90  O         10.5130    8.9620   34.1360 O.2   101  ASP101     -0.2864
     91  CB         9.1200    8.5120   37.2280 C.3   101  ASP101      0.1436
     92  CG         8.8750   10.0040   37.1300 C.2   101  ASP101      0.3671
     93  OD1        8.4670   10.4530   36.0800 O.co2 101  ASP101     -0.2456
     94  OD2        9.0520   10.7040   38.1400 O.co2 101  ASP101     -0.2456
     95  N          9.2020   11.9950   33.7000 N.3   104  LYS104     -0.1245
     96  CA        10.4300   12.7730   33.5770 C.3   104  LYS104      0.1561
     97  C         11.1890   12.3560   32.3190 C.2   104  LYS104      0.2260
     98  O         11.7120   13.1980   31.6000 O.2   104  LYS104     -0.2867
     99  CB        11.2860   12.5780   34.8250 C.3   104  LYS104      0.0271
    100  CG        10.7040   13.2270   36.0770 C.3   104  LYS104      0.0035
    101  CD        11.6160   12.9500   37.2990 C.3   104  LYS104      0.0206
    102  CE        11.0940   13.5960   38.5600 C.3   104  LYS104      0.1093
    103  NZ        11.9670   13.3030   39.7340 N.3   104  LYS104     -0.1314
    104  N          8.2030    4.0490   37.9100 N.3   146  LEU146     -0.1245
    105  CA         9.5710    4.4180   38.3170 C.3   146  LEU146      0.1561
    106  C         10.6250    3.6120   37.4930 C.2   146  LEU146      0.2260
    107  O         10.4080    2.4710   37.2030 O.2   146  LEU146     -0.2867
    108  CB         9.7360    4.0780   39.7730 C.3   146  LEU146      0.0270
    109  CG         8.7520    4.6960   40.7150 C.3   146  LEU146      0.0019
    110  CD1        9.0180    4.2550   42.1250 C.3   146  LEU146      0.0001
    111  CD2        8.7300    6.2320   40.5860 C.3   146  LEU146      0.0001
    112  N          4.2340    2.0920   40.8520 N.3   155  CYS155     -0.1235
    113  CA         4.0310    2.6250   42.1740 C.3   155  CYS155      0.1677
    114  C          2.6430    3.2750   42.3440 C.2   155  CYS155      0.2270
    115  O          1.8950    3.4260   41.4110 O.2   155  CYS155     -0.2867
    116  CB         5.1590    3.5930   42.5200 C.3   155  CYS155      0.0956
    117  SG         5.0330    5.1820   41.7080 S.3   155  CYS155     -0.0801
@<TRIPOS>BOND
     1    98    97    2
     2    97    96    1
     3    96    95    1
     4    96    99    1
     5    90    89    2
     6    89    88    1
     7    99   100    1
     8    86    84    1
     9    79    77   ar
    10    85    84    1
    11   100   101    1
    12    93    92   ar
    13    84    81    1
    14    88    87    1
    15    88    91    1
    16    87    82   am
    17    77    78   ar
    18    77    76    1
    19    92    91    1
    20    92    94   ar
    21   107   106    2
    22   101   102    1
    23    76    75    1
    24    82    81    1
    25    82    83    2
    26    81    80    1
    27   106   105    1
    28   104   105    1
    29    80    73   am
    30    75    72    1
    31   105   108    1
    32   102   103    1
    33    73    74    2
    34    73    72    1
    35    72    71    1
    36    70    69    1
    37   108   109    1
    38    71    65   am
    39   111   109    1
    40   109   110    1
    41   112   113    1
    42    65    66    2
    43    65    64    1
    44    67    64    1
    45    67    68    1
    46    69    68    1
    47   115   114    2
    48    64    63    1
    49   117   116    1
    50   113   114    1
    51   113   116    1
    52    30    31    1
    53    63    57   am
    54    58    57    2
    55    57    56    1
    56    31    34    1
    57    31    32    1
    58     4     3    2
    59    34    36    1
    60    34    35    1
    61    37    35    1
    62     7     5    1
    63     3     2    1
    64    60    61    1
    65    60    62    1
    66    60    59    1
    67    56    59    1
    68    56    55    1
    69    32    33    2
    70    53    52   ar
    71    50    49    2
    72    51    52    1
    73    51    48    1
    74     5     2    1
    75     5     6    1
    76     2     1    1
    77     6     8    1
    78    55    49   am
    79    49    48    1
    80    52    54   ar
    81    48    47    1
    82    47    40   am
    83    20    17    1
    84    14    13    1
    85    45    44    2
    86    46    44   am
    87    15    13    1
    88    13    10    1
    89    44    43    1
    90    42    43    1
    91    42    39    1
    92    29    28    1
    93    40    41    2
    94    40    39    1
    95    17    16    1
    96    17    18    1
    97    12    11    2
    98    39    38    1
    99    27    28    1
   100    27    26    1
   101    10    11    1
   102    10     9    1
   103    18    19    2
   104    25    26    1
   105    25    22    1
   106    22    21    1
   107    22    23    1
   108    23    24    2
