@<TRIPOS>MOLECULE
tmp/6g91A00.pdb
 117 108 0 0 0
SMALL
GASTEIGER

@<TRIPOS>ATOM
      1  N         13.7480   15.7390   46.9440 N.3    24  ILE24      -0.1245
      2  CA        13.3870   15.3000   45.5810 C.3    24  ILE24       0.1561
      3  C         12.2270   16.1490   45.0900 C.2    24  ILE24       0.2260
      4  O         12.3770   16.8740   44.1090 O.2    24  ILE24      -0.2867
      5  CB        13.0690   13.7780   45.5110 C.3    24  ILE24       0.0252
      6  CG1       14.3770   12.9710   45.5200 C.3    24  ILE24       0.0019
      7  CG2       12.1840   13.4160   44.2590 C.3    24  ILE24       0.0019
      8  CD1       14.2080   11.5160   45.7480 C.3    24  ILE24       0.0001
      9  N          9.0620   14.3350   49.5830 N.3    32  VAL32      -0.1245
     10  CA         9.8370   13.1800   49.1400 C.3    32  VAL32       0.1561
     11  C         11.3060   13.5460   49.1550 C.2    32  VAL32       0.2260
     12  O         11.6820   14.5790   48.6090 O.2    32  VAL32      -0.2867
     13  CB         9.4190   12.7010   47.7350 C.3    32  VAL32       0.0252
     14  CG1       10.2970   11.5290   47.2840 C.3    32  VAL32       0.0019
     15  CG2        7.9470   12.3150   47.7160 C.3    32  VAL32       0.0019
     16  N         14.6670    5.9740   48.7190 N.3    45  ALA45      -0.1245
     17  CA        13.6850    7.0370   48.6050 C.3    45  ALA45       0.1562
     18  C         12.8430    7.0000   49.8610 C.2    45  ALA45       0.2260
     19  O         12.5680    5.9120   50.3610 O.2    45  ALA45      -0.2867
     20  CB        12.8270    6.8580   47.3680 C.3    45  ALA45       0.0290
     21  N          9.1830    8.8710   51.5010 N.3    47  LYS47      -0.1245
     22  CA         8.0150    9.7440   51.4140 C.3    47  LYS47       0.1561
     23  C          7.3550    9.9010   52.7520 C.2    47  LYS47       0.2260
     24  O          7.0870    8.9100   53.4230 O.2    47  LYS47      -0.2867
     25  CB         6.9980    9.2780   50.3580 C.3    47  LYS47       0.0271
     26  CG         6.2830    7.9790   50.5900 C.3    47  LYS47       0.0035
     27  CD         5.2890    7.8040   49.4480 C.3    47  LYS47       0.0206
     28  CE         4.7300    6.4220   49.3810 C.3    47  LYS47       0.1093
     29  NZ         3.5380    6.3970   48.5160 N.3    47  LYS47      -0.1314
     30  N          7.0240   -1.5450   42.8350 N.3    77  ILE77      -0.1245
     31  CA         7.8170   -0.9920   43.9230 C.3    77  ILE77       0.1561
     32  C          7.4240   -1.7000   45.2360 C.2    77  ILE77       0.2260
     33  O          6.2470   -1.9220   45.5410 O.2    77  ILE77      -0.2867
     34  CB         7.6690    0.5650   44.0090 C.3    77  ILE77       0.0252
     35  CG1        8.8230    1.2140   44.7890 C.3    77  ILE77       0.0019
     36  CG2        6.3040    0.9940   44.6040 C.3    77  ILE77       0.0019
     37  CD1       10.1670    1.0390   44.2010 C.3    77  ILE77       0.0001
     38  N         11.5150    3.2390   50.2530 N.3    98  GLN98      -0.1231
     39  CA        11.4550    2.4280   49.0390 C.3    98  GLN98       0.1698
     40  C         12.7260    2.5300   48.3010 C.2    98  GLN98       0.2592
     41  O         13.4970    3.4840   48.5050 O.2    98  GLN98      -0.2718
     42  CB        10.2780    2.8630   48.1400 C.3    98  GLN98       0.0381
     43  CG         8.9640    2.7310   48.8620 C.3    98  GLN98       0.0905
     44  CD         7.7750    3.1410   48.0610 C.2    98  GLN98       0.2608
     45  OE1        7.5470    4.3210   47.8960 O.2    98  GLN98      -0.2717
     46  NE2        6.8720    2.2200   47.7390 N.am   98  GLN98      -0.0878
     47  N         12.9780    1.5330   47.4220 N.am   99  ASP99      -0.1960
     48  CA        14.1550    1.5900   46.5600 C.3    99  ASP99       0.1840
     49  C         14.2240    2.9680   45.8570 C.2    99  ASP99       0.2622
     50  O         13.2000    3.4890   45.4200 O.2    99  ASP99      -0.2715
     51  CB        14.1660    0.4700   45.5140 C.3    99  ASP99       0.1450
     52  CG        14.2420   -0.9370   46.0500 C.2    99  ASP99       0.3671
     53  OD1       13.8330   -1.8670   45.3220 O.co2  99  ASP99      -0.2456
     54  OD2       14.6010   -1.1060   47.2410 O.co2  99  ASP99      -0.2456
     55  N         15.4270    3.5450   45.7810 N.am  100  LEU100     -0.1963
     56  CA        15.6580    4.8030   45.0920 C.3   100  LEU100      0.1728
     57  C         15.8500    4.5210   43.6170 C.2   100  LEU100      0.2616
     58  O         16.7350    3.7640   43.2480 O.2   100  LEU100     -0.2715
     59  CB        16.8900    5.5420   45.6230 C.3   100  LEU100      0.0311
     60  CG        17.1450    6.9310   45.0290 C.3   100  LEU100      0.0022
     61  CD1       15.9790    7.8550   45.2250 C.3   100  LEU100      0.0001
     62  CD2       18.4100    7.5090   45.5480 C.3   100  LEU100      0.0001
     63  N         15.0200    5.1390   42.7920 N.am  101  MET101     -0.1963
     64  CA        14.9890    4.9250   41.3380 C.3   101  MET101      0.1736
     65  C         15.5610    6.2100   40.6970 C.2   101  MET101      0.2616
     66  O         15.3880    7.2770   41.2530 O.2   101  MET101     -0.2715
     67  CB        13.5400    4.6030   40.9230 C.3   101  MET101      0.0427
     68  CG        13.0010    3.3340   41.5770 C.3   101  MET101      0.0599
     69  SD        13.8130    1.8100   41.0500 S.3   101  MET101     -0.1393
     70  CE        12.9660    1.5220   39.4170 C.3   101  MET101      0.0692
     71  N         16.2730    6.1010   39.5670 N.am  102  GLU102     -0.1963
     72  CA        16.9700    7.2410   38.9280 C.3   102  GLU102      0.1733
     73  C         15.9520    8.2710   38.4580 C.2   102  GLU102      0.2617
     74  O         16.1710    9.4700   38.6040 O.2   102  GLU102     -0.2715
     75  CB        17.8430    6.7920   37.6970 C.3   102  GLU102      0.0429
     76  CG        18.1930    7.9230   36.7190 C.3   102  GLU102      0.1163
     77  CD        19.4130    7.8120   35.8140 C.2   102  GLU102      0.3649
     78  OE1       20.3970    8.5420   36.0650 O.co2 102  GLU102     -0.2457
     79  OE2       19.3460    7.0920   34.7930 O.co2 102  GLU102     -0.2457
     80  N         14.8350    7.8100   37.8770 N.am  103  THR103     -0.1937
     81  CA        13.8690    8.6980   37.2710 C.3   103  THR103      0.2028
     82  C         12.4910    8.0620   37.2000 C.2   103  THR103      0.2642
     83  O         12.2390    6.9800   37.7840 O.2   103  THR103     -0.2714
     84  CB        14.4010    9.1200   35.8680 C.3   103  THR103      0.1808
     85  OG1       13.7080   10.2670   35.4150 O.3   103  THR103     -0.2208
     86  CG2       14.3430    7.9870   34.8420 C.3   103  THR103      0.0379
     87  N         11.5670    8.7330   36.4840 N.am  104  ASP104     -0.1971
     88  CA        10.2710    8.1270   36.1550 C.3   104  ASP104      0.1709
     89  C          9.9420    8.3560   34.6670 C.2   104  ASP104      0.2293
     90  O         10.6180    9.1370   33.9950 O.2   104  ASP104     -0.2864
     91  CB         9.1500    8.6570   37.0470 C.3   104  ASP104      0.1436
     92  CG         8.9090   10.1460   36.8880 C.2   104  ASP104      0.3671
     93  OD1        8.6900   10.5820   35.7680 O.co2 104  ASP104     -0.2456
     94  OD2        8.8200   10.8400   37.9030 O.co2 104  ASP104     -0.2456
     95  N          9.2500   12.1820   33.4580 N.3   107  LYS107     -0.1245
     96  CA        10.4870   12.9680   33.3010 C.3   107  LYS107      0.1561
     97  C         11.2630   12.5190   32.0870 C.2   107  LYS107      0.2260
     98  O         11.7900   13.3230   31.3470 O.2   107  LYS107     -0.2867
     99  CB        11.3910   12.8420   34.5360 C.3   107  LYS107      0.0271
    100  CG        10.8420   13.5540   35.7670 C.3   107  LYS107      0.0035
    101  CD        11.7530   13.4000   37.0040 C.3   107  LYS107      0.0206
    102  CE        12.8860   14.3820   37.0290 C.3   107  LYS107      0.1093
    103  NZ        13.6660   14.2710   38.2900 N.3   107  LYS107     -0.1314
    104  N          8.4180    4.1200   37.6630 N.3   149  LEU149     -0.1245
    105  CA         9.7800    4.4440   38.0590 C.3   149  LEU149      0.1561
    106  C         10.8040    3.6100   37.2580 C.2   149  LEU149      0.2260
    107  O         10.5530    2.4390   36.9620 O.2   149  LEU149     -0.2867
    108  CB         9.9670    4.1500   39.5480 C.3   149  LEU149      0.0270
    109  CG         9.0760    4.8590   40.5250 C.3   149  LEU149      0.0019
    110  CD1        9.3370    4.3500   41.9800 C.3   149  LEU149      0.0001
    111  CD2        9.2880    6.3680   40.4440 C.3   149  LEU149      0.0001
    112  N          4.3770    2.1490   40.6870 N.3   158  CYS158     -0.1235
    113  CA         4.1900    2.7090   42.0200 C.3   158  CYS158      0.1677
    114  C          2.8230    3.3850   42.1750 C.2   158  CYS158      0.2270
    115  O          2.0690    3.5190   41.2290 O.2   158  CYS158     -0.2867
    116  CB         5.3350    3.6600   42.3560 C.3   158  CYS158      0.0956
    117  SG         5.2560    5.2370   41.5100 S.3   158  CYS158     -0.0801
@<TRIPOS>BOND
     1    98    97    2
     2    97    96    1
     3    96    95    1
     4    96    99    1
     5    90    89    2
     6    99   100    1
     7    89    88    1
     8    79    77   ar
     9    86    84    1
    10    85    84    1
    11   100   101    1
    12    93    92   ar
    13    77    78   ar
    14    77    76    1
    15    84    81    1
    16    88    87    1
    17    88    91    1
    18    87    82   am
    19    76    75    1
    20    92    91    1
    21    92    94   ar
    22   107   106    2
    23   101   102    1
    24   102   103    1
    25    82    81    1
    26    82    83    2
    27   106   105    1
    28    81    80    1
    29   104   105    1
    30    75    72    1
    31    80    73   am
    32   105   108    1
    33    73    74    2
    34    73    72    1
    35    72    71    1
    36    70    69    1
    37   108   109    1
    38    71    65   am
    39   111   109    1
    40   109   110    1
    41   112   113    1
    42    65    66    2
    43    65    64    1
    44    67    64    1
    45    67    68    1
    46    69    68    1
    47   115   114    2
    48    64    63    1
    49   117   116    1
    50   113   114    1
    51   113   116    1
    52    63    57   am
    53    30    31    1
    54    58    57    2
    55    57    56    1
    56    31    34    1
    57    31    32    1
    58    34    36    1
    59    34    35    1
    60     4     3    2
    61    37    35    1
    62     7     5    1
    63    60    61    1
    64    60    62    1
    65    60    59    1
    66     3     2    1
    67    56    59    1
    68    56    55    1
    69    32    33    2
    70    53    52   ar
    71    50    49    2
    72     5     6    1
    73     5     2    1
    74    51    52    1
    75    51    48    1
    76     6     8    1
    77     2     1    1
    78    55    49   am
    79    49    48    1
    80    52    54   ar
    81    48    47    1
    82    14    13    1
    83    20    17    1
    84    47    40   am
    85    15    13    1
    86    13    10    1
    87    46    44   am
    88    45    44    2
    89    44    43    1
    90    42    43    1
    91    42    39    1
    92    40    41    2
    93    40    39    1
    94    29    28    1
    95    17    16    1
    96    17    18    1
    97    12    11    2
    98    39    38    1
    99    10    11    1
   100    10     9    1
   101    28    27    1
   102    27    26    1
   103    18    19    2
   104    25    26    1
   105    25    22    1
   106    22    21    1
   107    22    23    1
   108    23    24    2
