@<TRIPOS>MOLECULE
tmp/6g92A00.pdb
 123 113 0 0 0
SMALL
GASTEIGER

@<TRIPOS>ATOM
      1  N         14.4750   15.1680   46.3640 N.3    24  ILE24      -0.1245
      2  CA        14.1410   14.6150   45.0420 C.3    24  ILE24       0.1561
      3  C         12.9800   15.4390   44.4750 C.2    24  ILE24       0.2260
      4  O         13.1210   16.0410   43.4290 O.2    24  ILE24      -0.2867
      5  CB        13.7760   13.0900   45.0790 C.3    24  ILE24       0.0252
      6  CG1       15.0150   12.2360   45.3920 C.3    24  ILE24       0.0019
      7  CG2       13.1400   12.6270   43.7340 C.3    24  ILE24       0.0019
      8  CD1       14.7490   10.7120   45.5570 C.3    24  ILE24       0.0001
      9  N          9.7120   13.8700   49.0710 N.3    32  VAL32      -0.1245
     10  CA        10.4800   12.6690   48.6800 C.3    32  VAL32       0.1561
     11  C         11.9640   13.0550   48.6540 C.2    32  VAL32       0.2260
     12  O         12.3090   14.0870   48.0810 O.2    32  VAL32      -0.2867
     13  CB        10.0160   12.1060   47.3180 C.3    32  VAL32       0.0252
     14  CG1       10.7380   10.8110   46.9620 C.3    32  VAL32       0.0019
     15  CG2        8.5130   11.8610   47.3070 C.3    32  VAL32       0.0019
     16  N         16.2470   11.2020   48.6850 N.3    34  SER34      -0.1217
     17  CA        17.1560   10.0810   48.7910 C.3    34  SER34       0.1889
     18  C         17.9770   10.2550   50.0880 C.2    34  SER34       0.2288
     19  O         18.0990   11.3700   50.6230 O.2    34  SER34      -0.2866
     20  CB        18.0860    9.9720   47.5860 C.3    34  SER34       0.2089
     21  OG        18.8650   11.1440   47.4710 O.3    34  SER34      -0.2183
     22  N         15.3140    5.6440   48.5400 N.3    45  ALA45      -0.1245
     23  CA        14.3050    6.7040   48.4660 C.3    45  ALA45       0.1562
     24  C         13.4250    6.6750   49.7180 C.2    45  ALA45       0.2260
     25  O         13.0310    5.5960   50.1880 O.2    45  ALA45      -0.2867
     26  CB        13.4240    6.5390   47.2450 C.3    45  ALA45       0.0290
     27  N          9.9050    8.6830   51.2090 N.3    47  LYS47      -0.1245
     28  CA         8.6990    9.4680   51.0300 C.3    47  LYS47       0.1561
     29  C          8.0860    9.7900   52.4550 C.2    47  LYS47       0.2260
     30  O          7.7530    8.8760   53.2200 O.2    47  LYS47      -0.2867
     31  CB         7.7260    8.6220   50.1740 C.3    47  LYS47       0.0271
     32  CG         6.3920    9.2050   49.8320 C.3    47  LYS47       0.0035
     33  CD         5.7320    8.3960   48.6760 C.3    47  LYS47       0.0206
     34  CE         5.0560    7.1360   49.1660 C.3    47  LYS47       0.1093
     35  NZ         4.5700    6.2850   48.0620 N.3    47  LYS47      -0.1314
     36  N          7.2030   -1.6110   42.7700 N.3    77  ILE77      -0.1245
     37  CA         8.0230   -1.0930   43.8600 C.3    77  ILE77       0.1561
     38  C          7.6090   -1.7570   45.2100 C.2    77  ILE77       0.2260
     39  O          6.4370   -1.9250   45.5030 O.2    77  ILE77      -0.2867
     40  CB         7.9100    0.4840   43.9030 C.3    77  ILE77       0.0252
     41  CG1        9.0520    1.1310   44.6840 C.3    77  ILE77       0.0019
     42  CG2        6.6000    0.9210   44.5050 C.3    77  ILE77       0.0019
     43  CD1       10.4960    0.9420   44.1320 C.3    77  ILE77       0.0001
     44  N         12.0570    2.9310   50.2010 N.3    98  GLN98      -0.1231
     45  CA        11.9240    2.1470   48.9750 C.3    98  GLN98       0.1698
     46  C         13.2340    2.1600   48.2100 C.2    98  GLN98       0.2592
     47  O         14.0980    2.9990   48.4730 O.2    98  GLN98      -0.2718
     48  CB        10.7650    2.6880   48.0950 C.3    98  GLN98       0.0381
     49  CG         9.4510    2.6470   48.8250 C.3    98  GLN98       0.0905
     50  CD         8.2880    3.1890   48.0600 C.2    98  GLN98       0.2608
     51  OE1        8.1810    4.3830   47.8750 O.2    98  GLN98      -0.2717
     52  NE2        7.3280    2.3700   47.7330 N.am   98  GLN98      -0.0878
     53  N         13.3960    1.2230   47.2610 N.am   99  ASP99      -0.1960
     54  CA        14.5780    1.2060   46.3910 C.3    99  ASP99       0.1840
     55  C         14.6920    2.5460   45.6620 C.2    99  ASP99       0.2622
     56  O         13.6700    3.1160   45.2890 O.2    99  ASP99      -0.2715
     57  CB        14.4890    0.1320   45.3250 C.3    99  ASP99       0.1450
     58  CG        14.4630   -1.2580   45.8410 C.2    99  ASP99       0.3671
     59  OD1       13.9760   -2.1440   45.1000 O.co2  99  ASP99      -0.2456
     60  OD2       14.9880   -1.4890   46.9680 O.co2  99  ASP99      -0.2456
     61  N         15.9210    3.0270   45.4610 N.am  100  LEU100     -0.1963
     62  CA        16.1430    4.3260   44.8450 C.3   100  LEU100      0.1728
     63  C         16.2650    4.1010   43.3710 C.2   100  LEU100      0.2616
     64  O         17.1050    3.3160   42.9290 O.2   100  LEU100     -0.2715
     65  CB        17.4380    4.9960   45.3440 C.3   100  LEU100      0.0311
     66  CG        17.7600    6.3390   44.7280 C.3   100  LEU100      0.0022
     67  CD1       16.6040    7.3440   44.8830 C.3   100  LEU100      0.0001
     68  CD2       19.0110    6.9040   45.3120 C.3   100  LEU100      0.0001
     69  N         15.4440    4.8020   42.6100 N.am  101  MET101     -0.1963
     70  CA        15.3940    4.6670   41.1600 C.3   101  MET101      0.1736
     71  C         16.0390    5.9040   40.5830 C.2   101  MET101      0.2616
     72  O         16.1270    6.9000   41.2910 O.2   101  MET101     -0.2715
     73  CB        13.9330    4.4780   40.7530 C.3   101  MET101      0.0427
     74  CG        13.2890    3.2540   41.3740 C.3   101  MET101      0.0599
     75  SD        13.9990    1.6720   40.8580 S.3   101  MET101     -0.1393
     76  CE        13.0750    1.4150   39.2710 C.3   101  MET101      0.0692
     77  N         16.5090    5.8530   39.3240 N.am  102  GLU102     -0.1963
     78  CA        17.1270    7.0190   38.6850 C.3   102  GLU102      0.1733
     79  C         16.1090    8.0520   38.3470 C.2   102  GLU102      0.2617
     80  O         16.3490    9.2250   38.5640 O.2   102  GLU102     -0.2715
     81  CB        17.9020    6.6510   37.4030 C.3   102  GLU102      0.0429
     82  CG        18.4330    7.8900   36.6750 C.3   102  GLU102      0.1163
     83  CD        19.6590    7.7350   35.7930 C.2   102  GLU102      0.3649
     84  OE1       20.7050    8.3420   36.1220 O.co2 102  GLU102     -0.2457
     85  OE2       19.5510    7.0870   34.7290 O.co2 102  GLU102     -0.2457
     86  N         14.9640    7.6400   37.7750 N.am  103  THR103     -0.1937
     87  CA        13.9880    8.6090   37.2930 C.3   103  THR103      0.2028
     88  C         12.6200    7.9520   37.1480 C.2   103  THR103      0.2642
     89  O         12.4210    6.8170   37.6050 O.2   103  THR103     -0.2714
     90  CB        14.5070    9.2030   35.9410 C.3   103  THR103      0.1808
     91  OG1       13.6830   10.2870   35.5670 O.3   103  THR103     -0.2208
     92  CG2       14.5890    8.1710   34.8420 C.3   103  THR103      0.0379
     93  N         11.6810    8.6700   36.5360 N.am  104  ASP104     -0.1971
     94  CA        10.3930    8.1010   36.1360 C.3   104  ASP104      0.1709
     95  C         10.1610    8.3170   34.6450 C.2   104  ASP104      0.2293
     96  O         10.8650    9.0890   34.0330 O.2   104  ASP104     -0.2864
     97  CB         9.2270    8.6120   37.0190 C.3   104  ASP104      0.1436
     98  CG         8.9300   10.1040   36.9790 C.2   104  ASP104      0.3671
     99  OD1        8.6300   10.6170   35.8960 O.co2 104  ASP104     -0.2456
    100  OD2        8.8620   10.7100   38.0460 O.co2 104  ASP104     -0.2456
    101  N          9.4760   12.1460   33.4730 N.3   107  LYS107     -0.1245
    102  CA        10.6980   12.9320   33.3210 C.3   107  LYS107      0.1561
    103  C         11.4840   12.4730   32.1340 C.2   107  LYS107      0.2260
    104  O         11.9880   13.2990   31.3830 O.2   107  LYS107     -0.2867
    105  CB        11.5830   12.8580   34.5670 C.3   107  LYS107      0.0271
    106  CG        11.0070   13.6160   35.7670 C.3   107  LYS107      0.0035
    107  CD        11.8470   13.4500   37.1080 C.3   107  LYS107      0.0206
    108  CE        11.0120   12.8220   38.2230 C.3   107  LYS107      0.1093
    109  NZ        11.2730   13.3550   39.5820 N.3   107  LYS107     -0.1314
    110  N          8.6790    4.0230   37.5540 N.3   149  LEU149     -0.1245
    111  CA        10.0240    4.3570   37.9220 C.3   149  LEU149      0.1561
    112  C         11.0010    3.5190   37.1450 C.2   149  LEU149      0.2260
    113  O         10.7150    2.3560   36.8970 O.2   149  LEU149     -0.2867
    114  CB        10.2050    4.0630   39.3970 C.3   149  LEU149      0.0270
    115  CG         9.3930    4.9390   40.3670 C.3   149  LEU149      0.0019
    116  CD1        9.3130    4.2810   41.7410 C.3   149  LEU149      0.0001
    117  CD2       10.0220    6.3130   40.4940 C.3   149  LEU149      0.0001
    118  N          4.6490    2.1180   40.6430 N.3   158  CYS158     -0.1235
    119  CA         4.4440    2.6640   41.9870 C.3   158  CYS158      0.1677
    120  C          3.0720    3.3430   42.1060 C.2   158  CYS158      0.2270
    121  O          2.3230    3.3950   41.1510 O.2   158  CYS158     -0.2867
    122  CB         5.5750    3.6260   42.3220 C.3   158  CYS158      0.0956
    123  SG         5.4960    5.1640   41.4060 S.3   158  CYS158     -0.0801
@<TRIPOS>BOND
     1   104   103    2
     2   103   102    1
     3   102   101    1
     4   102   105    1
     5    96    95    2
     6   105   106    1
     7    95    94    1
     8    85    83   ar
     9    92    90    1
    10    91    90    1
    11   106   107    1
    12    83    84   ar
    13    83    82    1
    14    99    98   ar
    15    90    87    1
    16    94    93    1
    17    94    97    1
    18    93    88   am
    19    82    81    1
    20   113   112    2
    21    98    97    1
    22    98   100   ar
    23   107   108    1
    24   112   111    1
    25    88    87    1
    26    88    89    2
    27    87    86    1
    28    81    78    1
    29   110   111    1
    30    86    79   am
    31   111   114    1
    32   108   109    1
    33    79    80    2
    34    79    78    1
    35    78    77    1
    36    76    75    1
    37    77    71   am
    38   114   115    1
    39   115   117    1
    40   115   116    1
    41    71    70    1
    42    71    72    2
    43   118   119    1
    44    73    70    1
    45    73    74    1
    46    75    74    1
    47   121   120    2
    48    70    69    1
    49   123   122    1
    50   119   120    1
    51   119   122    1
    52    69    63   am
    53    36    37    1
    54    64    63    2
    55    63    62    1
    56     4     3    2
    57     7     5    1
    58    37    40    1
    59    37    38    1
    60    40    42    1
    61    40    41    1
    62    43    41    1
    63     3     2    1
    64    66    67    1
    65    66    68    1
    66    66    65    1
    67    62    65    1
    68    62    61    1
    69     2     5    1
    70     2     1    1
    71     5     6    1
    72    59    58   ar
    73    38    39    2
    74    56    55    2
    75    57    58    1
    76    57    54    1
    77     6     8    1
    78    61    55   am
    79    55    54    1
    80    58    60   ar
    81    54    53    1
    82    14    13    1
    83    26    23    1
    84    53    46   am
    85    15    13    1
    86    13    10    1
    87    21    20    1
    88    20    17    1
    89    52    50   am
    90    51    50    2
    91    50    49    1
    92    35    34    1
    93    12    11    2
    94    48    49    1
    95    48    45    1
    96    46    47    2
    97    46    45    1
    98    23    22    1
    99    23    24    1
   100    11    10    1
   101    33    34    1
   102    33    32    1
   103    10     9    1
   104    16    17    1
   105    17    18    1
   106    45    44    1
   107    24    25    2
   108    32    31    1
   109    18    19    2
   110    31    28    1
   111    28    27    1
   112    28    29    1
   113    29    30    2
