@<TRIPOS>MOLECULE
tmp/6g93A00.pdb
 165 154 0 0 0
SMALL
GASTEIGER

@<TRIPOS>ATOM
      1  N         11.4250   15.5460   47.2590 N.3    21  ILE21      -0.1231
      2  CA        11.1440   15.0300   45.9140 C.3    21  ILE21       0.1692
      3  C          9.9220   15.7760   45.3830 C.2    21  ILE21       0.2593
      4  O         10.0350   16.5380   44.4220 O.2    21  ILE21      -0.2718
      5  CB        10.9520   13.4750   45.9080 C.3    21  ILE21       0.0266
      6  CG1       12.3210   12.7770   46.1190 C.3    21  ILE21       0.0019
      7  CG2       10.2780   12.9920   44.5860 C.3    21  ILE21       0.0020
      8  CD1       12.2740   11.2330   46.2830 C.3    21  ILE21       0.0001
      9  N          8.7770   15.5420   46.0100 N.am   22  GLY22      -0.1942
     10  CA         7.5080   16.1610   45.6430 C.3    22  GLY22       0.2014
     11  C          6.4820   16.0170   46.7470 C.2    22  GLY22       0.2639
     12  O          6.8320   15.6070   47.8600 O.2    22  GLY22      -0.2714
     13  N          5.2130   16.3460   46.4660 N.am   23  GLU23      -0.1963
     14  CA         4.1600   16.1250   47.4500 C.3    23  GLU23       0.1733
     15  C          2.7770   15.9550   46.8320 C.2    23  GLU23       0.2616
     16  O          2.3450   16.7940   46.0400 O.2    23  GLU23      -0.2715
     17  CB         4.1570   17.2280   48.5360 C.3    23  GLU23       0.0429
     18  CG         3.8170   18.6330   48.0820 C.3    23  GLU23       0.1163
     19  CD         4.1020   19.6540   49.1630 C.2    23  GLU23       0.3649
     20  OE1        4.9870   20.5140   48.9540 O.co2  23  GLU23      -0.2457
     21  OE2        3.4440   19.5860   50.2270 O.co2  23  GLU23      -0.2457
     22  N          2.1030   14.8590   47.2060 N.am   24  GLY24      -0.1955
     23  CA         0.6930   14.6360   46.9070 C.3    24  GLY24       0.1869
     24  C         -0.2300   15.5100   47.7320 C.2    24  GLY24       0.2309
     25  O          0.2290   16.2660   48.5950 O.2    24  GLY24      -0.2863
     26  N          6.7840   13.5010   49.7890 N.3    29  VAL29      -0.1245
     27  CA         7.7770   12.4360   49.5460 C.3    29  VAL29       0.1561
     28  C          9.2010   12.9870   49.6000 C.2    29  VAL29       0.2260
     29  O          9.4500   14.0350   49.0190 O.2    29  VAL29      -0.2867
     30  CB         7.5080   11.6920   48.2200 C.3    29  VAL29       0.0252
     31  CG1        8.5790   10.6310   47.9550 C.3    29  VAL29       0.0019
     32  CG2        6.1340   11.0550   48.2360 C.3    29  VAL29       0.0019
     33  N         13.3000    6.0040   49.4020 N.3    42  ALA42      -0.1245
     34  CA        12.2330    6.9630   49.2500 C.3    42  ALA42       0.1562
     35  C         11.3080    6.8340   50.4640 C.2    42  ALA42       0.2260
     36  O         11.0530    5.7190   50.9230 O.2    42  ALA42      -0.2867
     37  CB        11.4560    6.6960   47.9560 C.3    42  ALA42       0.0290
     38  N          7.5270    8.3880   51.9740 N.3    44  LYS44      -0.1245
     39  CA         6.3000    9.1660   51.8190 C.3    44  LYS44       0.1561
     40  C          5.6340    9.4730   53.1800 C.2    44  LYS44       0.2260
     41  O          5.2450    8.5390   53.8640 O.2    44  LYS44      -0.2867
     42  CB         5.3130    8.3830   50.9220 C.3    44  LYS44       0.0271
     43  CG         4.0350    9.1110   50.6340 C.3    44  LYS44       0.0035
     44  CD         3.3770    8.6530   49.3190 C.3    44  LYS44       0.0206
     45  CE         3.0310    7.1760   49.3100 C.3    44  LYS44       0.1093
     46  NZ         1.7990    6.8910   48.5220 N.3    44  LYS44      -0.1314
     47  N         -4.0660    1.2110   50.3500 N.3    61  GLU61      -0.1245
     48  CA        -2.7140    1.1830   49.7900 C.3    61  GLU61       0.1567
     49  C         -1.7390    0.3500   50.6030 C.2    61  GLU61       0.2260
     50  O         -0.9540   -0.4240   50.0430 O.2    61  GLU61      -0.2867
     51  CB        -2.1760    2.6030   49.5630 C.3    61  GLU61       0.0388
     52  CG        -0.6840    2.5700   49.2680 C.3    61  GLU61       0.1160
     53  CD         0.0020    3.6980   48.5420 C.2    61  GLU61       0.3649
     54  OE1        0.5270    4.5980   49.2220 O.co2  61  GLU61      -0.2457
     55  OE2        0.0550    3.6630   47.2940 O.co2  61  GLU61      -0.2457
     56  N          6.2210   -1.4080   43.1790 N.3    74  ILE74      -0.1245
     57  CA         6.9480   -0.8500   44.2820 C.3    74  ILE74       0.1561
     58  C          6.4640   -1.5630   45.5940 C.2    74  ILE74       0.2260
     59  O          5.2850   -1.7910   45.8110 O.2    74  ILE74      -0.2867
     60  CB         6.7210    0.7040   44.3420 C.3    74  ILE74       0.0252
     61  CG1        7.7140    1.3500   45.2830 C.3    74  ILE74       0.0019
     62  CG2        5.2610    1.0180   44.8170 C.3    74  ILE74       0.0019
     63  CD1        9.2340    1.2650   44.8560 C.3    74  ILE74       0.0001
     64  N         10.1510    3.0940   50.8100 N.3    95  GLN95      -0.1231
     65  CA        10.1470    2.3100   49.5730 C.3    95  GLN95       0.1698
     66  C         11.4910    2.4500   48.8730 C.2    95  GLN95       0.2592
     67  O         12.2590    3.3720   49.1890 O.2    95  GLN95      -0.2718
     68  CB         8.9720    2.7160   48.6620 C.3    95  GLN95       0.0381
     69  CG         7.6100    2.6750   49.3780 C.3    95  GLN95       0.0905
     70  CD         6.4790    3.0700   48.5030 C.2    95  GLN95       0.2608
     71  OE1        6.4020    4.2040   48.1350 O.2    95  GLN95      -0.2717
     72  NE2        5.5900    2.1530   48.1270 N.am   95  GLN95      -0.0878
     73  N         11.7960    1.5270   47.9260 N.am   96  ASP96      -0.1960
     74  CA        13.0330    1.6240   47.1080 C.3    96  ASP96       0.1840
     75  C         13.0380    2.9890   46.4280 C.2    96  ASP96       0.2622
     76  O         11.9930    3.4340   45.9670 O.2    96  ASP96      -0.2715
     77  CB        13.1480    0.4970   46.0610 C.3    96  ASP96       0.1450
     78  CG        13.1920   -0.9210   46.6120 C.2    96  ASP96       0.3671
     79  OD1       12.8890   -1.8710   45.8380 O.co2  96  ASP96      -0.2456
     80  OD2       13.5180   -1.0850   47.8190 O.co2  96  ASP96      -0.2456
     81  N         14.1940    3.6530   46.4140 N.am   97  LEU97      -0.1963
     82  CA        14.3630    4.9210   45.7310 C.3    97  LEU97       0.1728
     83  C         14.6270    4.6000   44.2510 C.2    97  LEU97       0.2616
     84  O         15.5240    3.8290   43.9510 O.2    97  LEU97      -0.2715
     85  CB        15.5470    5.7030   46.2780 C.3    97  LEU97       0.0311
     86  CG        15.8700    7.0440   45.6110 C.3    97  LEU97       0.0022
     87  CD1       14.7790    8.0320   45.7870 C.3    97  LEU97       0.0001
     88  CD2       17.1820    7.5610   46.0970 C.3    97  LEU97       0.0001
     89  N         13.8480    5.1800   43.3710 N.am   98  MET98      -0.1963
     90  CA        14.0140    5.0490   41.9240 C.3    98  MET98       0.1736
     91  C         14.5820    6.3400   41.3870 C.2    98  MET98       0.2616
     92  O         14.4230    7.3860   41.9990 O.2    98  MET98      -0.2715
     93  CB        12.6750    4.6750   41.2850 C.3    98  MET98       0.0427
     94  CG        12.0800    3.3550   41.8290 C.3    98  MET98       0.0599
     95  SD        13.0290    1.8660   41.4070 S.3    98  MET98      -0.1393
     96  CE        12.3410    1.5640   39.6850 C.3    98  MET98       0.0692
     97  N         15.2730    6.2530   40.2600 N.am   99  GLU99      -0.1963
     98  CA        16.0190    7.3780   39.6590 C.3    99  GLU99       0.1733
     99  C         15.0350    8.4090   39.0680 C.2    99  GLU99       0.2617
    100  O         15.2020    9.6180   39.2480 O.2    99  GLU99      -0.2715
    101  CB        16.9630    6.8030   38.5600 C.3    99  GLU99       0.0429
    102  CG        17.7960    7.8150   37.7710 C.3    99  GLU99       0.1163
    103  CD        18.0310    7.5090   36.2950 C.2    99  GLU99       0.3649
    104  OE1       19.1070    7.8940   35.7800 O.co2  99  GLU99      -0.2457
    105  OE2       17.1490    6.8930   35.6510 O.co2  99  GLU99      -0.2457
    106  N         13.9800    7.9330   38.3480 N.am  100  THR100     -0.1937
    107  CA        13.1090    8.8400   37.6590 C.3   100  THR100      0.2028
    108  C         11.7320    8.2290   37.4780 C.2   100  THR100      0.2642
    109  O         11.4890    7.1680   38.0270 O.2   100  THR100     -0.2714
    110  CB        13.7460    9.2530   36.3430 C.3   100  THR100      0.1808
    111  OG1       13.0440   10.4090   35.8600 O.3   100  THR100     -0.2208
    112  CG2       13.8250    8.0780   35.3230 C.3   100  THR100      0.0379
    113  N         10.8520    8.8880   36.7560 N.am  101  ASP101     -0.1971
    114  CA         9.5890    8.2700   36.3850 C.3   101  ASP101      0.1709
    115  C          9.3580    8.4790   34.8840 C.2   101  ASP101      0.2293
    116  O         10.0860    9.2720   34.2420 O.2   101  ASP101     -0.2864
    117  CB         8.4520    8.8260   37.2210 C.3   101  ASP101      0.1436
    118  CG         8.1810   10.3000   37.0350 C.2   101  ASP101      0.3671
    119  OD1        7.9890   10.7140   35.9130 O.co2 101  ASP101     -0.2456
    120  OD2        8.1600   11.0380   38.0380 O.co2 101  ASP101     -0.2456
    121  N          8.7210   12.2220   33.6490 N.3   104  LYS104     -0.1245
    122  CA         9.9740   12.9840   33.4910 C.3   104  LYS104      0.1561
    123  C         10.7780   12.5250   32.2880 C.2   104  LYS104      0.2260
    124  O         11.3100   13.3470   31.5560 O.2   104  LYS104     -0.2867
    125  CB        10.7760   12.9170   34.7800 C.3   104  LYS104      0.0271
    126  CG        10.0220   13.5830   35.9190 C.3   104  LYS104      0.0035
    127  CD        10.9060   14.1710   36.9910 C.3   104  LYS104      0.0206
    128  CE        11.9490   13.2480   37.5140 C.3   104  LYS104      0.1093
    129  NZ        12.6800   13.8570   38.6990 N.3   104  LYS104     -0.1314
    130  N          3.6090    9.3150   35.4480 N.3   143  SER143     -0.1202
    131  CA         4.2670    9.6910   36.7080 C.3   143  SER143      0.2020
    132  C          4.1660    8.5740   37.7610 C.2   143  SER143      0.2618
    133  O          4.8710    8.6520   38.7680 O.2   143  SER143     -0.2717
    134  CB         3.7210   11.0210   37.2410 C.3   143  SER143      0.2103
    135  OG         2.3600   10.8440   37.5750 O.3   143  SER143     -0.2182
    136  N          3.2720    7.5420   37.5570 N.am  144  ASN144     -0.1974
    137  CA         3.1880    6.4340   38.4820 C.3   144  ASN144      0.1688
    138  C          3.9870    5.2320   38.0050 C.2   144  ASN144      0.2292
    139  O          3.7910    4.1240   38.5580 O.2   144  ASN144     -0.2864
    140  CB         1.6910    6.0600   38.7320 C.3   144  ASN144      0.1181
    141  CG         1.0400    7.0690   39.6580 C.2   144  ASN144      0.2629
    142  OD1        1.7280    7.8300   40.3970 O.2   144  ASN144     -0.2716
    143  ND2       -0.2970    7.1360   39.6390 N.am  144  ASN144     -0.0877
    144  N          7.7700    4.2060   37.8020 N.3   146  LEU146     -0.1245
    145  CA         9.1190    4.5930   38.2310 C.3   146  LEU146      0.1561
    146  C         10.1580    3.7640   37.4800 C.2   146  LEU146      0.2260
    147  O          9.8970    2.5950   37.1550 O.2   146  LEU146     -0.2867
    148  CB         9.2800    4.3430   39.7300 C.3   146  LEU146      0.0270
    149  CG         8.2660    4.9710   40.6530 C.3   146  LEU146      0.0019
    150  CD1        8.4710    4.4940   42.1320 C.3   146  LEU146      0.0001
    151  CD2        8.2100    6.4600   40.4610 C.3   146  LEU146      0.0001
    152  N          3.7990    2.3780   40.8750 N.3   155  CYS155     -0.1221
    153  CA         3.6000    2.9000   42.2160 C.3   155  CYS155      0.1808
    154  C          2.2360    3.5750   42.3180 C.2   155  CYS155      0.2601
    155  O          1.4790    3.6440   41.3430 O.2   155  CYS155     -0.2717
    156  CB         4.7450    3.8270   42.6030 C.3   155  CYS155      0.0970
    157  SG         4.7000    5.4190   41.7930 S.3   155  CYS155     -0.0800
    158  N          1.9220    4.0030   43.5470 N.am  156  ASP156     -0.1973
    159  CA         0.7420    4.7950   43.9000 C.3   156  ASP156      0.1709
    160  C         -0.5510    4.0190   43.7790 C.2   156  ASP156      0.2293
    161  O         -1.2520    4.1290   42.7990 O.2   156  ASP156     -0.2864
    162  CB         0.6390    6.1400   43.1660 C.3   156  ASP156      0.1436
    163  CG        -0.3480    7.0810   43.8740 C.2   156  ASP156      0.3671
    164  OD1       -1.0270    6.6290   44.8070 O.co2 156  ASP156     -0.2456
    165  OD2       -0.4260    8.2590   43.4910 O.co2 156  ASP156     -0.2456
@<TRIPOS>BOND
     1   124   123    2
     2   123   122    1
     3   122   121    1
     4   122   125    1
     5   116   115    2
     6   125   126    1
     7   115   114    1
     8   112   110    1
     9   130   131    1
    10   105   103   ar
    11   104   103   ar
    12   111   110    1
    13   119   118   ar
    14   126   127    1
    15   103   102    1
    16   110   107    1
    17   114   113    1
    18   114   117    1
    19   131   134    1
    20   131   132    1
    21   113   108   am
    22   127   128    1
    23   118   117    1
    24   118   120   ar
    25   147   146    2
    26   134   135    1
    27   108   107    1
    28   108   109    2
    29   146   145    1
    30   128   129    1
    31   136   132   am
    32   136   137    1
    33   107   106    1
    34   132   133    2
    35   102   101    1
    36   144   145    1
    37   138   137    1
    38   138   139    2
    39   145   148    1
    40   106    99   am
    41   137   140    1
    42   101    98    1
    43   140   141    1
    44    99   100    2
    45    99    98    1
    46   143   141   am
    47   141   142    2
    48    98    97    1
    49    96    95    1
    50   148   149    1
    51    97    91   am
    52   151   149    1
    53   149   150    1
    54   152   153    1
    55    93    94    1
    56    93    90    1
    57   155   154    2
    58    91    90    1
    59    91    92    2
    60    95    94    1
    61   157   156    1
    62    90    89    1
    63   153   154    1
    64   153   156    1
    65   154   158   am
    66   161   160    2
    67   162   163    1
    68   162   159    1
    69    56    57    1
    70    89    83   am
    71   165   163   ar
    72   158   159    1
    73   160   159    1
    74   163   164   ar
    75    84    83    2
    76    83    82    1
    77    57    60    1
    78    57    58    1
    79    60    62    1
    80    60    61    1
    81     4     3    2
    82     7     5    1
    83    63    61    1
    84     3     2    1
    85     3     9   am
    86    58    59    2
    87    86    87    1
    88    86    88    1
    89    86    85    1
    90    10     9    1
    91    10    11    1
    92    82    85    1
    93    82    81    1
    94    79    78   ar
    95     5     2    1
    96     5     6    1
    97     2     1    1
    98    76    75    2
    99    16    15    2
   100    77    78    1
   101    77    74    1
   102     6     8    1
   103    81    75   am
   104    75    74    1
   105    13    11   am
   106    13    14    1
   107    78    80   ar
   108    11    12    2
   109    15    22   am
   110    15    14    1
   111    23    22    1
   112    23    24    1
   113    74    73    1
   114    55    53   ar
   115    14    17    1
   116    24    25    2
   117    73    66   am
   118    31    30    1
   119    37    34    1
   120    18    17    1
   121    18    19    1
   122    72    70   am
   123    71    70    2
   124    30    32    1
   125    30    27    1
   126    70    69    1
   127    46    45    1
   128    53    54   ar
   129    53    52    1
   130    68    69    1
   131    68    65    1
   132    66    67    2
   133    66    65    1
   134    20    19   ar
   135    29    28    2
   136    19    21   ar
   137    34    33    1
   138    34    35    1
   139    52    51    1
   140    45    44    1
   141    44    43    1
   142    27    28    1
   143    27    26    1
   144    51    48    1
   145    65    64    1
   146    48    47    1
   147    48    49    1
   148    50    49    2
   149    35    36    2
   150    43    42    1
   151    42    39    1
   152    39    38    1
   153    39    40    1
   154    40    41    2
