@<TRIPOS>MOLECULE
tmp/6g95A03.pdb
 81 76 0 0 0
SMALL
GASTEIGER

@<TRIPOS>ATOM
      1  N        -57.3230   14.2220   -3.1020 N.3     5  GLY5       -0.1210
      2  CA       -56.6690   13.1230   -2.4140 C.3     5  GLY5        0.1956
      3  C        -55.8410   13.6190   -1.2420 C.2     5  GLY5        0.2612
      4  O        -55.1400   14.6270   -1.3270 O.2     5  GLY5       -0.2717
      5  N        -55.9380   12.8940   -0.1260 N.am    6  VAL6       -0.1965
      6  CA       -55.1350   13.1780    1.0560 C.3     6  VAL6        0.1727
      7  C        -54.7080   11.8600    1.6890 C.2     6  VAL6        0.2616
      8  O        -55.4060   10.8450    1.5980 O.2     6  VAL6       -0.2715
      9  CB       -55.8810   14.0580    2.0810 C.3     6  VAL6        0.0290
     10  CG1      -57.0610   13.3010    2.6820 C.3     6  VAL6        0.0023
     11  CG2      -54.9240   14.4980    3.1810 C.3     6  VAL6        0.0023
     12  N        -53.5470   11.8820    2.3270 N.am    7  ILE7       -0.1977
     13  CA       -52.9920   10.7180    3.0100 C.3     7  ILE7        0.1596
     14  C        -53.3420   10.7960    4.4930 C.2     7  ILE7        0.2287
     15  O        -53.0030   11.7760    5.1660 O.2     7  ILE7       -0.2864
     16  CB       -51.4750   10.6240    2.7900 C.3     7  ILE7        0.0276
     17  CG1      -51.2060   10.3410    1.3060 C.3     7  ILE7        0.0022
     18  CG2      -50.8730    9.5590    3.6850 C.3     7  ILE7        0.0022
     19  CD1      -49.7670   10.4560    0.9160 C.3     7  ILE7        0.0001
     20  N        -54.2780    6.4030    1.1270 N.3    12  LEU12      -0.1245
     21  CA       -54.8620    7.4850    0.3510 C.3    12  LEU12       0.1561
     22  C        -56.3710    7.5110    0.5460 C.2    12  LEU12       0.2260
     23  O        -57.0260    6.4660    0.5360 O.2    12  LEU12      -0.2867
     24  CB       -54.5400    7.3170   -1.1340 C.3    12  LEU12       0.0270
     25  CG       -54.9540    8.4940   -2.0310 C.3    12  LEU12       0.0019
     26  CD1      -54.2400    9.7520   -1.5740 C.3    12  LEU12       0.0001
     27  CD2      -54.6300    8.1990   -3.4840 C.3    12  LEU12       0.0001
     28  N        -51.1640   19.3680   -5.9170 N.3    33  ARG33      -0.1245
     29  CA       -50.6200   18.8350   -7.1530 C.3    33  ARG33       0.1563
     30  C        -51.7100   18.1920   -7.9950 C.2    33  ARG33       0.2260
     31  O        -52.5650   17.4650   -7.4830 O.2    33  ARG33      -0.2867
     32  CB       -49.5110   17.8150   -6.8660 C.3    33  ARG33       0.0307
     33  CG       -48.2680   18.4430   -6.2450 C.3    33  ARG33       0.0489
     34  CD       -47.5360   19.3540   -7.2340 C.3    33  ARG33       0.2205
     35  NE       -46.6470   20.2750   -6.5400 N.pl3  33  ARG33      -0.0865
     36  CZ       -45.4870   19.9200   -5.9940 C.cat  33  ARG33       0.5346
     37  NH1      -45.0780   18.6620   -6.0700 N.pl3  33  ARG33       0.1354
     38  NH2      -44.7350   20.8200   -5.3710 N.pl3  33  ARG33       0.1354
     39  N        -52.1590   15.5550  -11.2130 N.3    35  VAL35      -0.1245
     40  CA       -51.4010   14.4570  -11.7990 C.3    35  VAL35       0.1561
     41  C        -52.2480   13.7590  -12.8600 C.2    35  VAL35       0.2260
     42  O        -53.3880   13.3740  -12.5930 O.2    35  VAL35      -0.2867
     43  CB       -50.9580   13.4520  -10.7230 C.3    35  VAL35       0.0252
     44  CG1      -50.0450   12.4160  -11.3590 C.3    35  VAL35       0.0019
     45  CG2      -50.2670   14.1860   -9.5990 C.3    35  VAL35       0.0019
     46  N        -48.1090   17.0770  -13.6310 N.3    70  ALA70      -0.1245
     47  CA       -47.2030   15.9410  -13.6830 C.3    70  ALA70       0.1562
     48  C        -47.9170   14.7940  -14.3730 C.2    70  ALA70       0.2260
     49  O        -49.1330   14.6330  -14.2380 O.2    70  ALA70      -0.2867
     50  CB       -46.7350   15.5160  -12.2810 C.3    70  ALA70       0.0290
     51  N        -54.2690   16.3440   -5.4890 N.3   153  LEU153     -0.1231
     52  CA       -53.7330   15.8890   -4.2110 C.3   153  LEU153      0.1693
     53  C        -53.2710   17.0530   -3.3500 C.2   153  LEU153      0.2592
     54  O        -52.8600   18.1040   -3.8550 O.2   153  LEU153     -0.2718
     55  CB       -52.5240   14.9700   -4.3760 C.3   153  LEU153      0.0284
     56  CG       -52.4130   13.9720   -5.5180 C.3   153  LEU153      0.0019
     57  CD1      -50.9670   13.5320   -5.6250 C.3   153  LEU153      0.0001
     58  CD2      -53.3090   12.7860   -5.2240 C.3   153  LEU153      0.0001
     59  N        -53.3080   16.8250   -2.0380 N.am  154  ILE154     -0.1966
     60  CA       -52.5560   17.5940   -1.0560 C.3   154  ILE154      0.1727
     61  C        -51.3740   16.7270   -0.6610 C.2   154  ILE154      0.2616
     62  O        -51.5590   15.6510   -0.0860 O.2   154  ILE154     -0.2715
     63  CB       -53.3860   17.9450    0.1890 C.3   154  ILE154      0.0290
     64  CG1      -54.7310   18.5560   -0.1800 C.3   154  ILE154      0.0022
     65  CG2      -52.6230   18.9110    1.0870 C.3   154  ILE154      0.0023
     66  CD1      -55.4750   19.0870    1.0350 C.3   154  ILE154      0.0001
     67  N        -50.1660   17.1860   -0.9460 N.am  155  LEU155     -0.1964
     68  CA       -48.9860   16.4670   -0.4980 C.3   155  LEU155      0.1713
     69  C        -48.7870   16.6660    1.0020 C.2   155  LEU155      0.2458
     70  O        -49.1420   17.7130    1.5540 O.2   155  LEU155     -0.2730
     71  CB       -47.7460   16.9450   -1.2520 C.3   155  LEU155      0.0310
     72  CG       -47.8930   16.8940   -2.7720 C.3   155  LEU155      0.0022
     73  CD1      -46.6490   17.4230   -3.4670 C.3   155  LEU155      0.0001
     74  CD2      -48.2060   15.4710   -3.2250 C.3   155  LEU155      0.0001
     75  N        -48.2380   15.6690    1.6880 N.am  156  PRO156     -0.2727
     76  CA       -47.7360   15.9110    3.0460 C.3   156  PRO156      0.1402
     77  C        -46.5860   16.9050    3.0110 C.2   156  PRO156      0.2269
     78  O        -45.8450   16.9950    2.0300 O.2   156  PRO156     -0.2865
     79  CB       -47.2650   14.5280    3.5100 C.3   156  PRO156      0.0296
     80  CG       -47.9250   13.5510    2.5900 C.3   156  PRO156      0.0237
     81  CD       -48.0830   14.2650    1.2750 C.3   156  PRO156      0.0939
@<TRIPOS>BOND
     1    48    49    2
     2    48    47    1
     3    47    46    1
     4    47    50    1
     5    41    42    2
     6    41    40    1
     7    40    39    1
     8    40    43    1
     9    44    43    1
    10    43    45    1
    11    30    31    2
    12    30    29    1
    13    34    35    1
    14    34    33    1
    15    29    32    1
    16    29    28    1
    17    32    33    1
    18    35    36    2
    19    37    36    1
    20    36    38    1
    21    57    56    1
    22    56    58    1
    23    56    55    1
    24    51    52    1
    25    55    52    1
    26    52    53    1
    27    54    53    2
    28    27    25    1
    29    73    72    1
    30    53    59   am
    31    74    72    1
    32     1     2    1
    33    72    71    1
    34     2     3    1
    35    59    60    1
    36    25    26    1
    37    25    24    1
    38     4     3    2
    39    71    68    1
    40     3     5   am
    41    24    21    1
    42    60    61    1
    43    60    63    1
    44    67    61   am
    45    67    68    1
    46    61    62    2
    47    68    69    1
    48    64    63    1
    49    64    66    1
    50     5     6    1
    51    63    65    1
    52    21    22    1
    53    21    20    1
    54    23    22    2
    55    19    17    1
    56    69    70    2
    57    69    75   am
    58     6     7    1
    59     6     9    1
    60    81    75    1
    61    81    80    1
    62    17    16    1
    63     8     7    2
    64    75    76    1
    65     7    12   am
    66    78    77    2
    67     9    10    1
    68     9    11    1
    69    12    13    1
    70    80    79    1
    71    16    13    1
    72    16    18    1
    73    13    14    1
    74    77    76    1
    75    76    79    1
    76    14    15    2
