@<TRIPOS>MOLECULE
tmp/6g95B01.pdb
 86 80 0 0 0
SMALL
GASTEIGER

@<TRIPOS>ATOM
      1  N        -44.9410    4.0680  -10.7090 N.3    14  LEU14      -0.1245
      2  CA       -45.2930    5.2880  -11.4250 C.3    14  LEU14       0.1561
      3  C        -44.0080    5.9610  -11.8940 C.2    14  LEU14       0.2260
      4  O        -43.3380    6.6520  -11.1210 O.2    14  LEU14      -0.2867
      5  CB       -46.1160    6.2220  -10.5480 C.3    14  LEU14       0.0270
      6  CG       -46.3640    7.5900  -11.1830 C.3    14  LEU14       0.0019
      7  CD1      -47.0970    7.4230  -12.4960 C.3    14  LEU14       0.0001
      8  CD2      -47.1330    8.4870  -10.2360 C.3    14  LEU14       0.0001
      9  N        -42.7870    8.8790  -13.5720 N.3    16  TYR16      -0.1241
     10  CA       -43.4480   10.1460  -13.8430 C.3    16  TYR16       0.1605
     11  C        -42.5130   11.1630  -14.4970 C.2    16  TYR16       0.2264
     12  O        -41.2840   11.0650  -14.4580 O.2    16  TYR16      -0.2867
     13  CB       -44.0710   10.7360  -12.5650 C.3    16  TYR16       0.0534
     14  CG       -43.0940   11.2370  -11.5200 C.ar   16  TYR16      -0.0201
     15  CD1      -42.6220   12.5380  -11.5560 C.ar   16  TYR16      -0.0009
     16  CD2      -42.6690   10.4150  -10.4830 C.ar   16  TYR16      -0.0009
     17  CE1      -41.7380   13.0010  -10.6130 C.ar   16  TYR16       0.0417
     18  CE2      -41.7800   10.8660   -9.5330 C.ar   16  TYR16       0.0417
     19  CZ       -41.3210   12.1610   -9.6000 C.ar   16  TYR16       0.1957
     20  OH       -40.4420   12.6280   -8.6600 O.3    16  TYR16      -0.2866
     21  N        -42.4080   15.5840  -14.8070 N.3    18  THR18      -0.1218
     22  CA       -42.9790   16.8650  -14.4390 C.3    18  THR18       0.1862
     23  C        -41.9660   17.9450  -14.7930 C.2    18  THR18       0.2287
     24  O        -40.9160   17.6690  -15.3800 O.2    18  THR18      -0.2866
     25  CB       -43.3840   16.8880  -12.9510 C.3    18  THR18       0.1770
     26  OG1      -44.1620   18.0580  -12.6950 O.3    18  THR18      -0.2211
     27  CG2      -42.1740   16.9060  -12.0350 C.3    18  THR18       0.0375
     28  N        -41.6910    6.1670   -8.6140 N.3    47  MET47      -0.1230
     29  CA       -42.2970    5.9290   -7.3140 C.3    47  MET47       0.1702
     30  C        -42.9400    4.5550   -7.2690 C.2    47  MET47       0.2592
     31  O        -43.5730    4.1200   -8.2340 O.2    47  MET47      -0.2718
     32  CB       -43.3180    6.9970   -6.9900 C.3    47  MET47       0.0401
     33  CG       -42.6560    8.3270   -6.7180 C.3    47  MET47       0.0596
     34  SD       -43.8820    9.6110   -6.6140 S.3    47  MET47      -0.1393
     35  CE       -44.8180    9.3230   -8.1130 C.3    47  MET47       0.0692
     36  N        -42.7780    3.8910   -6.1310 N.am   48  HIS48      -0.1976
     37  CA       -43.3050    2.5600   -5.8920 C.3    48  HIS48       0.1656
     38  C        -44.5420    2.6340   -5.0040 C.2    48  HIS48       0.2291
     39  O        -44.8950    3.6890   -4.4760 O.2    48  HIS48      -0.2864
     40  CB       -42.2110    1.6780   -5.2830 C.3    48  HIS48       0.0771
     41  CG       -40.9360    1.7120   -6.0680 C.ar   48  HIS48       0.0820
     42  ND1      -40.7940    1.0780   -7.2850 N.ar   48  HIS48      -0.2267
     43  CD2      -39.7620    2.3460   -5.8370 C.ar   48  HIS48       0.1154
     44  CE1      -39.5800    1.2990   -7.7560 C.ar   48  HIS48       0.1986
     45  NE2      -38.9330    2.0670   -6.8980 N.ar   48  HIS48      -0.2212
     46  N        -45.5830    2.0140   -2.0740 N.3    50  GLN50      -0.1245
     47  CA       -45.5890    2.0600   -0.6200 C.3    50  GLN50       0.1566
     48  C        -46.9220    2.6150   -0.1370 C.2    50  GLN50       0.2260
     49  O        -47.4650    3.5560   -0.7240 O.2    50  GLN50      -0.2867
     50  CB       -44.4270    2.9190   -0.1170 C.3    50  GLN50       0.0367
     51  CG       -44.3600    3.0640    1.3880 C.3    50  GLN50       0.0905
     52  CD       -44.2400    1.7260    2.1220 C.2    50  GLN50       0.2608
     53  OE1      -43.4950    0.8330    1.7140 O.2    50  GLN50      -0.2717
     54  NE2      -44.9800    1.5910    3.2050 N.am   50  GLN50      -0.0878
     55  N        -50.0970    3.7710   -2.3780 N.3    53  LEU53      -0.1231
     56  CA       -50.4150    5.0910   -2.9130 C.3    53  LEU53       0.1693
     57  C        -50.6140    5.0650   -4.4240 C.2    53  LEU53       0.2591
     58  O        -51.4600    5.8010   -4.9450 O.2    53  LEU53      -0.2718
     59  CB       -49.3260    6.0950   -2.5310 C.3    53  LEU53       0.0284
     60  CG       -49.1200    6.1860   -1.0120 C.3    53  LEU53       0.0019
     61  CD1      -47.9050    7.0340   -0.6660 C.3    53  LEU53       0.0001
     62  CD2      -50.3710    6.7360   -0.3320 C.3    53  LEU53       0.0001
     63  N        -49.8480    4.2420   -5.1520 N.am   54  ILE54      -0.1980
     64  CA       -49.9270    4.2820   -6.6160 C.3    54  ILE54       0.1595
     65  C        -51.2530    3.7020   -7.0950 C.2    54  ILE54       0.2287
     66  O        -51.9360    4.2930   -7.9390 O.2    54  ILE54      -0.2864
     67  CB       -48.7340    3.5550   -7.2660 C.3    54  ILE54       0.0276
     68  CG1      -47.4080    4.1710   -6.8290 C.3    54  ILE54       0.0022
     69  CG2      -48.8470    3.6280   -8.7920 C.3    54  ILE54       0.0022
     70  CD1      -47.3380    5.6610   -7.0730 C.3    54  ILE54       0.0001
     71  N        -53.8760    6.0720   -6.1500 N.3    57  LEU57      -0.1245
     72  CA       -53.8490    7.2400   -7.0250 C.3    57  LEU57       0.1561
     73  C        -54.5240    6.9490   -8.3670 C.2    57  LEU57       0.2260
     74  O        -55.2920    7.7720   -8.8820 O.2    57  LEU57      -0.2867
     75  CB       -52.4040    7.6940   -7.2350 C.3    57  LEU57       0.0270
     76  CG       -52.2560    9.0100   -8.0110 C.3    57  LEU57       0.0019
     77  CD1      -52.7400   10.1950   -7.1560 C.3    57  LEU57       0.0001
     78  CD2      -50.8230    9.2070   -8.4470 C.3    57  LEU57       0.0001
     79  N        -58.1150    7.0730   -7.6720 N.3    60  LEU60      -0.1245
     80  CA       -58.5810    8.4290   -7.4010 C.3    60  LEU60       0.1561
     81  C        -58.7890    9.2080   -8.7000 C.2    60  LEU60       0.2260
     82  O        -59.8530    9.8040   -8.9200 O.2    60  LEU60      -0.2867
     83  CB       -57.5870    9.1400   -6.4820 C.3    60  LEU60       0.0270
     84  CG       -57.8640   10.6190   -6.2540 C.3    60  LEU60       0.0019
     85  CD1      -59.1300   10.7930   -5.4230 C.3    60  LEU60       0.0001
     86  CD2      -56.6760   11.2810   -5.5950 C.3    60  LEU60       0.0001
@<TRIPOS>BOND
     1    24    23    2
     2    21    22    1
     3    23    22    1
     4    11    12    2
     5    11    10    1
     6    22    25    1
     7    10     9    1
     8    10    13    1
     9    25    26    1
    10    25    27    1
    11    13    14    1
    12     7     6    1
    13     3     2    1
    14     3     4    2
    15    15    14   ar
    16    15    17   ar
    17    14    16   ar
    18     2     1    1
    19     2     5    1
    20     6     5    1
    21     6     8    1
    22    17    19   ar
    23    16    18   ar
    24    19    18   ar
    25    19    20    1
    26    82    81    2
    27    74    73    2
    28    69    67    1
    29    81    80    1
    30    28    29    1
    31    78    76    1
    32    73    72    1
    33    31    30    2
    34    35    34    1
    35    76    75    1
    36    76    77    1
    37    66    65    2
    38    44    42   ar
    39    44    45   ar
    40    79    80    1
    41    80    83    1
    42    29    30    1
    43    29    32    1
    44    42    41   ar
    45    30    36   am
    46    67    68    1
    47    67    64    1
    48    75    72    1
    49    65    64    1
    50    70    68    1
    51    72    71    1
    52    32    33    1
    53    45    43   ar
    54    33    34    1
    55    64    63    1
    56    83    84    1
    57    84    86    1
    58    84    85    1
    59    36    37    1
    60    41    43   ar
    61    41    40    1
    62    37    40    1
    63    37    38    1
    64    63    57   am
    65    38    39    2
    66    58    57    2
    67    57    56    1
    68    56    59    1
    69    56    55    1
    70    59    60    1
    71    46    47    1
    72    60    61    1
    73    60    62    1
    74    49    48    2
    75    47    48    1
    76    47    50    1
    77    50    51    1
    78    51    52    1
    79    53    52    2
    80    52    54   am
