@<TRIPOS>MOLECULE
tmp/6g97A00.pdb
 160 149 0 0 0
SMALL
GASTEIGER

@<TRIPOS>ATOM
      1  N          8.5960   15.5380   46.8090 N.3    21  ILE21      -0.1231
      2  CA         8.4300   14.9900   45.4810 C.3    21  ILE21       0.1692
      3  C          7.1220   15.6030   44.9910 C.2    21  ILE21       0.2593
      4  O          7.1420   16.5050   44.1530 O.2    21  ILE21      -0.2718
      5  CB         8.4490   13.4460   45.4970 C.3    21  ILE21       0.0266
      6  CG1        9.8750   12.9440   45.8110 C.3    21  ILE21       0.0019
      7  CG2        7.9250   12.8660   44.1570 C.3    21  ILE21       0.0020
      8  CD1        9.9310   11.4860   46.2680 C.3    21  ILE21       0.0001
      9  N          6.0130   15.1380   45.5350 N.am   22  GLY22      -0.1942
     10  CA         4.6960   15.5840   45.1060 C.3    22  GLY22       0.2014
     11  C          3.6380   15.3780   46.1610 C.2    22  GLY22       0.2639
     12  O          3.9620   15.1490   47.3310 O.2    22  GLY22      -0.2714
     13  N          2.3680   15.4630   45.7530 N.am   23  GLU23      -0.1963
     14  CA         1.2580   15.3620   46.6850 C.3    23  GLU23       0.1733
     15  C         -0.0640   14.9670   46.0030 C.2    23  GLU23       0.2616
     16  O         -0.0930   14.6720   44.8050 O.2    23  GLU23      -0.2715
     17  CB         1.1270   16.6760   47.5020 C.3    23  GLU23       0.0429
     18  CG         0.5990   17.8870   46.7670 C.3    23  GLU23       0.1163
     19  CD         0.6630   19.1190   47.6480 C.2    23  GLU23       0.3649
     20  OE1        1.7790   19.6630   47.8110 O.co2  23  GLU23      -0.2457
     21  OE2       -0.3820   19.5110   48.2180 O.co2  23  GLU23      -0.2457
     22  N         -1.1250   14.9340   46.8000 N.am   24  GLY24      -0.1955
     23  CA        -2.4900   14.8290   46.3270 C.3    24  GLY24       0.1869
     24  C         -3.4540   15.4940   47.2820 C.2    24  GLY24       0.2309
     25  O         -3.0540   16.3010   48.1260 O.2    24  GLY24      -0.2863
     26  N         -2.4380   13.7150   50.9020 N.3    27  GLY27      -0.1225
     27  CA        -1.1020   13.2570   51.2510 C.3    27  GLY27       0.1811
     28  C          0.0330   13.9110   50.5150 C.2    27  GLY27       0.2280
     29  O         -0.1800   14.4900   49.4530 O.2    27  GLY27      -0.2866
     30  N          4.2950   13.1850   49.3360 N.3    29  VAL29      -0.1245
     31  CA         5.4110   12.2800   49.1470 C.3    29  VAL29       0.1561
     32  C          6.7110   13.0290   49.2110 C.2    29  VAL29       0.2260
     33  O          6.8330   14.1210   48.6310 O.2    29  VAL29      -0.2867
     34  CB         5.2610   11.4780   47.8440 C.3    29  VAL29       0.0252
     35  CG1        6.2830   10.3400   47.7690 C.3    29  VAL29       0.0019
     36  CG2        3.8420   10.9260   47.7210 C.3    29  VAL29       0.0019
     37  N         11.0590    6.4090   49.4400 N.3    42  ALA42      -0.1245
     38  CA         9.9510    7.3240   49.2700 C.3    42  ALA42       0.1562
     39  C          9.0710    7.1570   50.5070 C.2    42  ALA42       0.2260
     40  O          8.8420    6.0320   50.9470 O.2    42  ALA42      -0.2867
     41  CB         9.1550    7.0090   47.9690 C.3    42  ALA42       0.0290
     42  N          5.2980    8.4320   51.8910 N.3    44  LYS44      -0.1245
     43  CA         4.0400    9.1470   51.7780 C.3    44  LYS44       0.1561
     44  C          3.4200    9.3910   53.1270 C.2    44  LYS44       0.2260
     45  O          3.0700    8.4420   53.8270 O.2    44  LYS44      -0.2867
     46  CB         3.0490    8.3830   50.8910 C.3    44  LYS44       0.0271
     47  CG         1.7170    9.0870   50.7780 C.3    44  LYS44       0.0035
     48  CD         0.9790    8.7600   49.5130 C.3    44  LYS44       0.0206
     49  CE         0.7010    7.3160   49.2740 C.3    44  LYS44       0.1093
     50  NZ        -0.0440    7.1220   47.9940 N.3    44  LYS44      -0.1314
     51  N          4.7810   -1.2900   43.1310 N.3    74  ILE74      -0.1245
     52  CA         5.3860   -0.6430   44.3040 C.3    74  ILE74       0.1561
     53  C          4.7710   -1.2210   45.5850 C.2    74  ILE74       0.2260
     54  O          3.5650   -1.1260   45.7870 O.2    74  ILE74      -0.2867
     55  CB         5.1300    0.8970   44.3010 C.3    74  ILE74       0.0252
     56  CG1        6.1270    1.5710   45.2570 C.3    74  ILE74       0.0019
     57  CG2        3.6070    1.2430   44.7050 C.3    74  ILE74       0.0019
     58  CD1        7.4740    1.5940   44.7560 C.3    74  ILE74       0.0001
     59  N          8.1340    3.3520   50.8720 N.3    95  GLN95      -0.1231
     60  CA         8.1280    2.5760   49.6300 C.3    95  GLN95       0.1698
     61  C          9.4810    2.6870   48.9380 C.2    95  GLN95       0.2592
     62  O         10.2480    3.5810   49.2330 O.2    95  GLN95      -0.2718
     63  CB         7.0320    3.1090   48.7000 C.3    95  GLN95       0.0381
     64  CG         5.6580    3.1130   49.3390 C.3    95  GLN95       0.0905
     65  CD         4.5570    3.2890   48.3560 C.2    95  GLN95       0.2608
     66  OE1        4.3070    4.3830   47.8580 O.2    95  GLN95      -0.2717
     67  NE2        3.8500    2.2310   48.0420 N.am   95  GLN95      -0.0878
     68  N          9.7700    1.7830   48.0180 N.am   96  ASP96      -0.1960
     69  CA        11.0270    1.8740   47.2480 C.3    96  ASP96       0.1840
     70  C         11.0330    3.2120   46.5190 C.2    96  ASP96       0.2622
     71  O         10.0100    3.5540   45.9410 O.2    96  ASP96      -0.2715
     72  CB        11.1540    0.7280   46.2500 C.3    96  ASP96       0.1450
     73  CG        11.3610   -0.6440   46.8700 C.2    96  ASP96       0.3671
     74  OD1       10.9360   -1.6330   46.2510 O.co2  96  ASP96      -0.2456
     75  OD2       11.8770   -0.7140   48.0120 O.co2  96  ASP96      -0.2456
     76  N         12.1440    3.9720   46.5840 N.am   97  LEU97      -0.1963
     77  CA        12.3070    5.1830   45.8090 C.3    97  LEU97       0.1728
     78  C         12.7580    4.8250   44.3700 C.2    97  LEU97       0.2616
     79  O         13.7480    4.1380   44.1820 O.2    97  LEU97      -0.2715
     80  CB        13.3490    6.1190   46.4140 C.3    97  LEU97       0.0311
     81  CG        13.5620    7.4500   45.6960 C.3    97  LEU97       0.0022
     82  CD1       12.3700    8.3580   45.8280 C.3    97  LEU97       0.0001
     83  CD2       14.8210    8.1540   46.2550 C.3    97  LEU97       0.0001
     84  N         12.0250    5.3150   43.3980 N.am   98  MET98      -0.1963
     85  CA        12.3420    5.1750   41.9850 C.3    98  MET98       0.1736
     86  C         12.8810    6.4950   41.4300 C.2    98  MET98       0.2616
     87  O         12.5790    7.5360   41.9680 O.2    98  MET98      -0.2715
     88  CB        11.0850    4.7730   41.2190 C.3    98  MET98       0.0427
     89  CG        10.5290    3.4740   41.6430 C.3    98  MET98       0.0599
     90  SD        11.5700    2.0370   41.2940 S.3    98  MET98      -0.1393
     91  CE        11.0740    1.6880   39.6340 C.3    98  MET98       0.0692
     92  N         13.6500    6.4460   40.3500 N.am   99  GLU99      -0.1963
     93  CA        14.3510    7.5980   39.7840 C.3    99  GLU99       0.1733
     94  C         13.4470    8.5870   39.1100 C.2    99  GLU99       0.2617
     95  O         13.6250    9.7790   39.2680 O.2    99  GLU99      -0.2715
     96  CB        15.3970    7.0930   38.7530 C.3    99  GLU99       0.0429
     97  CG        16.3240    8.1740   38.1930 C.3    99  GLU99       0.1163
     98  CD        16.1700    8.4710   36.7060 C.2    99  GLU99       0.3649
     99  OE1       15.9940    9.6610   36.3500 O.co2  99  GLU99      -0.2457
    100  OE2       16.2520    7.5170   35.8950 O.co2  99  GLU99      -0.2457
    101  N         12.4720    8.1040   38.3390 N.am  100  THR100     -0.1937
    102  CA        11.6290    8.9730   37.5500 C.3   100  THR100      0.2028
    103  C         10.2920    8.3220   37.3600 C.2   100  THR100      0.2642
    104  O         10.0330    7.3000   37.9900 O.2   100  THR100     -0.2714
    105  CB        12.3680    9.4050   36.2520 C.3   100  THR100      0.1808
    106  OG1       11.6600   10.4930   35.6620 O.3   100  THR100     -0.2208
    107  CG2       12.5330    8.2930   35.2490 C.3   100  THR100      0.0379
    108  N          9.4430    8.9190   36.5100 N.am  101  ASP101     -0.1971
    109  CA         8.1820    8.3220   36.0970 C.3   101  ASP101      0.1709
    110  C          7.9950    8.4970   34.5780 C.2   101  ASP101      0.2293
    111  O          8.7760    9.2160   33.9320 O.2   101  ASP101     -0.2864
    112  CB         7.0170    8.8960   36.8970 C.3   101  ASP101      0.1436
    113  CG         6.7470   10.3730   36.6660 C.2   101  ASP101      0.3671
    114  OD1        6.6700   10.7720   35.5300 O.co2 101  ASP101     -0.2456
    115  OD2        6.5140   11.0960   37.6450 O.co2 101  ASP101     -0.2456
    116  N          7.3810   12.2510   33.1580 N.3   104  LYS104     -0.1245
    117  CA         8.5860   13.0560   33.0140 C.3   104  LYS104      0.1561
    118  C          9.4090   12.5640   31.8310 C.2   104  LYS104      0.2260
    119  O          9.9430   13.3450   31.0700 O.2   104  LYS104     -0.2867
    120  CB         9.4460   13.0080   34.2840 C.3   104  LYS104      0.0271
    121  CG         8.7810   13.5350   35.5530 C.3   104  LYS104      0.0035
    122  CD         9.8370   13.5510   36.6570 C.3   104  LYS104      0.0206
    123  CE         9.3640   14.1450   37.9510 C.3   104  LYS104      0.1093
    124  NZ        10.5310   14.4730   38.8100 N.3   104  LYS104     -0.1314
    125  N          2.3150    9.3430   35.1160 N.3   143  SER143     -0.1202
    126  CA         2.9180    9.7150   36.4030 C.3   143  SER143      0.2020
    127  C          2.8140    8.6410   37.4950 C.2   143  SER143      0.2618
    128  O          3.5060    8.7680   38.4840 O.2   143  SER143     -0.2717
    129  CB         2.3390   11.0270   36.9200 C.3   143  SER143      0.2103
    130  OG         0.9620   10.8680   37.1690 O.3   143  SER143     -0.2182
    131  N          1.9620    7.6090   37.3230 N.am  144  ASN144     -0.1974
    132  CA         1.8770    6.4610   38.2090 C.3   144  ASN144      0.1688
    133  C          2.6430    5.2680   37.7450 C.2   144  ASN144      0.2292
    134  O          2.4630    4.2060   38.3270 O.2   144  ASN144     -0.2864
    135  CB         0.3960    6.0770   38.4790 C.3   144  ASN144      0.1181
    136  CG        -0.2480    7.0870   39.3500 C.2   144  ASN144      0.2629
    137  OD1        0.4360    7.7670   40.1440 O.2   144  ASN144     -0.2716
    138  ND2       -1.5750    7.1280   39.3100 N.am  144  ASN144     -0.0877
    139  N          6.4080    4.2430   37.5140 N.3   146  LEU146     -0.1245
    140  CA         7.7270    4.6440   37.9250 C.3   146  LEU146      0.1561
    141  C          8.7800    3.8360   37.2340 C.2   146  LEU146      0.2260
    142  O          8.5820    2.6650   36.9410 O.2   146  LEU146     -0.2867
    143  CB         7.8400    4.4960   39.4330 C.3   146  LEU146      0.0270
    144  CG         6.7140    5.1820   40.2670 C.3   146  LEU146      0.0019
    145  CD1        6.9600    4.9280   41.7310 C.3   146  LEU146      0.0001
    146  CD2        6.5660    6.6830   39.9490 C.3   146  LEU146      0.0001
    147  N          2.5120    2.4370   40.6970 N.3   155  CYS155     -0.1221
    148  CA         2.2810    3.0170   42.0230 C.3   155  CYS155      0.1808
    149  C          0.9040    3.6610   42.1390 C.2   155  CYS155      0.2601
    150  O          0.1280    3.6350   41.2100 O.2   155  CYS155     -0.2717
    151  CB         3.4000    3.9850   42.4130 C.3   155  CYS155      0.0970
    152  SG         3.3160    5.6280   41.6410 S.3   155  CYS155     -0.0800
    153  N          0.6150    4.2210   43.3100 N.am  156  ASP156     -0.1973
    154  CA        -0.6020    4.9860   43.5910 C.3   156  ASP156      0.1709
    155  C         -1.9030    4.1980   43.4340 C.2   156  ASP156      0.2293
    156  O         -2.6620    4.3570   42.4770 O.2   156  ASP156     -0.2864
    157  CB        -0.6520    6.2640   42.7890 C.3   156  ASP156      0.1436
    158  CG        -1.8340    7.1470   43.1280 C.2   156  ASP156      0.3671
    159  OD1       -2.5290    6.8680   44.1470 O.co2 156  ASP156     -0.2456
    160  OD2       -2.1250    8.0240   42.3450 O.co2 156  ASP156     -0.2456
@<TRIPOS>BOND
     1   119   118    2
     2   118   117    1
     3   117   116    1
     4   117   120    1
     5   111   110    2
     6   120   121    1
     7   110   109    1
     8   125   126    1
     9   107   105    1
    10   114   113   ar
    11   121   122    1
    12   106   105    1
    13   100    98   ar
    14   109   108    1
    15   109   112    1
    16   105   102    1
    17    99    98   ar
    18   126   129    1
    19   126   127    1
    20   108   103   am
    21   122   123    1
    22   113   112    1
    23   113   115   ar
    24    98    97    1
    25   129   130    1
    26   142   141    2
    27   141   140    1
    28   131   127   am
    29   131   132    1
    30   103   102    1
    31   103   104    2
    32   127   128    2
    33   139   140    1
    34   102   101    1
    35   133   132    1
    36   133   134    2
    37   140   143    1
    38   123   124    1
    39    97    96    1
    40   132   135    1
    41   101    94   am
    42   135   136    1
    43    96    93    1
    44    94    95    2
    45    94    93    1
    46   138   136   am
    47   136   137    2
    48   143   144    1
    49    91    90    1
    50    93    92    1
    51   146   144    1
    52   144   145    1
    53    92    86   am
    54   147   148    1
    55   150   149    2
    56    88    89    1
    57    88    85    1
    58    90    89    1
    59    86    87    2
    60    86    85    1
    61   152   151    1
    62    85    84    1
    63   148   149    1
    64   148   151    1
    65   149   153   am
    66   160   158   ar
    67   156   155    2
    68   157   158    1
    69   157   154    1
    70   158   159   ar
    71    51    52    1
    72   153   154    1
    73    84    78   am
    74   155   154    1
    75     4     3    2
    76     7     5    1
    77    79    78    2
    78    55    52    1
    79    55    57    1
    80    55    56    1
    81    52    53    1
    82    78    77    1
    83    58    56    1
    84    16    15    2
    85     3     2    1
    86     3     9   am
    87    10     9    1
    88    10    11    1
    89     2     5    1
    90     2     1    1
    91     5     6    1
    92    53    54    2
    93    81    82    1
    94    81    83    1
    95    81    80    1
    96    13    11   am
    97    13    14    1
    98    77    80    1
    99    77    76    1
   100     6     8    1
   101    71    70    2
   102    15    14    1
   103    15    22   am
   104    11    12    2
   105    72    73    1
   106    72    69    1
   107    74    73   ar
   108    23    22    1
   109    23    24    1
   110    70    76   am
   111    70    69    1
   112    14    17    1
   113    18    17    1
   114    18    19    1
   115    73    75   ar
   116    69    68    1
   117    24    25    2
   118    19    20   ar
   119    19    21   ar
   120    36    34    1
   121    35    34    1
   122    34    31    1
   123    66    65    2
   124    41    38    1
   125    50    49    1
   126    68    61   am
   127    67    65   am
   128    65    64    1
   129    33    32    2
   130    63    64    1
   131    63    60    1
   132    61    62    2
   133    61    60    1
   134    31    32    1
   135    31    30    1
   136    38    37    1
   137    38    39    1
   138    49    48    1
   139    29    28    2
   140    48    47    1
   141    60    59    1
   142    39    40    2
   143    28    27    1
   144    47    46    1
   145    46    43    1
   146    26    27    1
   147    43    42    1
   148    43    44    1
   149    44    45    2
