@<TRIPOS>MOLECULE
tmp/6g98A00.pdb
 195 186 0 0 0
SMALL
GASTEIGER

@<TRIPOS>ATOM
      1  N         12.2990  -23.4330  -44.0380 N.3    46  ARG46      -0.1245
      2  CA        13.3600  -24.3920  -43.7550 C.3    46  ARG46       0.1563
      3  C         14.7620  -23.8260  -43.9570 C.2    46  ARG46       0.2260
      4  O         15.0300  -23.1580  -44.9440 O.2    46  ARG46      -0.2867
      5  CB        13.1490  -25.6300  -44.6340 C.3    46  ARG46       0.0307
      6  CG        14.1900  -26.7290  -44.4870 C.3    46  ARG46       0.0489
      7  CD        13.9350  -27.8400  -45.5040 C.3    46  ARG46       0.2205
      8  NE        15.0420  -28.7880  -45.4670 N.pl3  46  ARG46      -0.0865
      9  CZ        15.2450  -29.6850  -44.5010 C.cat  46  ARG46       0.5346
     10  NH1       16.3110  -30.4620  -44.5650 N.pl3  46  ARG46       0.1354
     11  NH2       14.3940  -29.8240  -43.4760 N.pl3  46  ARG46       0.1354
     12  N         17.9570  -25.0870  -44.9780 N.3    48  ASN48      -0.1240
     13  CA        18.4270  -26.2790  -45.6680 C.3    48  ASN48       0.1653
     14  C         19.9510  -26.3680  -45.6370 C.2    48  ASN48       0.2266
     15  O         20.5300  -27.1690  -46.3570 O.2    48  ASN48      -0.2867
     16  CB        17.8540  -26.3990  -47.1000 C.3    48  ASN48       0.1155
     17  CG        18.3310  -25.3050  -48.0400 C.2    48  ASN48       0.2627
     18  OD1       19.3590  -24.6590  -47.8080 O.2    48  ASN48      -0.2716
     19  ND2       17.5690  -25.0880  -49.1200 N.am   48  ASN48      -0.0877
     20  N         22.1990  -24.3290  -46.8020 N.3    50  HIS50      -0.1226
     21  CA        22.8220  -23.4200  -47.7760 C.3    50  HIS50       0.1752
     22  C         21.9760  -22.1440  -47.9890 C.2    50  HIS50       0.2596
     23  O         22.4220  -21.2100  -48.6440 O.2    50  HIS50      -0.2718
     24  CB        23.1350  -24.1830  -49.0990 C.3    50  HIS50       0.0759
     25  CG        23.7760  -25.5440  -48.8830 C.ar   50  HIS50       0.0818
     26  ND1       25.1330  -25.7150  -48.6730 N.ar   50  HIS50      -0.2268
     27  CD2       23.2330  -26.7880  -48.8020 C.ar   50  HIS50       0.1154
     28  CE1       25.3940  -26.9980  -48.4810 C.ar   50  HIS50       0.1986
     29  NE2       24.2590  -27.6710  -48.5590 N.ar   50  HIS50      -0.2212
     30  N         20.7810  -22.0990  -47.3940 N.am   51  SER51      -0.1952
     31  CA        19.8040  -21.0350  -47.6050 C.3    51  SER51       0.1924
     32  C         18.6150  -21.2590  -46.6880 C.2    51  SER51       0.2314
     33  O         18.4870  -22.3290  -46.0820 O.2    51  SER51      -0.2863
     34  CB        19.2970  -21.0080  -49.0520 C.3    51  SER51       0.2116
     35  OG        18.5470  -19.8260  -49.2830 O.3    51  SER51      -0.2180
     36  N         14.5800  -21.5130  -47.0910 N.3    53  GLN53      -0.1245
     37  CA        13.5630  -21.6690  -48.1290 C.3    53  GLN53       0.1566
     38  C         12.1560  -21.7210  -47.5590 C.2    53  GLN53       0.2260
     39  O         11.9480  -22.1740  -46.4410 O.2    53  GLN53      -0.2867
     40  CB        13.8060  -22.9020  -48.9890 C.3    53  GLN53       0.0367
     41  CG        13.7830  -24.2070  -48.2210 C.3    53  GLN53       0.0905
     42  CD        13.9550  -25.4270  -49.1030 C.2    53  GLN53       0.2608
     43  OE1       14.6210  -25.3790  -50.1420 O.2    53  GLN53      -0.2717
     44  NE2       13.3510  -26.5330  -48.6910 N.am   53  GLN53      -0.0878
     45  N          6.9960  -22.8890  -57.0830 N.3    73  LEU73      -0.1231
     46  CA         7.4110  -24.0370  -56.2580 C.3    73  LEU73       0.1693
     47  C          7.9370  -23.6320  -54.8910 C.2    73  LEU73       0.2591
     48  O          7.5330  -24.2010  -53.8680 O.2    73  LEU73      -0.2718
     49  CB         8.5130  -24.8300  -56.9530 C.3    73  LEU73       0.0284
     50  CG         8.1670  -25.4160  -58.3100 C.3    73  LEU73       0.0019
     51  CD1        9.4240  -26.0080  -58.9230 C.3    73  LEU73       0.0001
     52  CD2        7.0610  -26.4570  -58.1960 C.3    73  LEU73       0.0001
     53  N          8.8860  -22.7080  -54.8800 N.am   74  GLN74      -0.1979
     54  CA         9.4370  -22.2060  -53.6420 C.3    74  GLN74       0.1601
     55  C         10.1180  -20.8790  -53.8310 C.2    74  GLN74       0.2287
     56  O         10.3510  -20.4210  -54.9710 O.2    74  GLN74      -0.2864
     57  CB        10.4240  -23.2030  -53.0280 C.3    74  GLN74       0.0394
     58  CG        11.6820  -23.4920  -53.8160 C.3    74  GLN74       0.0908
     59  CD        12.9390  -22.7770  -53.2950 C.2    74  GLN74       0.2608
     60  OE1       13.2240  -21.6610  -53.7040 O.2    74  GLN74      -0.2717
     61  NE2       13.7510  -23.4750  -52.4850 N.am   74  GLN74      -0.0878
     62  N         13.5600  -18.6190  -51.7990 N.3    76  HIS76      -0.1241
     63  CA        14.6770  -18.6510  -50.8720 C.3    76  HIS76       0.1621
     64  C         15.4890  -17.3810  -51.0200 C.2    76  HIS76       0.2264
     65  O         15.2710  -16.5790  -51.9390 O.2    76  HIS76      -0.2867
     66  CB        15.5600  -19.8730  -51.1480 C.3    76  HIS76       0.0745
     67  CG        16.1170  -19.8940  -52.5320 C.ar   76  HIS76       0.0817
     68  ND1       15.3830  -20.3130  -53.6200 N.ar   76  HIS76      -0.2268
     69  CD2       17.3190  -19.5040  -53.0140 C.ar   76  HIS76       0.1154
     70  CE1       16.1120  -20.1930  -54.7130 C.ar   76  HIS76       0.1986
     71  NE2       17.2960  -19.7140  -54.3730 N.ar   76  HIS76      -0.2212
     72  N         19.3780  -15.1910  -50.6500 N.3    78  HIS78      -0.1241
     73  CA        20.8200  -15.1630  -50.6350 C.3    78  HIS78       0.1621
     74  C         21.1910  -13.8720  -49.9260 C.2    78  HIS78       0.2264
     75  O         20.5160  -12.8730  -50.0750 O.2    78  HIS78      -0.2867
     76  CB        21.3550  -15.2030  -52.0660 C.3    78  HIS78       0.0745
     77  CG        20.9700  -16.4390  -52.8390 C.ar   78  HIS78       0.0817
     78  ND1       21.8040  -17.5330  -52.9570 N.ar   78  HIS78      -0.2268
     79  CD2       19.8700  -16.7230  -53.5810 C.ar   78  HIS78       0.1154
     80  CE1       21.2280  -18.4450  -53.7220 C.ar   78  HIS78       0.1986
     81  NE2       20.0530  -17.9800  -54.1100 N.ar   78  HIS78      -0.2212
     82  N         23.3030  -12.2520  -55.4240 N.3    88  GLU88      -0.1245
     83  CA        23.9360  -13.1120  -56.4200 C.3    88  GLU88       0.1567
     84  C         24.2310  -12.3020  -57.6650 C.2    88  GLU88       0.2260
     85  O         25.3680  -12.2550  -58.1260 O.2    88  GLU88      -0.2867
     86  CB        23.0450  -14.3090  -56.7630 C.3    88  GLU88       0.0388
     87  CG        22.9330  -15.3120  -55.6230 C.3    88  GLU88       0.1160
     88  CD        22.9980  -16.7440  -56.1090 C.2    88  GLU88       0.3649
     89  OE1       23.9400  -17.4530  -55.7010 O.co2  88  GLU88      -0.2457
     90  OE2       22.1060  -17.1510  -56.8990 O.co2  88  GLU88      -0.2457
     91  N         14.7710  -15.1090  -54.4550 N.3   101  HIS101     -0.1241
     92  CA        14.4470  -15.8890  -55.6380 C.3   101  HIS101      0.1621
     93  C         13.1520  -16.6630  -55.4680 C.2   101  HIS101      0.2264
     94  O         12.9950  -17.3800  -54.4840 O.2   101  HIS101     -0.2867
     95  CB        15.5630  -16.8820  -55.9250 C.3   101  HIS101      0.0745
     96  CG        16.8350  -16.2480  -56.3730 C.ar  101  HIS101      0.0817
     97  ND1       18.0420  -16.9030  -56.3270 N.ar  101  HIS101     -0.2268
     98  CD2       17.0940  -15.0170  -56.8720 C.ar  101  HIS101      0.1154
     99  CE1       18.9870  -16.1050  -56.7860 C.ar  101  HIS101      0.1986
    100  NE2       18.4400  -14.9540  -57.1250 N.ar  101  HIS101     -0.2212
    101  N         11.2420  -19.5680  -57.4470 N.3   103  VAL103     -0.1245
    102  CA        11.4750  -20.5590  -58.5020 C.3   103  VAL103      0.1561
    103  C         10.1570  -21.1740  -58.9260 C.2   103  VAL103      0.2260
    104  O          9.3510  -21.5990  -58.0830 O.2   103  VAL103     -0.2867
    105  CB        12.4200  -21.6880  -58.0410 C.3   103  VAL103      0.0252
    106  CG1       12.7460  -22.6290  -59.2080 C.3   103  VAL103      0.0019
    107  CG2       13.6990  -21.1130  -57.4460 C.3   103  VAL103      0.0019
    108  N          9.5850  -31.1980  -61.9290 N.3   112  VAL112     -0.1245
    109  CA        10.8680  -30.5180  -61.9780 C.3   112  VAL112      0.1561
    110  C         11.9290  -31.2510  -62.8160 C.2   112  VAL112      0.2260
    111  O         12.6060  -30.6370  -63.6410 O.2   112  VAL112     -0.2867
    112  CB        11.4000  -30.3410  -60.5400 C.3   112  VAL112      0.0252
    113  CG1       12.8340  -29.8980  -60.5470 C.3   112  VAL112      0.0019
    114  CG2       10.5650  -29.3420  -59.7560 C.3   112  VAL112      0.0019
    115  N         14.2770  -29.6430  -66.0480 N.3   116  LEU116     -0.1245
    116  CA        15.6790  -29.2990  -65.8670 C.3   116  LEU116      0.1561
    117  C         16.3960  -29.4370  -67.1540 C.2   116  LEU116      0.2260
    118  O         16.2500  -30.4570  -67.8170 O.2   116  LEU116     -0.2867
    119  CB        16.3570  -30.2540  -64.8790 C.3   116  LEU116      0.0270
    120  CG        16.1440  -30.0060  -63.3890 C.3   116  LEU116      0.0019
    121  CD1       16.6740  -31.1970  -62.5870 C.3   116  LEU116      0.0001
    122  CD2       16.8210  -28.7090  -62.9480 C.3   116  LEU116      0.0001
    123  N         12.1220  -23.9990  -66.2490 N.3   122  LEU122     -0.1245
    124  CA        12.0950  -23.2890  -64.9750 C.3   122  LEU122      0.1561
    125  C         12.2900  -21.8000  -65.2220 C.2   122  LEU122      0.2260
    126  O         12.9930  -21.3850  -66.1430 O.2   122  LEU122     -0.2867
    127  CB        13.2230  -23.7670  -64.0680 C.3   122  LEU122      0.0270
    128  CG        13.2380  -25.2570  -63.7610 C.3   122  LEU122      0.0019
    129  CD1       14.4980  -25.6000  -62.9900 C.3   122  LEU122      0.0001
    130  CD2       12.0170  -25.6570  -62.9650 C.3   122  LEU122      0.0001
    131  N         12.8370  -18.1650  -62.7900 N.3   124  VAL124     -0.1245
    132  CA        13.0150  -17.5710  -61.4710 C.3   124  VAL124      0.1561
    133  C         12.7590  -16.0820  -61.5530 C.2   124  VAL124      0.2260
    134  O         13.2380  -15.4460  -62.4790 O.2   124  VAL124     -0.2867
    135  CB        14.4380  -17.7720  -60.9390 C.3   124  VAL124      0.0252
    136  CG1       14.5260  -17.3170  -59.4810 C.3   124  VAL124      0.0019
    137  CG2       14.8410  -19.2260  -61.0710 C.3   124  VAL124      0.0019
    138  N         20.6020  -22.6280  -62.8930 N.3   181  LEU181     -0.1231
    139  CA        20.5370  -22.7160  -61.4350 C.3   181  LEU181      0.1693
    140  C         21.9160  -22.3770  -60.8690 C.2   181  LEU181      0.2593
    141  O         22.9370  -22.5410  -61.5610 O.2   181  LEU181     -0.2718
    142  CB        20.0670  -24.0930  -60.9800 C.3   181  LEU181      0.0284
    143  CG        18.6600  -24.4590  -61.4350 C.3   181  LEU181      0.0019
    144  CD1       18.3500  -25.8980  -61.0630 C.3   181  LEU181      0.0001
    145  CD2       17.5990  -23.4940  -60.8660 C.3   181  LEU181      0.0001
    146  N         21.9340  -21.8640  -59.6340 N.am  182  THR182     -0.1939
    147  CA        23.1640  -21.3940  -58.9880 C.3   182  THR182      0.2028
    148  C         23.6820  -22.3440  -57.8860 C.2   182  THR182      0.2643
    149  O         24.6070  -22.0250  -57.1400 O.2   182  THR182     -0.2714
    150  CB        22.9650  -19.9710  -58.4440 C.3   182  THR182      0.1808
    151  OG1       22.0240  -20.0010  -57.3800 O.3   182  THR182     -0.2208
    152  CG2       22.4570  -19.0180  -59.5600 C.3   182  THR182      0.0379
    153  N         23.0870  -23.5280  -57.8340 N.am  183  THR183     -0.1937
    154  CA        23.4910  -24.6090  -56.9590 C.3   183  THR183      0.2013
    155  C         23.4300  -25.8600  -57.8430 C.2   183  THR183      0.2484
    156  O         22.7130  -25.8480  -58.8540 O.2   183  THR183     -0.2729
    157  CB        22.5040  -24.7010  -55.7760 C.3   183  THR183      0.1807
    158  OG1       23.0700  -25.4650  -54.7170 O.3   183  THR183     -0.2208
    159  CG2       21.1650  -25.3200  -56.1880 C.3   183  THR183      0.0379
    160  N         24.1860  -26.9230  -57.5050 N.am  184  PRO184     -0.2715
    161  CA        24.1090  -28.1420  -58.3350 C.3   184  PRO184      0.1521
    162  C         22.7060  -28.7010  -58.3470 C.2   184  PRO184      0.2440
    163  O         22.0910  -28.7580  -57.3010 O.2   184  PRO184     -0.2731
    164  CB        25.0640  -29.0990  -57.6320 C.3   184  PRO184      0.0310
    165  CG        26.1070  -28.1870  -57.0550 C.3   184  PRO184      0.0237
    166  CD        25.3580  -26.9540  -56.6090 C.3   184  PRO184      0.0939
    167  N         22.1850  -29.1160  -59.4930 N.am  185  PRO185     -0.2727
    168  CA        22.9310  -29.4050  -60.7150 C.3   185  PRO185      0.1402
    169  C         23.2590  -28.2580  -61.6750 C.2   185  PRO185      0.2269
    170  O         23.8270  -28.5280  -62.7290 O.2   185  PRO185     -0.2865
    171  CB        22.0030  -30.3890  -61.4310 C.3   185  PRO185      0.0296
    172  CG        20.6400  -29.9450  -61.0090 C.3   185  PRO185      0.0237
    173  CD        20.8090  -29.6410  -59.5510 C.3   185  PRO185      0.0939
    174  N         15.6110  -16.1910  -66.1660 N.3   192  TRP192     -0.1241
    175  CA        15.8000  -15.2850  -65.0310 C.3   192  TRP192      0.1605
    176  C         15.1870  -13.9340  -65.3710 C.2   192  TRP192      0.2264
    177  O         15.5450  -13.3140  -66.3790 O.2   192  TRP192     -0.2867
    178  CB        17.2820  -15.0890  -64.6990 C.3   192  TRP192      0.0550
    179  CG        17.8940  -16.2690  -64.0640 C.ar  192  TRP192      0.0003
    180  CD1       18.4580  -17.3430  -64.6920 C.ar  192  TRP192      0.0946
    181  CD2       17.9900  -16.5210  -62.6710 C.ar  192  TRP192      0.0152
    182  NE1       18.8900  -18.2490  -63.7690 N.ar  192  TRP192     -0.2442
    183  CE2       18.6230  -17.7660  -62.5160 C.ar  192  TRP192      0.0810
    184  CE3       17.6160  -15.8020  -61.5250 C.ar  192  TRP192      0.0012
    185  CZ2       18.8930  -18.3150  -61.2620 C.ar  192  TRP192      0.0191
    186  CZ3       17.8750  -16.3470  -60.2710 C.ar  192  TRP192      0.0001
    187  CH2       18.5050  -17.5950  -60.1530 C.ar  192  TRP192      0.0015
    188  N         26.1050  -16.7390  -48.9310 N.3   224  ASN224     -0.1240
    189  CA        25.5920  -17.8880  -49.6800 C.3   224  ASN224      0.1653
    190  C         25.1670  -17.4570  -51.0930 C.2   224  ASN224      0.2266
    191  O         24.0190  -17.6410  -51.5100 O.2   224  ASN224     -0.2867
    192  CB        24.4540  -18.6000  -48.9060 C.3   224  ASN224      0.1155
    193  CG        23.2610  -17.7010  -48.6390 C.2   224  ASN224      0.2627
    194  OD1       23.4090  -16.4900  -48.5580 O.2   224  ASN224     -0.2716
    195  ND2       22.0750  -18.2870  -48.5120 N.am  224  ASN224     -0.0877
@<TRIPOS>BOND
     1   118   117    2
     2   117   116    1
     3   177   176    2
     4   123   124    1
     5   174   175    1
     6   126   125    2
     7   115   116    1
     8   116   119    1
     9   176   175    1
    10   125   124    1
    11   175   178    1
    12   124   127    1
    13   119   120    1
    14   178   179    1
    15   180   179   ar
    16   180   182   ar
    17   127   128    1
    18   179   181   ar
    19   182   183   ar
    20   128   129    1
    21   128   130    1
    22   111   110    2
    23   120   122    1
    24   120   121    1
    25   138   139    1
    26   110   109    1
    27   131   132    1
    28   170   169    2
    29   181   183   ar
    30   181   184   ar
    31   183   185   ar
    32   134   133    2
    33   109   108    1
    34   109   112    1
    35   169   168    1
    36   141   140    2
    37   133   132    1
    38   184   186   ar
    39   132   135    1
    40   143   144    1
    41   143   142    1
    42   143   145    1
    43   139   142    1
    44   139   140    1
    45   171   172    1
    46   171   168    1
    47   185   187   ar
    48   137   135    1
    49   172   173    1
    50   135   136    1
    51   140   146   am
    52   168   167    1
    53   113   112    1
    54   112   114    1
    55   186   187   ar
    56   146   147    1
    57   152   150    1
    58   173   167    1
    59   167   162   am
    60   106   105    1
    61   147   150    1
    62   147   148    1
    63   103   102    1
    64   103   104    2
    65    51    50    1
    66   156   155    2
    67   102   105    1
    68   102   101    1
    69   150   151    1
    70   162   161    1
    71   162   163    2
    72   161   164    1
    73   161   160    1
    74    50    52    1
    75    50    49    1
    76    85    84    2
    77   105   107    1
    78   148   153   am
    79   148   149    2
    80   155   160   am
    81   155   154    1
    82   153   154    1
    83    84    83    1
    84   164   165    1
    85   160   166    1
    86   100    98   ar
    87   100    99   ar
    88    45    46    1
    89   165   166    1
    90   154   157    1
    91    49    46    1
    92    90    88   ar
    93    98    96   ar
    94    99    97   ar
    95    86    83    1
    96    86    87    1
    97    83    82    1
    98    96    97   ar
    99    96    95    1
   100    46    47    1
   101   159   157    1
   102    88    89   ar
   103    88    87    1
   104    95    92    1
   105   157   158    1
   106    92    93    1
   107    92    91    1
   108    93    94    2
   109    56    55    2
   110    47    53   am
   111    47    48    2
   112    53    54    1
   113    70    71   ar
   114    70    68   ar
   115    71    69   ar
   116    81    80   ar
   117    81    79   ar
   118    55    54    1
   119    58    59    1
   120    58    57    1
   121    80    78   ar
   122    60    59    2
   123    54    57    1
   124    68    67   ar
   125    79    77   ar
   126    59    61   am
   127    69    67   ar
   128    78    77   ar
   129    77    76    1
   130    67    66    1
   131    76    73    1
   132    65    64    2
   133    62    63    1
   134   191   190    2
   135    66    63    1
   136   190   189    1
   137    64    63    1
   138    72    73    1
   139    73    74    1
   140    43    42    2
   141    75    74    2
   142   189   188    1
   143   189   192    1
   144    35    34    1
   145    19    17   am
   146    42    44   am
   147    42    41    1
   148    24    25    1
   149    24    21    1
   150    34    31    1
   151    40    41    1
   152    40    37    1
   153   192   193    1
   154    25    27   ar
   155    25    26   ar
   156    27    29   ar
   157    26    28   ar
   158    23    22    2
   159   193   194    2
   160   193   195   am
   161    29    28   ar
   162    37    38    1
   163    37    36    1
   164    17    18    2
   165    17    16    1
   166    22    21    1
   167    22    30   am
   168    21    20    1
   169    31    30    1
   170    31    32    1
   171    38    39    2
   172    16    13    1
   173    32    33    2
   174    15    14    2
   175    13    14    1
   176    13    12    1
   177     7     8    1
   178     7     6    1
   179     8     9    2
   180     4     3    2
   181     5     6    1
   182     5     2    1
   183    10     9    1
   184     9    11    1
   185     1     2    1
   186     3     2    1
