@<TRIPOS>MOLECULE
tmp/6g9aA00.pdb
 189 179 0 0 0
SMALL
GASTEIGER

@<TRIPOS>ATOM
      1  N         10.5230   15.8030   47.1250 N.3    24  ILE24      -0.1231
      2  CA        10.1610   15.2620   45.7950 C.3    24  ILE24       0.1692
      3  C          8.8560   15.8800   45.2890 C.2    24  ILE24       0.2593
      4  O          8.8130   16.3260   44.1450 O.2    24  ILE24      -0.2718
      5  CB        10.0830   13.6960   45.8330 C.3    24  ILE24       0.0266
      6  CG1       11.4920   13.0860   46.0950 C.3    24  ILE24       0.0019
      7  CG2        9.4650   13.1180   44.5320 C.3    24  ILE24       0.0020
      8  CD1       11.5570   11.4850   46.2220 C.3    24  ILE24       0.0001
      9  N          7.8060   15.8990   46.1160 N.am   25  GLY25      -0.1942
     10  CA         6.4970   16.4040   45.7020 C.3    25  GLY25       0.2014
     11  C          5.4470   16.3780   46.8000 C.2    25  GLY25       0.2639
     12  O          5.7480   15.9460   47.9120 O.2    25  GLY25      -0.2714
     13  N          4.2010   16.8260   46.5150 N.am   26  GLU26      -0.1963
     14  CA         3.1550   16.8060   47.5490 C.3    26  GLU26       0.1733
     15  C          1.7300   16.7490   47.0000 C.2    26  GLU26       0.2616
     16  O          1.5330   16.8120   45.7950 O.2    26  GLU26      -0.2715
     17  CB         3.3190   17.9950   48.5400 C.3    26  GLU26       0.0429
     18  CG         2.8530   19.3500   48.0420 C.3    26  GLU26       0.1163
     19  CD         3.1960   20.4800   48.9890 C.2    26  GLU26       0.3649
     20  OE1        4.3810   20.8870   49.0380 O.co2  26  GLU26      -0.2457
     21  OE2        2.2720   20.9600   49.6830 O.co2  26  GLU26      -0.2457
     22  N          0.7580   16.6120   47.9040 N.am   27  GLY27      -0.1955
     23  CA        -0.6530   16.5660   47.5480 C.3    27  GLY27       0.1869
     24  C         -1.6170   16.9260   48.6620 C.2    27  GLY27       0.2309
     25  O         -1.2290   17.4970   49.6870 O.2    27  GLY27      -0.2863
     26  N         -3.1800   15.3860   51.0320 N.3    29  TYR29      -0.1227
     27  CA        -2.9850   14.9760   52.4330 C.3    29  TYR29       0.1740
     28  C         -1.6310   14.2990   52.6830 C.2    29  TYR29       0.2635
     29  O         -1.5260   13.3690   53.4740 O.2    29  TYR29      -0.2714
     30  CB        -4.1770   14.1180   52.9120 C.3    29  TYR29       0.0548
     31  CG        -4.3590   12.7990   52.2090 C.ar   29  TYR29      -0.0200
     32  CD1       -3.9280   11.6130   52.7910 C.ar   29  TYR29      -0.0009
     33  CD2       -4.9780   12.7280   50.9640 C.ar   29  TYR29      -0.0009
     34  CE1       -4.1040   10.3890   52.1520 C.ar   29  TYR29       0.0417
     35  CE2       -5.1610   11.5050   50.3150 C.ar   29  TYR29       0.0417
     36  CZ        -4.7090   10.3370   50.9090 C.ar   29  TYR29       0.1957
     37  OH        -4.8630    9.1080   50.3160 O.3    29  TYR29      -0.2866
     38  N         -0.5920   14.7990   52.0340 N.am   30  GLY30      -0.1718
     39  CA         0.7250   14.1900   52.1430 C.2    30  GLY30       0.1480
     40  C          1.7960   14.8090   51.2710 C.2    30  GLY30       0.2820
     41  O          1.5050   15.5890   50.3550 O.2    30  GLY30      -0.2669
     42  N          3.0540   14.4380   51.5670 N.am   31  MET31      -0.1928
     43  CA         4.2750   14.9190   50.9160 C.3    31  MET31       0.1739
     44  C          5.2860   13.7850   50.7740 C.2    31  MET31       0.2616
     45  O          5.3660   12.9580   51.6700 O.2    31  MET31      -0.2715
     46  CB         4.8720   16.0170   51.7800 C.3    31  MET31       0.0427
     47  CG         6.3040   16.4280   51.4010 C.3    31  MET31       0.0599
     48  SD         6.8740   17.8450   52.3420 S.3    31  MET31      -0.1393
     49  CE         5.5800   19.0030   52.0200 C.3    31  MET31       0.0692
     50  N          6.0610   13.7530   49.6690 N.am   32  VAL32      -0.1977
     51  CA         7.0730   12.7020   49.4110 C.3    32  VAL32       0.1596
     52  C          8.4360   13.3060   49.4440 C.2    32  VAL32       0.2287
     53  O          8.5960   14.4070   48.9490 O.2    32  VAL32      -0.2864
     54  CB         6.8160   11.9510   48.0750 C.3    32  VAL32       0.0276
     55  CG1        7.8880   10.8850   47.8060 C.3    32  VAL32       0.0022
     56  CG2        5.4560   11.3020   48.0800 C.3    32  VAL32       0.0022
     57  N         12.7390    6.2700   49.1120 N.3    45  ALA45      -0.1245
     58  CA        11.6120    7.2120   49.0440 C.3    45  ALA45       0.1562
     59  C         10.7650    7.0870   50.3190 C.2    45  ALA45       0.2260
     60  O         10.5070    5.9760   50.7570 O.2    45  ALA45      -0.2867
     61  CB        10.7580    6.9220   47.8180 C.3    45  ALA45       0.0290
     62  N          7.0780    8.6940   52.0120 N.3    47  LYS47      -0.1245
     63  CA         5.8530    9.4850   51.9110 C.3    47  LYS47       0.1561
     64  C          5.2320    9.6560   53.2810 C.2    47  LYS47       0.2260
     65  O          4.8710    8.6480   53.9010 O.2    47  LYS47      -0.2867
     66  CB         4.7920    8.8210   50.9970 C.3    47  LYS47       0.0271
     67  CG         3.5760    9.7450   50.7990 C.3    47  LYS47       0.0035
     68  CD         2.5890    9.2900   49.7570 C.3    47  LYS47       0.0206
     69  CE         2.1880    7.8340   49.8570 C.3    47  LYS47       0.1093
     70  NZ         1.1020    7.5160   48.9020 N.3    47  LYS47      -0.1314
     71  N         -4.3640    1.3560   49.9240 N.3    64  GLU64      -0.1245
     72  CA        -2.9780    1.3330   49.4230 C.3    64  GLU64       0.1567
     73  C         -2.0370    0.5020   50.2750 C.2    64  GLU64       0.2260
     74  O         -1.1920   -0.2310   49.7340 O.2    64  GLU64      -0.2867
     75  CB        -2.4230    2.7520   49.2210 C.3    64  GLU64       0.0388
     76  CG        -0.8950    2.8450   49.1510 C.3    64  GLU64       0.1160
     77  CD        -0.3190    4.0150   48.4010 C.2    64  GLU64       0.3649
     78  OE1       -0.0600    3.8660   47.1870 O.co2  64  GLU64      -0.2457
     79  OE2       -0.0680    5.0620   49.0320 O.co2  64  GLU64      -0.2457
     80  N          5.8440   -1.3400   42.9780 N.3    77  ILE77      -0.1245
     81  CA         6.5050   -0.7520   44.1250 C.3    77  ILE77       0.1561
     82  C          5.9440   -1.4410   45.4020 C.2    77  ILE77       0.2260
     83  O          4.7370   -1.5600   45.5630 O.2    77  ILE77      -0.2867
     84  CB         6.2990    0.7930   44.2010 C.3    77  ILE77       0.0252
     85  CG1        7.3950    1.4480   45.1030 C.3    77  ILE77       0.0019
     86  CG2        4.8490    1.1450   44.7160 C.3    77  ILE77       0.0019
     87  CD1        8.8340    1.4460   44.5390 C.3    77  ILE77       0.0001
     88  N          9.6960    3.3440   50.7330 N.3    98  GLN98      -0.1231
     89  CA         9.7190    2.5880   49.4800 C.3    98  GLN98       0.1698
     90  C         11.0340    2.7130   48.7810 C.2    98  GLN98       0.2592
     91  O         11.8130    3.6120   49.0700 O.2    98  GLN98      -0.2718
     92  CB         8.5630    2.9960   48.5490 C.3    98  GLN98       0.0381
     93  CG         7.2080    2.9220   49.2330 C.3    98  GLN98       0.0905
     94  CD         6.0300    3.2390   48.3810 C.2    98  GLN98       0.2608
     95  OE1        5.7900    4.3970   48.0740 O.2    98  GLN98      -0.2717
     96  NE2        5.2110    2.2490   48.0540 N.am   98  GLN98      -0.0878
     97  N         11.3070    1.7860   47.8530 N.am   99  ASP99      -0.1960
     98  CA        12.5040    1.8930   46.9830 C.3    99  ASP99       0.1840
     99  C         12.4820    3.2740   46.2860 C.2    99  ASP99       0.2622
    100  O         11.4480    3.6680   45.7450 O.2    99  ASP99      -0.2715
    101  CB        12.5530    0.7600   45.9000 C.3    99  ASP99       0.1450
    102  CG        12.7080   -0.6360   46.4550 C.2    99  ASP99       0.3671
    103  OD1       12.4610   -1.6000   45.7040 O.co2  99  ASP99      -0.2456
    104  OD2       13.0340   -0.7640   47.6470 O.co2  99  ASP99      -0.2456
    105  N         13.6090    3.9980   46.3270 N.am  100  LEU100     -0.1963
    106  CA        13.7480    5.2300   45.5430 C.3   100  LEU100      0.1728
    107  C         14.0390    4.8810   44.0920 C.2   100  LEU100      0.2616
    108  O         14.9080    4.0710   43.7990 O.2   100  LEU100     -0.2715
    109  CB        14.8840    6.1130   46.0780 C.3   100  LEU100      0.0311
    110  CG        15.0940    7.4640   45.3730 C.3   100  LEU100      0.0022
    111  CD1       13.9730    8.4030   45.6100 C.3   100  LEU100      0.0001
    112  CD2       16.3730    8.0760   45.8370 C.3   100  LEU100      0.0001
    113  N         13.3130    5.4880   43.2020 N.am  101  MET101     -0.1963
    114  CA        13.5210    5.2870   41.7740 C.3   101  MET101      0.1736
    115  C         14.0360    6.5890   41.1860 C.2   101  MET101      0.2616
    116  O         13.6600    7.6490   41.6690 O.2   101  MET101     -0.2715
    117  CB        12.2250    4.8650   41.1100 C.3   101  MET101      0.0427
    118  CG        11.5970    3.6020   41.7180 C.3   101  MET101      0.0599
    119  SD        12.5500    2.0550   41.3990 S.3   101  MET101     -0.1393
    120  CE        12.0880    1.7550   39.7400 C.3   101  MET101      0.0692
    121  N         14.8850    6.4820   40.1610 N.am  102  GLU102     -0.1963
    122  CA        15.5450    7.5860   39.4620 C.3   102  GLU102      0.1733
    123  C         14.5530    8.5890   38.9220 C.2   102  GLU102      0.2617
    124  O         14.6300    9.7710   39.2270 O.2   102  GLU102     -0.2715
    125  CB        16.4240    7.0680   38.2830 C.3   102  GLU102      0.0429
    126  CG        17.4850    8.0810   37.8260 C.3   102  GLU102      0.1163
    127  CD        17.9050    8.1150   36.3600 C.2   102  GLU102      0.3649
    128  OE1       17.4890    7.2240   35.5830 O.co2 102  GLU102     -0.2457
    129  OE2       18.6990    9.0160   35.9980 O.co2 102  GLU102     -0.2457
    130  N         13.6190    8.1070   38.1120 N.am  103  THR103     -0.1937
    131  CA        12.6820    8.9460   37.4060 C.3   103  THR103      0.2028
    132  C         11.3340    8.2570   37.2750 C.2   103  THR103      0.2642
    133  O         11.0900    7.2020   37.8920 O.2   103  THR103     -0.2714
    134  CB        13.3090    9.3150   36.0360 C.3   103  THR103      0.1808
    135  OG1       12.6150   10.4340   35.4920 O.3   103  THR103     -0.2208
    136  CG2       13.3180    8.1720   35.0670 C.3   103  THR103      0.0379
    137  N         10.4500    8.8770   36.4750 N.am  104  ASP104     -0.1971
    138  CA         9.1710    8.3230   36.0720 C.3   104  ASP104      0.1709
    139  C          8.9720    8.5270   34.5900 C.2   104  ASP104      0.2293
    140  O          9.6990    9.3180   33.9970 O.2   104  ASP104     -0.2864
    141  CB         8.0290    8.9520   36.8740 C.3   104  ASP104      0.1436
    142  CG         7.8420   10.4400   36.7130 C.2   104  ASP104      0.3671
    143  OD1        7.7030   10.8880   35.5860 O.co2 104  ASP104     -0.2456
    144  OD2        7.7240   11.1360   37.7350 O.co2 104  ASP104     -0.2456
    145  N          8.3120   12.3160   33.2600 N.3   107  LYS107     -0.1245
    146  CA         9.5360   13.0940   33.1420 C.3   107  LYS107      0.1561
    147  C         10.3390   12.5950   31.9560 C.2   107  LYS107      0.2260
    148  O         10.9090   13.3770   31.2480 O.2   107  LYS107     -0.2867
    149  CB        10.4130   12.9750   34.4110 C.3   107  LYS107      0.0271
    150  CG         9.7680   13.4680   35.7080 C.3   107  LYS107      0.0035
    151  CD        10.6270   14.3950   36.5180 C.3   107  LYS107      0.0206
    152  CE        11.5830   13.6520   37.3920 C.3   107  LYS107      0.1093
    153  NZ        12.8050   14.4540   37.6820 N.3   107  LYS107     -0.1314
    154  N          3.2340    9.3770   35.2010 N.3   146  SER146     -0.1202
    155  CA         3.8510    9.7620   36.4680 C.3   146  SER146      0.2020
    156  C          3.7590    8.6750   37.5550 C.2   146  SER146      0.2618
    157  O          4.4770    8.7610   38.5340 O.2   146  SER146     -0.2717
    158  CB         3.2720   11.0770   36.9760 C.3   146  SER146      0.2103
    159  OG         1.8890   10.9200   37.2580 O.3   146  SER146     -0.2182
    160  N          2.8980    7.6880   37.3930 N.am  147  ASN147     -0.1974
    161  CA         2.7910    6.5180   38.2670 C.3   147  ASN147      0.1688
    162  C          3.5900    5.3130   37.7670 C.2   147  ASN147      0.2292
    163  O          3.4260    4.1700   38.2850 O.2   147  ASN147     -0.2864
    164  CB         1.2960    6.1750   38.4740 C.3   147  ASN147      0.1181
    165  CG         0.6810    7.1550   39.4350 C.2   147  ASN147      0.2629
    166  OD1        1.3760    7.7600   40.3190 O.2   147  ASN147     -0.2716
    167  ND2       -0.6200    7.1920   39.4390 N.am  147  ASN147     -0.0877
    168  N          7.4030    4.3130   37.4640 N.3   149  LEU149     -0.1245
    169  CA         8.7160    4.6720   37.9150 C.3   149  LEU149      0.1561
    170  C          9.7860    3.8560   37.2490 C.2   149  LEU149      0.2260
    171  O          9.6260    2.6570   37.0130 O.2   149  LEU149     -0.2867
    172  CB         8.8110    4.4750   39.4130 C.3   149  LEU149      0.0270
    173  CG         7.7110    5.0870   40.2510 C.3   149  LEU149      0.0019
    174  CD1        7.9430    4.7580   41.7080 C.3   149  LEU149      0.0001
    175  CD2        7.6280    6.6330   40.0620 C.3   149  LEU149      0.0001
    176  N          3.3900    2.3820   40.7910 N.3   158  CYS158     -0.1221
    177  CA         3.2000    2.9390   42.1220 C.3   158  CYS158      0.1808
    178  C          1.8660    3.6430   42.1620 C.2   158  CYS158      0.2601
    179  O          1.1690    3.7510   41.1370 O.2   158  CYS158     -0.2717
    180  CB         4.3370    3.8860   42.4990 C.3   158  CYS158      0.0970
    181  SG         4.2710    5.4880   41.6710 S.3   158  CYS158     -0.0800
    182  N          1.5270    4.1230   43.3710 N.am  159  ASP159     -0.1973
    183  CA         0.3230    4.9250   43.6610 C.3   159  ASP159      0.1709
    184  C         -0.9560    4.1070   43.5670 C.2   159  ASP159      0.2293
    185  O         -1.6600    4.1880   42.5760 O.2   159  ASP159     -0.2864
    186  CB         0.2660    6.2040   42.7730 C.3   159  ASP159      0.1436
    187  CG        -0.8530    7.1460   43.1300 C.2   159  ASP159      0.3671
    188  OD1       -1.4660    6.9500   44.1950 O.co2 159  ASP159     -0.2456
    189  OD2       -1.1850    8.0130   42.2920 O.co2 159  ASP159     -0.2456
@<TRIPOS>BOND
     1   148   147    2
     2   147   146    1
     3   146   145    1
     4   146   149    1
     5   140   139    2
     6   149   150    1
     7   139   138    1
     8   136   134    1
     9   154   155    1
    10   135   134    1
    11   128   127   ar
    12   143   142   ar
    13   150   151    1
    14   129   127   ar
    15   134   131    1
    16   138   137    1
    17   138   141    1
    18   127   126    1
    19   155   158    1
    20   155   156    1
    21   137   132   am
    22   151   152    1
    23   142   141    1
    24   142   144   ar
    25   158   159    1
    26   171   170    2
    27   170   169    1
    28   132   131    1
    29   132   133    2
    30   152   153    1
    31   160   156   am
    32   160   161    1
    33   131   130    1
    34   168   169    1
    35   156   157    2
    36   162   161    1
    37   162   163    2
    38   126   125    1
    39   169   172    1
    40   130   123   am
    41   161   164    1
    42   125   122    1
    43   164   165    1
    44   123   124    2
    45   123   122    1
    46   172   173    1
    47   165   167   am
    48   165   166    2
    49   122   121    1
    50   120   119    1
    51   175   173    1
    52   121   115   am
    53   173   174    1
    54   176   177    1
    55   117   118    1
    56   117   114    1
    57   179   178    2
    58   115   116    2
    59   115   114    1
    60   119   118    1
    61   181   180    1
    62   114   113    1
    63   177   178    1
    64   177   180    1
    65   178   182   am
    66   189   187   ar
    67   185   184    2
    68   186   187    1
    69   186   183    1
    70    80    81    1
    71   187   188   ar
    72   113   107   am
    73   182   183    1
    74   184   183    1
    75   108   107    2
    76   107   106    1
    77    81    84    1
    78    81    82    1
    79     4     3    2
    80    84    86    1
    81    84    85    1
    82     7     5    1
    83    87    85    1
    84     3     2    1
    85     3     9   am
    86   110   111    1
    87   110   112    1
    88   110   109    1
    89    82    83    2
    90   106   109    1
    91   106   105    1
    92    10     9    1
    93    10    11    1
    94   103   102   ar
    95   100    99    2
    96     2     5    1
    97     2     1    1
    98    16    15    2
    99     5     6    1
   100   101   102    1
   101   101    98    1
   102     6     8    1
   103    99   105   am
   104    99    98    1
   105   102   104   ar
   106    13    11   am
   107    13    14    1
   108    11    12    2
   109    98    97    1
   110    15    14    1
   111    15    22   am
   112    78    77   ar
   113    23    22    1
   114    23    24    1
   115    14    17    1
   116    55    54    1
   117    61    58    1
   118    97    90   am
   119    18    17    1
   120    18    19    1
   121    96    94   am
   122    95    94    2
   123    54    56    1
   124    54    51    1
   125    94    93    1
   126    77    79   ar
   127    77    76    1
   128    92    93    1
   129    92    89    1
   130    24    25    2
   131    90    91    2
   132    90    89    1
   133    70    69    1
   134    53    52    2
   135    19    20   ar
   136    19    21   ar
   137    58    57    1
   138    58    59    1
   139    76    75    1
   140    75    72    1
   141    51    52    1
   142    51    50    1
   143    72    71    1
   144    72    73    1
   145    89    88    1
   146    50    44   am
   147    74    73    2
   148    68    69    1
   149    68    67    1
   150    35    36   ar
   151    35    33   ar
   152    37    36    1
   153    59    60    2
   154    41    40    2
   155    44    43    1
   156    44    45    2
   157    67    66    1
   158    36    34   ar
   159    43    42    1
   160    43    46    1
   161    33    31   ar
   162    66    63    1
   163    26    27    1
   164    40    42   am
   165    40    39    1
   166    47    46    1
   167    47    48    1
   168    63    62    1
   169    63    64    1
   170    49    48    1
   171    38    39    2
   172    38    28    1
   173    34    32   ar
   174    31    32   ar
   175    31    30    1
   176    27    28    1
   177    27    30    1
   178    28    29    2
   179    64    65    2
