@<TRIPOS>MOLECULE
tmp/6g9bA02.pdb
 74 68 0 0 0
SMALL
GASTEIGER

@<TRIPOS>ATOM
      1  N        -57.1870   14.1000   -2.9450 N.3     6  GLY6       -0.1225
      2  CA       -56.5000   12.9790   -2.3210 C.3     6  GLY6        0.1811
      3  C        -55.6680   13.4430   -1.1430 C.2     6  GLY6        0.2280
      4  O        -54.9400   14.4350   -1.2380 O.2     6  GLY6       -0.2866
      5  N        -53.3430   11.8280    2.3870 N.3     8  ILE8       -0.1245
      6  CA       -52.7560   10.6790    3.0650 C.3     8  ILE8        0.1561
      7  C        -53.1180   10.7450    4.5420 C.2     8  ILE8        0.2260
      8  O        -52.8060   11.7270    5.2240 O.2     8  ILE8       -0.2867
      9  CB       -51.2350   10.6360    2.8740 C.3     8  ILE8        0.0252
     10  CG1      -50.8940   10.3250    1.4150 C.3     8  ILE8        0.0019
     11  CG2      -50.6120    9.6080    3.8100 C.3     8  ILE8        0.0019
     12  CD1      -49.4230   10.4510    1.1100 C.3     8  ILE8        0.0001
     13  N        -54.1330    6.2580    1.2290 N.3    13  LEU13      -0.1245
     14  CA       -54.6790    7.3800    0.4330 C.3    13  LEU13       0.1561
     15  C        -56.1830    7.4610    0.6850 C.2    13  LEU13       0.2260
     16  O        -56.8670    6.4430    0.5360 O.2    13  LEU13      -0.2867
     17  CB       -54.3850    7.1600   -1.0520 C.3    13  LEU13       0.0270
     18  CG       -54.8320    8.2970   -1.9670 C.3    13  LEU13       0.0019
     19  CD1      -54.1590    9.6000   -1.5760 C.3    13  LEU13       0.0001
     20  CD2      -54.5480    7.9700   -3.4220 C.3    13  LEU13       0.0001
     21  N        -51.2560   19.5880   -5.7870 N.3    34  ARG34      -0.1245
     22  CA       -50.7000   19.0900   -7.0340 C.3    34  ARG34       0.1563
     23  C        -51.7620   18.3580   -7.8360 C.2    34  ARG34       0.2260
     24  O        -52.6270   17.6800   -7.2760 O.2    34  ARG34      -0.2867
     25  CB       -49.4980   18.1700   -6.7790 C.3    34  ARG34       0.0307
     26  CG       -48.2690   18.9230   -6.2570 C.3    34  ARG34       0.0489
     27  CD       -47.2410   19.1980   -7.3540 C.3    34  ARG34       0.2205
     28  NE       -46.4800   20.4240   -7.1150 N.pl3  34  ARG34      -0.0865
     29  CZ       -45.6420   20.6180   -6.1000 C.cat  34  ARG34       0.5346
     30  NH1      -45.4450   19.6710   -5.2030 N.pl3  34  ARG34       0.1354
     31  NH2      -44.9950   21.7690   -5.9790 N.pl3  34  ARG34       0.1354
     32  N        -52.1680   15.5980  -11.0360 N.3    36  VAL36      -0.1245
     33  CA       -51.4330   14.5200  -11.6830 C.3    36  VAL36       0.1561
     34  C        -52.3290   13.8880  -12.7350 C.2    36  VAL36       0.2260
     35  O        -53.5150   13.6430  -12.4800 O.2    36  VAL36      -0.2867
     36  CB       -50.9670   13.4460  -10.6760 C.3    36  VAL36       0.0252
     37  CG1      -50.0110   12.4690  -11.3670 C.3    36  VAL36       0.0019
     38  CG2      -50.3070   14.0860   -9.4800 C.3    36  VAL36       0.0019
     39  N        -48.1650   17.1960  -13.6400 N.3    71  ALA71      -0.1245
     40  CA       -47.2330   16.0810  -13.6200 C.3    71  ALA71       0.1562
     41  C        -47.9260   14.9010  -14.2640 C.2    71  ALA71       0.2260
     42  O        -49.1430   14.7420  -14.1420 O.2    71  ALA71      -0.2867
     43  CB       -46.7870   15.7240  -12.1850 C.3    71  ALA71       0.0290
     44  N        -54.3080   16.3780   -5.3780 N.3   154  LEU154     -0.1231
     45  CA       -53.6880   15.8950   -4.1510 C.3   154  LEU154      0.1693
     46  C        -53.2810   17.0470   -3.2420 C.2   154  LEU154      0.2592
     47  O        -52.8500   18.1090   -3.7050 O.2   154  LEU154     -0.2718
     48  CB       -52.4280   15.0720   -4.4350 C.3   154  LEU154      0.0284
     49  CG       -52.4120   13.9250   -5.4310 C.3   154  LEU154      0.0019
     50  CD1      -50.9730   13.4830   -5.6290 C.3   154  LEU154      0.0001
     51  CD2      -53.2540   12.7880   -4.8940 C.3   154  LEU154      0.0001
     52  N        -53.4010   16.8060   -1.9410 N.am  155  ILE155     -0.1966
     53  CA       -52.7290   17.5860   -0.9080 C.3   155  ILE155      0.1727
     54  C        -51.5040   16.7910   -0.4940 C.2   155  ILE155      0.2616
     55  O        -51.6300   15.7060    0.0820 O.2   155  ILE155     -0.2715
     56  CB       -53.6290   17.8370    0.3060 C.3   155  ILE155      0.0290
     57  CG1      -54.9280   18.5160   -0.1010 C.3   155  ILE155      0.0022
     58  CG2      -52.8980   18.6830    1.3510 C.3   155  ILE155      0.0023
     59  CD1      -55.7770   18.9040    1.1020 C.3   155  ILE155      0.0001
     60  N        -50.3290   17.3120   -0.7740 N.am  156  LEU156     -0.1964
     61  CA       -49.1490   16.5950   -0.3280 C.3   156  LEU156      0.1713
     62  C        -48.9270   16.8170    1.1670 C.2   156  LEU156      0.2458
     63  O        -49.3440   17.8380    1.7220 O.2   156  LEU156     -0.2730
     64  CB       -47.9180   17.0530   -1.1010 C.3   156  LEU156      0.0310
     65  CG       -48.0270   17.0600   -2.6280 C.3   156  LEU156      0.0022
     66  CD1      -46.7280   17.5260   -3.2260 C.3   156  LEU156      0.0001
     67  CD2      -48.3810   15.6860   -3.1530 C.3   156  LEU156      0.0001
     68  N        -48.2850   15.8680    1.8480 N.am  157  PRO157     -0.2727
     69  CA       -47.7720   16.1580    3.1930 C.3   157  PRO157      0.1402
     70  C        -46.5030   16.9870    3.0580 C.2   157  PRO157      0.2269
     71  O        -45.6180   16.6520    2.2670 O.2   157  PRO157     -0.2865
     72  CB       -47.4810   14.7710    3.7800 C.3   157  PRO157      0.0296
     73  CG       -47.7300   13.7720    2.6690 C.3   157  PRO157      0.0237
     74  CD       -47.8920   14.5280    1.3860 C.3   157  PRO157      0.0939
@<TRIPOS>BOND
     1    41    42    2
     2    41    40    1
     3    39    40    1
     4    40    43    1
     5    34    35    2
     6    34    33    1
     7    33    32    1
     8    33    36    1
     9    37    36    1
    10    36    38    1
    11    23    24    2
    12    23    22    1
    13    27    28    1
    14    27    26    1
    15    28    29    2
    16    22    25    1
    17    22    21    1
    18    25    26    1
    19    29    31    1
    20    29    30    1
    21    50    49    1
    22    49    51    1
    23    49    48    1
    24    44    45    1
    25    48    45    1
    26    45    46    1
    27    47    46    2
    28    20    18    1
    29    46    52   am
    30    66    65    1
    31    67    65    1
    32     1     2    1
    33    65    64    1
    34     2     3    1
    35    18    19    1
    36    18    17    1
    37    52    53    1
    38     4     3    2
    39    64    61    1
    40    17    14    1
    41    53    54    1
    42    53    56    1
    43    60    54   am
    44    60    61    1
    45    54    55    2
    46    61    62    1
    47    57    56    1
    48    57    59    1
    49    56    58    1
    50    14    15    1
    51    14    13    1
    52    16    15    2
    53    12    10    1
    54    62    63    2
    55    62    68   am
    56    74    68    1
    57    74    73    1
    58    10     9    1
    59    68    69    1
    60    71    70    2
    61     5     6    1
    62    73    72    1
    63     9     6    1
    64     9    11    1
    65    70    69    1
    66     6     7    1
    67    69    72    1
    68     7     8    2
