@<TRIPOS>MOLECULE
tmp/6g9hA00.pdb
 204 189 0 0 0
SMALL
GASTEIGER

@<TRIPOS>ATOM
      1  N         13.6150   15.2220   47.5050 N.3    21  ILE21      -0.1245
      2  CA        13.2340   14.8260   46.1580 C.3    21  ILE21       0.1561
      3  C         12.0910   15.7570   45.7630 C.2    21  ILE21       0.2260
      4  O         12.2430   16.5680   44.8450 O.2    21  ILE21      -0.2867
      5  CB        12.8140   13.3310   46.0990 C.3    21  ILE21       0.0252
      6  CG1       14.0370   12.4190   46.2060 C.3    21  ILE21       0.0019
      7  CG2       12.0070   13.0290   44.8160 C.3    21  ILE21       0.0019
      8  CD1       13.6880   10.9840   46.4530 C.3    21  ILE21       0.0001
      9  N         -0.1710   14.5680   48.7430 N.3    26  TYR26      -0.1241
     10  CA         0.1060   13.3700   49.5640 C.3    26  TYR26       0.1605
     11  C          0.9470   13.6880   50.8540 C.2    26  TYR26       0.2264
     12  O          0.6340   13.2310   51.9650 O.2    26  TYR26      -0.2867
     13  CB         0.8000   12.2750   48.6870 C.3    26  TYR26       0.0534
     14  CG         2.2270   12.6110   48.3040 C.ar   26  TYR26      -0.0201
     15  CD1        2.5090   13.3780   47.1760 C.ar   26  TYR26      -0.0009
     16  CD2        3.2950   12.2040   49.0970 C.ar   26  TYR26      -0.0009
     17  CE1        3.8180   13.7120   46.8370 C.ar   26  TYR26       0.0417
     18  CE2        4.6070   12.5410   48.7740 C.ar   26  TYR26       0.0417
     19  CZ         4.8660   13.2970   47.6440 C.ar   26  TYR26       0.1957
     20  OH         6.1680   13.6230   47.3350 O.3    26  TYR26      -0.2866
     21  N          8.5070   13.7670   49.9300 N.3    29  VAL29      -0.1245
     22  CA         9.3160   12.6000   49.6710 C.3    29  VAL29       0.1561
     23  C         10.7660   13.0290   49.7030 C.2    29  VAL29       0.2260
     24  O         11.1200   14.1060   49.1970 O.2    29  VAL29      -0.2867
     25  CB         8.8740   11.8420   48.3690 C.3    29  VAL29       0.0252
     26  CG1        9.1880   12.6200   47.0950 C.3    29  VAL29       0.0019
     27  CG2        9.4770   10.4440   48.2870 C.3    29  VAL29       0.0019
     28  N         13.7320    5.6780   49.3550 N.3    42  ALA42      -0.1245
     29  CA        12.7320    6.7060   49.2900 C.3    42  ALA42       0.1562
     30  C         11.9340    6.6060   50.5690 C.2    42  ALA42       0.2260
     31  O         11.7160    5.5060   51.0640 O.2    42  ALA42      -0.2867
     32  CB        11.8190    6.5240   48.0760 C.3    42  ALA42       0.0290
     33  N          8.3680    8.5270   52.1310 N.3    44  LYS44      -0.1245
     34  CA         7.3470    9.5150   52.0020 C.3    44  LYS44       0.1561
     35  C          6.6100    9.6570   53.3370 C.2    44  LYS44       0.2260
     36  O          6.0620    8.6820   53.8770 O.2    44  LYS44      -0.2867
     37  CB         6.4280    9.2080   50.8580 C.3    44  LYS44       0.0271
     38  CG         5.6300    7.9580   51.0250 C.3    44  LYS44       0.0035
     39  CD         5.2820    7.4400   49.6990 C.3    44  LYS44       0.0206
     40  CE         4.3050    6.3160   49.8320 C.3    44  LYS44       0.1093
     41  NZ         3.8520    5.8710   48.4930 N.3    44  LYS44      -0.1314
     42  N          3.5970   10.7630   55.1660 N.3    46  ILE46      -0.1245
     43  CA         2.1830   10.9340   54.9290 C.3    46  ILE46       0.1561
     44  C          1.6030   11.5050   56.2280 C.2    46  ILE46       0.2260
     45  O          1.9990   11.1010   57.3320 O.2    46  ILE46      -0.2867
     46  CB         1.4950    9.6210   54.5190 C.3    46  ILE46       0.0252
     47  CG1        2.2490    8.9050   53.3650 C.3    46  ILE46       0.0019
     48  CG2        0.0640    9.8570   54.1010 C.3    46  ILE46       0.0019
     49  CD1        2.6910    9.8590   52.1430 C.3    46  ILE46       0.0001
     50  N         -7.9390   10.8830   52.7340 N.3    54  TYR54      -0.1241
     51  CA        -6.5110   10.6280   52.7360 C.3    54  TYR54       0.1605
     52  C         -6.1740    9.4240   53.6070 C.2    54  TYR54       0.2264
     53  O         -5.2370    8.7190   53.2530 O.2    54  TYR54      -0.2867
     54  CB        -5.7130   11.8930   53.0810 C.3    54  TYR54       0.0534
     55  CG        -6.1330   13.0880   52.2390 C.ar   54  TYR54      -0.0201
     56  CD1       -6.5050   12.9350   50.9020 C.ar   54  TYR54      -0.0009
     57  CD2       -6.2040   14.3630   52.7890 C.ar   54  TYR54      -0.0009
     58  CE1       -6.9280   14.0190   50.1400 C.ar   54  TYR54       0.0417
     59  CE2       -6.6230   15.4560   52.0310 C.ar   54  TYR54       0.0417
     60  CZ        -6.9840   15.2800   50.7050 C.ar   54  TYR54       0.1957
     61  OH        -7.3970   16.3420   49.9270 O.3    54  TYR54      -0.2866
     62  N         -7.0550    6.4290   51.3060 N.3    57  ARG57      -0.1231
     63  CA        -6.0640    6.2070   50.2680 C.3    57  ARG57       0.1694
     64  C         -4.7940    5.5860   50.8680 C.2    57  ARG57       0.2592
     65  O         -4.2650    4.6020   50.3320 O.2    57  ARG57      -0.2718
     66  CB        -5.7230    7.5200   49.5520 C.3    57  ARG57       0.0321
     67  CG        -6.8990    8.0530   48.7010 C.3    57  ARG57       0.0489
     68  CD        -6.5510    9.3210   47.9920 C.3    57  ARG57       0.2205
     69  NE        -7.7220    9.8180   47.2610 N.pl3  57  ARG57      -0.0865
     70  CZ        -7.7820   10.9820   46.6330 C.cat  57  ARG57       0.5346
     71  NH1       -6.7310   11.7990   46.6280 N.pl3  57  ARG57       0.1354
     72  NH2       -8.8930   11.3440   46.0050 N.pl3  57  ARG57       0.1354
     73  N         -4.3130    6.1530   52.0110 N.am   58  THR58      -0.1953
     74  CA        -3.1580    5.6100   52.7400 C.3    58  THR58       0.1897
     75  C         -3.3200    4.1170   53.1300 C.2    58  THR58       0.2313
     76  O         -2.3910    3.3290   52.9610 O.2    58  THR58      -0.2863
     77  CB        -2.9120    6.4710   53.9870 C.3    58  THR58       0.1794
     78  OG1       -2.6080    7.8010   53.5580 O.3    58  THR58      -0.2208
     79  CG2       -1.7400    5.9140   54.8760 C.3    58  THR58       0.0378
     80  N         -3.3510    1.5880   50.0620 N.3    61  GLU61      -0.1245
     81  CA        -1.9940    1.4460   49.6080 C.3    61  GLU61       0.1567
     82  C         -1.2150    0.5200   50.5290 C.2    61  GLU61       0.2260
     83  O         -0.5420   -0.4000   50.0440 O.2    61  GLU61      -0.2867
     84  CB        -1.2790    2.7800   49.5100 C.3    61  GLU61       0.0388
     85  CG         0.2210    2.5970   49.3730 C.3    61  GLU61       0.1160
     86  CD         0.9860    3.5340   48.4840 C.2    61  GLU61       0.3649
     87  OE1        0.6130    3.6160   47.3020 O.co2  61  GLU61      -0.2457
     88  OE2        2.1120    3.9090   48.8670 O.co2  61  GLU61      -0.2457
     89  N          6.2500   -1.4940   43.1330 N.3    74  ILE74      -0.1245
     90  CA         7.0200   -0.9170   44.2220 C.3    74  ILE74       0.1561
     91  C          6.6210   -1.6480   45.5520 C.2    74  ILE74       0.2260
     92  O          5.4550   -1.9380   45.8070 O.2    74  ILE74      -0.2867
     93  CB         6.8470    0.6490   44.3150 C.3    74  ILE74       0.0252
     94  CG1        7.9170    1.2400   45.1980 C.3    74  ILE74       0.0019
     95  CG2        5.4610    0.9850   44.8570 C.3    74  ILE74       0.0019
     96  CD1        9.3050    1.2290   44.6770 C.3    74  ILE74       0.0001
     97  N          6.5210    5.9570   54.9210 N.3    93  ILE93      -0.1245
     98  CA         6.5780    4.6870   54.1710 C.3    93  ILE93       0.1561
     99  C          7.9090    4.6640   53.4750 C.2    93  ILE93       0.2260
    100  O          8.2030    5.5850   52.7010 O.2    93  ILE93      -0.2867
    101  CB         5.3570    4.5790   53.2190 C.3    93  ILE93       0.0252
    102  CG1        4.0390    4.6070   54.0480 C.3    93  ILE93       0.0019
    103  CG2        5.4600    3.3550   52.3560 C.3    93  ILE93       0.0019
    104  CD1        2.7310    4.8440   53.2480 C.3    93  ILE93       0.0001
    105  N         10.4710    2.9730   50.8430 N.3    95  GLN95      -0.1231
    106  CA        10.4250    2.1980   49.6100 C.3    95  GLN95       0.1698
    107  C         11.7270    2.2850   48.8710 C.2    95  GLN95       0.2592
    108  O         12.5300    3.1900   49.1310 O.2    95  GLN95      -0.2718
    109  CB         9.2810    2.6940   48.7250 C.3    95  GLN95       0.0381
    110  CG         7.9250    2.7130   49.4480 C.3    95  GLN95       0.0905
    111  CD         6.7850    3.1890   48.6190 C.2    95  GLN95       0.2608
    112  OE1        6.5770    4.3900   48.4840 O.2    95  GLN95      -0.2717
    113  NE2        5.9530    2.2720   48.1350 N.am   95  GLN95      -0.0878
    114  N         11.9420    1.3360   47.9150 N.am   96  ASP96      -0.1960
    115  CA        13.1680    1.3570   47.1000 C.3    96  ASP96       0.1840
    116  C         13.2230    2.6990   46.3810 C.2    96  ASP96       0.2622
    117  O         12.1950    3.1750   45.9040 O.2    96  ASP96      -0.2715
    118  CB        13.1580    0.2060   46.0550 C.3    96  ASP96       0.1450
    119  CG        13.3180   -1.1670   46.6180 C.2    96  ASP96       0.3671
    120  OD1       12.9120   -2.1330   45.9370 O.co2  96  ASP96      -0.2456
    121  OD2       13.8060   -1.2890   47.7780 O.co2  96  ASP96      -0.2456
    122  N         14.4110    3.3120   46.3100 N.am   97  LEU97      -0.1963
    123  CA        14.5520    4.5980   45.6660 C.3    97  LEU97       0.1728
    124  C         14.7270    4.3570   44.1830 C.2    97  LEU97       0.2616
    125  O         15.5920    3.5880   43.8000 O.2    97  LEU97      -0.2715
    126  CB        15.7890    5.3400   46.2070 C.3    97  LEU97       0.0311
    127  CG        16.0950    6.6990   45.6100 C.3    97  LEU97       0.0022
    128  CD1       14.9230    7.6950   45.7750 C.3    97  LEU97       0.0001
    129  CD2       17.4170    7.2510   46.1750 C.3    97  LEU97       0.0001
    130  N         13.9140    4.9950   43.3690 N.am   98  MET98      -0.1963
    131  CA        14.0100    4.9090   41.8970 C.3    98  MET98       0.1736
    132  C         14.5470    6.2280   41.3670 C.2    98  MET98       0.2616
    133  O         14.3770    7.2610   41.9890 O.2    98  MET98      -0.2715
    134  CB        12.6550    4.5670   41.2870 C.3    98  MET98       0.0427
    135  CG        12.1050    3.2200   41.7990 C.3    98  MET98       0.0599
    136  SD        13.0550    1.7710   41.3440 S.3    98  MET98      -0.1393
    137  CE        12.3780    1.4390   39.6890 C.3    98  MET98       0.0692
    138  N         15.2200    6.1930   40.2430 N.am   99  GLU99      -0.1963
    139  CA        15.9440    7.3670   39.7110 C.3    99  GLU99       0.1733
    140  C         15.0060    8.4030   39.1040 C.2    99  GLU99       0.2617
    141  O         15.2250    9.6090   39.2200 O.2    99  GLU99      -0.2715
    142  CB        17.0120    6.8800   38.6830 C.3    99  GLU99       0.0429
    143  CG        17.9660    7.9650   38.1620 C.3    99  GLU99       0.1163
    144  CD        18.3410    7.9440   36.6860 C.2    99  GLU99       0.3649
    145  OE1       19.3860    8.5460   36.3440 O.co2  99  GLU99      -0.2457
    146  OE2       17.6020    7.3400   35.8730 O.co2  99  GLU99      -0.2457
    147  N         13.9240    7.9420   38.4460 N.am  100  THR100     -0.1937
    148  CA        13.0620    8.8180   37.7280 C.3   100  THR100      0.2028
    149  C         11.7100    8.1280   37.4990 C.2   100  THR100      0.2642
    150  O         11.4380    7.0700   38.0870 O.2   100  THR100     -0.2714
    151  CB        13.7520    9.2520   36.4170 C.3   100  THR100      0.1808
    152  OG1       13.0340   10.3460   35.8740 O.3   100  THR100     -0.2208
    153  CG2       13.8830    8.1070   35.4100 C.3   100  THR100      0.0379
    154  N         10.8690    8.7510   36.6830 N.am  101  ASP101     -0.1971
    155  CA         9.5800    8.1580   36.3360 C.3   101  ASP101      0.1709
    156  C          9.3090    8.3810   34.8660 C.2   101  ASP101      0.2293
    157  O         10.0220    9.1710   34.2340 O.2   101  ASP101     -0.2864
    158  CB         8.4520    8.7100   37.2320 C.3   101  ASP101      0.1436
    159  CG         8.1690   10.1970   37.0610 C.2   101  ASP101      0.3671
    160  OD1        8.0470   10.6320   35.9380 O.co2 101  ASP101     -0.2456
    161  OD2        8.0730   10.9310   38.0980 O.co2 101  ASP101     -0.2456
    162  N          8.6550   12.1790   33.6080 N.3   104  LYS104     -0.1245
    163  CA         9.9150   12.9420   33.4670 C.3   104  LYS104      0.1561
    164  C         10.7050   12.4710   32.2800 C.2   104  LYS104      0.2260
    165  O         11.2650   13.2880   31.5620 O.2   104  LYS104     -0.2867
    166  CB        10.7870   12.8160   34.7140 C.3   104  LYS104      0.0271
    167  CG        10.2730   13.4970   35.9770 C.3   104  LYS104      0.0035
    168  CD        11.2980   13.2640   37.1040 C.3   104  LYS104      0.0206
    169  CE        11.3160   14.2980   38.1900 C.3   104  LYS104      0.1093
    170  NZ        12.6340   14.2720   38.9030 N.3   104  LYS104     -0.1314
    171  N          3.2270    7.4890   37.6450 N.3   144  ASN144     -0.1240
    172  CA         3.1130    6.3280   38.5190 C.3   144  ASN144      0.1653
    173  C          3.9150    5.1230   38.0350 C.2   144  ASN144      0.2266
    174  O          3.7250    4.0170   38.5500 O.2   144  ASN144     -0.2867
    175  CB         1.6420    5.9780   38.7410 C.3   144  ASN144      0.1155
    176  CG         1.0270    6.9760   39.6840 C.2   144  ASN144      0.2627
    177  OD1        1.7420    7.7020   40.4100 O.2   144  ASN144     -0.2716
    178  ND2       -0.3070    7.0410   39.7200 N.am  144  ASN144     -0.0877
    179  N          7.6820    4.1440   37.8850 N.3   146  LEU146     -0.1245
    180  CA         9.0460    4.5240   38.3070 C.3   146  LEU146      0.1561
    181  C         10.0970    3.7220   37.5410 C.2   146  LEU146      0.2260
    182  O          9.8810    2.5550   37.2000 O.2   146  LEU146     -0.2867
    183  CB         9.2250    4.2560   39.8100 C.3   146  LEU146      0.0270
    184  CG         8.2200    4.9050   40.7550 C.3   146  LEU146      0.0019
    185  CD1        8.4270    4.3900   42.1740 C.3   146  LEU146      0.0001
    186  CD2        8.2480    6.4850   40.6380 C.3   146  LEU146      0.0001
    187  N          3.7160    2.3070   40.9020 N.3   155  CYS155     -0.1221
    188  CA         3.4760    2.8620   42.2180 C.3   155  CYS155      0.1808
    189  C          2.1300    3.5380   42.3330 C.2   155  CYS155      0.2601
    190  O          1.3970    3.6010   41.3800 O.2   155  CYS155     -0.2717
    191  CB         4.6150    3.7840   42.6370 C.3   155  CYS155      0.0970
    192  SG         4.6040    5.3580   41.7740 S.3   155  CYS155     -0.0800
    193  N          1.8170    4.0020   43.5470 N.am  156  ASP156     -0.1973
    194  CA         0.6690    4.7660   43.9400 C.3   156  ASP156      0.1709
    195  C         -0.6030    3.9800   43.8490 C.2   156  ASP156      0.2293
    196  O         -1.3060    4.0670   42.8510 O.2   156  ASP156     -0.2864
    197  CB         0.5390    6.0660   43.1480 C.3   156  ASP156      0.1436
    198  CG        -0.5330    6.9730   43.7410 C.2   156  ASP156      0.3671
    199  OD1       -1.1700    6.5770   44.7550 O.co2 156  ASP156     -0.2456
    200  OD2       -0.8170    7.9940   43.1370 O.co2 156  ASP156     -0.2456
    201  N         -3.1670    4.3630   45.9580 N.3   158  GLY158     -0.1225
    202  CA        -4.1600    5.0970   46.7450 C.3   158  GLY158      0.1811
    203  C         -5.5710    5.0750   46.1930 C.2   158  GLY158      0.2280
    204  O         -6.5240    5.2410   46.9570 O.2   158  GLY158     -0.2866
@<TRIPOS>BOND
     1   165   164    2
     2   164   163    1
     3   163   162    1
     4   163   166    1
     5   157   156    2
     6   166   167    1
     7   156   155    1
     8   153   151    1
     9   146   144   ar
    10   152   151    1
    11   160   159   ar
    12   167   168    1
    13   155   154    1
    14   155   158    1
    15   145   144   ar
    16   151   148    1
    17   154   149   am
    18   144   143    1
    19   159   158    1
    20   159   161   ar
    21   168   169    1
    22   182   181    2
    23   149   148    1
    24   149   150    2
    25   181   180    1
    26   171   172    1
    27   148   147    1
    28   179   180    1
    29   173   172    1
    30   173   174    2
    31   143   142    1
    32   169   170    1
    33   180   183    1
    34   147   140   am
    35   172   175    1
    36   142   139    1
    37   175   176    1
    38   140   141    2
    39   140   139    1
    40   176   178   am
    41   176   177    2
    42   137   136    1
    43   139   138    1
    44   183   184    1
    45   138   132   am
    46   186   184    1
    47   184   185    1
    48   187   188    1
    49   134   135    1
    50   134   131    1
    51   136   135    1
    52   132   131    1
    53   132   133    2
    54   190   189    2
    55   192   191    1
    56   131   130    1
    57   188   189    1
    58   188   191    1
    59   189   193   am
    60   196   195    2
    61    89    90    1
    62   200   198   ar
    63   197   198    1
    64   197   194    1
    65   130   124   am
    66   193   194    1
    67   198   199   ar
    68   125   124    2
    69   195   194    1
    70   124   123    1
    71    90    93    1
    72    90    91    1
    73    93    95    1
    74    93    94    1
    75    96    94    1
    76     7     5    1
    77     4     3    2
    78    91    92    2
    79   127   128    1
    80   127   129    1
    81   127   126    1
    82   123   126    1
    83   123   122    1
    84     3     2    1
    85   117   116    2
    86   120   119   ar
    87   201   202    1
    88    72    70    1
    89   118   119    1
    90   118   115    1
    91     5     2    1
    92     5     6    1
    93     2     1    1
    94   203   202    1
    95   203   204    2
    96     6     8    1
    97   122   116   am
    98   116   115    1
    99   119   121   ar
   100    71    70    1
   101    70    69    2
   102    17    15   ar
   103    17    19   ar
   104    26    25    1
   105   115   114    1
   106    15    14   ar
   107    69    68    1
   108    87    86   ar
   109    20    19    1
   110    19    18   ar
   111   114   107   am
   112    68    67    1
   113    32    29    1
   114   113   111   am
   115    27    25    1
   116    14    13    1
   117    14    16   ar
   118    25    22    1
   119   112   111    2
   120    86    88   ar
   121    86    85    1
   122    41    40    1
   123   111   110    1
   124    13    10    1
   125    67    66    1
   126   109   110    1
   127   109   106    1
   128     9    10    1
   129    18    16   ar
   130   107   108    2
   131   107   106    1
   132    24    23    2
   133    29    28    1
   134    29    30    1
   135    85    84    1
   136    84    81    1
   137    66    63    1
   138    10    11    1
   139    81    80    1
   140    81    82    1
   141   106   105    1
   142    22    23    1
   143    22    21    1
   144    39    40    1
   145    39    38    1
   146    61    60    1
   147    83    82    2
   148    58    60   ar
   149    58    56   ar
   150    63    64    1
   151    63    62    1
   152    65    64    2
   153    30    31    2
   154    60    59   ar
   155    11    12    2
   156    37    38    1
   157    37    34    1
   158    64    73   am
   159    56    55   ar
   160    34    33    1
   161    34    35    1
   162    73    74    1
   163    59    57   ar
   164    49    47    1
   165    55    57   ar
   166    55    54    1
   167   103   101    1
   168   100    99    2
   169    50    51    1
   170    51    54    1
   171    51    52    1
   172    74    75    1
   173    74    77    1
   174    76    75    2
   175   101   102    1
   176   101    98    1
   177   104   102    1
   178    53    52    2
   179    35    36    2
   180    47    46    1
   181    99    98    1
   182    78    77    1
   183    77    79    1
   184    48    46    1
   185    98    97    1
   186    46    43    1
   187    43    42    1
   188    43    44    1
   189    44    45    2
