@<TRIPOS>MOLECULE
tmp/6g9mA00.pdb
 219 206 0 0 0
SMALL
GASTEIGER

@<TRIPOS>ATOM
      1  N         13.6430   15.2840   47.1150 N.3    21  ILE21      -0.1245
      2  CA        13.2240   14.7980   45.7830 C.3    21  ILE21       0.1561
      3  C         12.0040   15.5700   45.2880 C.2    21  ILE21       0.2260
      4  O         12.0200   16.0550   44.1530 O.2    21  ILE21      -0.2867
      5  CB        12.9270   13.2580   45.7410 C.3    21  ILE21       0.0252
      6  CG1       14.2310   12.4500   45.7830 C.3    21  ILE21       0.0019
      7  CG2       12.1240   12.9030   44.4600 C.3    21  ILE21       0.0019
      8  CD1       14.0080   10.9280   46.0180 C.3    21  ILE21       0.0001
      9  N          7.4520   16.7610   46.4870 N.3    23  GLU23      -0.1231
     10  CA         6.3280   16.7880   47.4050 C.3    23  GLU23       0.1699
     11  C          5.0330   16.7980   46.6580 C.2    23  GLU23       0.2593
     12  O          5.0110   16.9310   45.4340 O.2    23  GLU23      -0.2718
     13  CB         6.4150   18.0070   48.3460 C.3    23  GLU23       0.0402
     14  CG         6.3720   19.3430   47.6450 C.3    23  GLU23       0.1161
     15  CD         6.4970   20.4920   48.6170 C.2    23  GLU23       0.3649
     16  OE1        7.6320   20.9730   48.8300 O.co2  23  GLU23      -0.2457
     17  OE2        5.4550   20.8990   49.1810 O.co2  23  GLU23      -0.2457
     18  N          3.9570   16.6610   47.4100 N.am   24  GLY24      -0.1942
     19  CA         2.6170   16.7400   46.8780 C.3    24  GLY24       0.2014
     20  C          1.6340   16.9270   48.0020 C.2    24  GLY24       0.2638
     21  O          1.9720   17.5130   49.0400 O.2    24  GLY24      -0.2714
     22  N          0.4180   16.4200   47.8020 N.am   25  ALA25      -0.1977
     23  CA        -0.6680   16.5280   48.7750 C.3    25  ALA25       0.1597
     24  C         -0.2820   15.8520   50.1140 C.2    25  ALA25       0.2287
     25  O         -0.1750   14.6210   50.1670 O.2    25  ALA25      -0.2864
     26  CB        -1.9300   15.8850   48.1970 C.3    25  ALA25       0.0319
     27  N          2.4250   15.4650   52.1040 N.3    27  GLY27      -0.1210
     28  CA         3.6200   14.6490   52.2060 C.3    27  GLY27       0.1956
     29  C          4.7640   15.0820   51.3150 C.2    27  GLY27       0.2612
     30  O          4.5850   15.8210   50.3430 O.2    27  GLY27      -0.2717
     31  N          5.9440   14.5870   51.6380 N.am   28  MET28      -0.1965
     32  CA         7.1980   14.9520   50.9970 C.3    28  MET28       0.1736
     33  C          8.0840   13.7320   50.8030 C.2    28  MET28       0.2616
     34  O          8.0900   12.8450   51.6650 O.2    28  MET28      -0.2715
     35  CB         7.9440   15.9330   51.9000 C.3    28  MET28       0.0427
     36  CG         9.2770   16.4160   51.3430 C.3    28  MET28       0.0599
     37  SD        10.0940   17.6780   52.3830 S.3    28  MET28      -0.1393
     38  CE         9.0570   19.1120   52.0560 C.3    28  MET28       0.0692
     39  N          8.8640   13.7110   49.7030 N.am   29  VAL29      -0.1977
     40  CA         9.7500   12.6060   49.4010 C.3    29  VAL29       0.1596
     41  C         11.1920   13.0740   49.4090 C.2    29  VAL29       0.2287
     42  O         11.5000   14.1120   48.8290 O.2    29  VAL29      -0.2864
     43  CB         9.3620   11.8900   48.0660 C.3    29  VAL29       0.0276
     44  CG1        9.9860   10.5000   47.9880 C.3    29  VAL29       0.0022
     45  CG2        7.8420   11.7700   47.9330 C.3    29  VAL29       0.0022
     46  N         14.4700    5.7360   48.8450 N.3    42  ALA42      -0.1245
     47  CA        13.4450    6.7680   48.8250 C.3    42  ALA42       0.1562
     48  C         12.6680    6.6460   50.1320 C.2    42  ALA42       0.2260
     49  O         12.4190    5.5310   50.6000 O.2    42  ALA42      -0.2867
     50  CB        12.5140    6.6160   47.6300 C.3    42  ALA42       0.0290
     51  N          9.1100    8.5480   51.7790 N.3    44  LYS44      -0.1231
     52  CA         8.0020    9.4770   51.6770 C.3    44  LYS44       0.1693
     53  C          7.3040    9.6070   53.0450 C.2    44  LYS44       0.2592
     54  O          6.7980    8.6300   53.6160 O.2    44  LYS44      -0.2718
     55  CB         7.0420    9.1150   50.5480 C.3    44  LYS44       0.0285
     56  CG         6.3340    7.8140   50.6480 C.3    44  LYS44       0.0035
     57  CD         5.9130    7.3670   49.2440 C.3    44  LYS44       0.0206
     58  CE         4.8830    6.3000   49.3430 C.3    44  LYS44       0.1093
     59  NZ         4.3030    6.0010   48.0270 N.3    44  LYS44      -0.1314
     60  N          7.3230   10.8450   53.5510 N.am   45  LYS45      -0.1966
     61  CA         6.6570   11.2650   54.7730 C.3    45  LYS45       0.1728
     62  C          5.2260   11.5270   54.3820 C.2    45  LYS45       0.2616
     63  O          4.9670   12.3800   53.5270 O.2    45  LYS45      -0.2715
     64  CB         7.3110   12.5570   55.3250 C.3    45  LYS45       0.0311
     65  CG         6.6360   13.1110   56.5800 C.3    45  LYS45       0.0038
     66  CD         7.1950   14.4930   57.0050 C.3    45  LYS45       0.0206
     67  CE         6.6680   14.9120   58.3560 C.3    45  LYS45       0.1093
     68  NZ         7.2950   16.1560   58.8830 N.3    45  LYS45      -0.1314
     69  N          4.2980   10.8050   54.9840 N.am   46  ILE46      -0.1977
     70  CA         2.8870   11.0190   54.7610 C.3    46  ILE46       0.1596
     71  C          2.3320   11.5290   56.0870 C.2    46  ILE46       0.2287
     72  O          2.6120   10.9670   57.1490 O.2    46  ILE46      -0.2864
     73  CB         2.1630    9.7410   54.2570 C.3    46  ILE46       0.0276
     74  CG1        2.9170    9.0960   53.0630 C.3    46  ILE46       0.0022
     75  CG2        0.7460   10.0630   53.8900 C.3    46  ILE46       0.0022
     76  CD1        2.3540    7.7740   52.6030 C.3    46  ILE46       0.0001
     77  N         -7.0930   11.0440   52.5820 N.3    54  TYR54      -0.1241
     78  CA        -5.6560   10.7550   52.6630 C.3    54  TYR54       0.1605
     79  C         -5.3750    9.5160   53.4790 C.2    54  TYR54       0.2264
     80  O         -4.5060    8.7670   53.0730 O.2    54  TYR54      -0.2867
     81  CB        -4.8180   11.9680   53.1430 C.3    54  TYR54       0.0534
     82  CG        -5.0060   13.2000   52.2750 C.ar   54  TYR54      -0.0201
     83  CD1       -5.0290   13.1070   50.8820 C.ar   54  TYR54      -0.0009
     84  CD2       -5.2040   14.4540   52.8450 C.ar   54  TYR54      -0.0009
     85  CE1       -5.2340   14.2320   50.0860 C.ar   54  TYR54       0.0417
     86  CE2       -5.4280   15.5780   52.0580 C.ar   54  TYR54       0.0417
     87  CZ        -5.4260   15.4680   50.6780 C.ar   54  TYR54       0.1957
     88  OH        -5.6210   16.5790   49.8920 O.3    54  TYR54      -0.2866
     89  N         -6.1810    6.4820   51.1290 N.3    57  ARG57      -0.1231
     90  CA        -5.1610    6.2820   50.1210 C.3    57  ARG57       0.1694
     91  C         -3.9450    5.6450   50.7740 C.2    57  ARG57       0.2592
     92  O         -3.3750    4.7150   50.2260 O.2    57  ARG57      -0.2718
     93  CB        -4.7900    7.6030   49.4300 C.3    57  ARG57       0.0321
     94  CG        -5.9320    8.0890   48.5270 C.3    57  ARG57       0.0489
     95  CD        -5.7770    9.4590   47.9100 C.3    57  ARG57       0.2205
     96  NE        -7.0670    9.8080   47.2950 N.pl3  57  ARG57      -0.0865
     97  CZ        -7.5440   11.0350   47.0900 C.cat  57  ARG57       0.5346
     98  NH1       -6.8300   12.1080   47.4450 N.pl3  57  ARG57       0.1354
     99  NH2       -8.7410   11.2040   46.5310 N.pl3  57  ARG57       0.1354
    100  N         -3.5610    6.1380   51.9580 N.am   58  THR58      -0.1953
    101  CA        -2.4080    5.6100   52.6830 C.3    58  THR58       0.1897
    102  C         -2.5690    4.1190   53.0460 C.2    58  THR58       0.2313
    103  O         -1.6370    3.3430   52.8680 O.2    58  THR58      -0.2863
    104  CB        -2.1900    6.4470   53.9740 C.3    58  THR58       0.1794
    105  OG1       -2.0260    7.8280   53.6320 O.3    58  THR58      -0.2208
    106  CG2       -0.9750    5.9740   54.7910 C.3    58  THR58       0.0378
    107  N         -2.5960    1.6880   49.9340 N.3    61  GLU61      -0.1245
    108  CA        -1.2570    1.4780   49.4580 C.3    61  GLU61       0.1567
    109  C         -0.4710    0.5450   50.3480 C.2    61  GLU61       0.2260
    110  O          0.1560   -0.3980   49.8720 O.2    61  GLU61      -0.2867
    111  CB        -0.4780    2.7910   49.3600 C.3    61  GLU61       0.0388
    112  CG         0.9580    2.4890   48.9940 C.3    61  GLU61       0.1160
    113  CD         1.6540    3.6070   48.2900 C.2    61  GLU61       0.3649
    114  OE1        1.5190    3.6990   47.0510 O.co2  61  GLU61      -0.2457
    115  OE2        2.3950    4.3460   48.9690 O.co2  61  GLU61      -0.2457
    116  N          6.6670   -1.5200   42.9360 N.3    74  ILE74      -0.1245
    117  CA         7.5080   -0.9570   43.9940 C.3    74  ILE74       0.1561
    118  C          7.1480   -1.6970   45.3410 C.2    74  ILE74       0.2260
    119  O          6.0010   -1.9640   45.6290 O.2    74  ILE74      -0.2867
    120  CB         7.4150    0.5980   44.0970 C.3    74  ILE74       0.0252
    121  CG1        8.5780    1.1950   44.9290 C.3    74  ILE74       0.0019
    122  CG2        6.0640    1.0320   44.6880 C.3    74  ILE74       0.0019
    123  CD1        9.9960    1.0660   44.3650 C.3    74  ILE74       0.0001
    124  N         11.2560    2.9830   50.5410 N.3    95  GLN95      -0.1231
    125  CA        11.1790    2.2070   49.2980 C.3    95  GLN95       0.1698
    126  C         12.4710    2.2610   48.5360 C.2    95  GLN95       0.2592
    127  O         13.3000    3.1430   48.8110 O.2    95  GLN95      -0.2718
    128  CB        10.0310    2.7440   48.4340 C.3    95  GLN95       0.0381
    129  CG         8.7030    2.6670   49.1600 C.3    95  GLN95       0.0905
    130  CD         7.5420    3.1550   48.3680 C.2    95  GLN95       0.2608
    131  OE1        7.4160    4.3560   48.1660 O.2    95  GLN95      -0.2717
    132  NE2        6.6080    2.2630   47.9810 N.am   95  GLN95      -0.0878
    133  N         12.6690    1.3150   47.5670 N.am   96  ASP96      -0.1960
    134  CA        13.9030    1.3280   46.7640 C.3    96  ASP96       0.1840
    135  C         13.9610    2.6700   46.0570 C.2    96  ASP96       0.2622
    136  O         12.9200    3.1700   45.6020 O.2    96  ASP96      -0.2715
    137  CB        13.9340    0.2130   45.6860 C.3    96  ASP96       0.1450
    138  CG        13.9960   -1.1830   46.2060 C.2    96  ASP96       0.3671
    139  OD1       13.5820   -2.0890   45.4850 O.co2  96  ASP96      -0.2456
    140  OD2       14.3750   -1.3670   47.3820 O.co2  96  ASP96      -0.2456
    141  N         15.1510    3.2610   45.9700 N.am   97  LEU97      -0.1963
    142  CA        15.2800    4.5660   45.3250 C.3    97  LEU97       0.1728
    143  C         15.4210    4.3500   43.8300 C.2    97  LEU97       0.2616
    144  O         16.2660    3.5710   43.4060 O.2    97  LEU97      -0.2715
    145  CB        16.5260    5.3090   45.8300 C.3    97  LEU97       0.0311
    146  CG        16.7830    6.6730   45.2310 C.3    97  LEU97       0.0022
    147  CD1       15.5870    7.6210   45.4410 C.3    97  LEU97       0.0001
    148  CD2       18.1010    7.2510   45.7900 C.3    97  LEU97       0.0001
    149  N         14.6110    5.0280   43.0440 N.am   98  MET98      -0.1963
    150  CA        14.6390    4.8940   41.5790 C.3    98  MET98       0.1736
    151  C         15.2210    6.1860   40.9830 C.2    98  MET98       0.2616
    152  O         15.1140    7.2130   41.6280 O.2    98  MET98      -0.2715
    153  CB        13.2520    4.5600   41.0560 C.3    98  MET98       0.0427
    154  CG        12.7210    3.2590   41.6090 C.3    98  MET98       0.0599
    155  SD        13.5650    1.7610   41.1250 S.3    98  MET98      -0.1393
    156  CE        12.8520    1.4830   39.5080 C.3    98  MET98       0.0692
    157  N         15.8540    6.1310   39.7980 N.am   99  GLU99      -0.1963
    158  CA        16.5720    7.2870   39.2170 C.3    99  GLU99       0.1733
    159  C         15.5720    8.3090   38.7030 C.2    99  GLU99       0.2617
    160  O         15.7620    9.5160   38.8670 O.2    99  GLU99      -0.2715
    161  CB        17.5100    6.8690   38.0380 C.3    99  GLU99       0.0429
    162  CG        18.3490    8.0240   37.4770 C.3    99  GLU99       0.1163
    163  CD        19.1430    7.8210   36.1970 C.2    99  GLU99       0.3649
    164  OE1       20.1370    8.5600   36.0060 O.co2  99  GLU99      -0.2457
    165  OE2       18.7380    6.9900   35.3520 O.co2  99  GLU99      -0.2457
    166  N         14.4960    7.8300   38.0560 N.am  100  THR100     -0.1937
    167  CA        13.5590    8.7320   37.4240 C.3   100  THR100      0.2028
    168  C         12.1970    8.0760   37.3030 C.2   100  THR100      0.2642
    169  O         11.9550    7.0400   37.9270 O.2   100  THR100     -0.2714
    170  CB        14.1460    9.2060   36.0600 C.3   100  THR100      0.1808
    171  OG1       13.4080   10.3340   35.6050 O.3   100  THR100     -0.2208
    172  CG2       14.2210    8.0860   35.0070 C.3   100  THR100      0.0379
    173  N         11.3170    8.6960   36.5340 N.am  101  ASP101     -0.1971
    174  CA        10.0240    8.1300   36.1960 C.3   101  ASP101      0.1709
    175  C          9.7250    8.4080   34.7350 C.2   101  ASP101      0.2293
    176  O         10.3900    9.2260   34.1220 O.2   101  ASP101     -0.2864
    177  CB         8.9110    8.6590   37.1220 C.3   101  ASP101      0.1436
    178  CG         8.5890   10.1450   37.0330 C.2   101  ASP101      0.3671
    179  OD1        8.2680   10.6120   35.9300 O.co2 101  ASP101     -0.2456
    180  OD2        8.4810   10.8000   38.1110 O.co2 101  ASP101     -0.2456
    181  N          8.9590   12.1790   33.5860 N.3   104  LYS104     -0.1245
    182  CA        10.2160   12.9480   33.4630 C.3   104  LYS104      0.1561
    183  C         11.0210   12.5380   32.2410 C.2   104  LYS104      0.2260
    184  O         11.5230   13.3770   31.5070 O.2   104  LYS104     -0.2867
    185  CB        11.0820   12.8340   34.7250 C.3   104  LYS104      0.0271
    186  CG        10.4540   13.4430   35.9730 C.3   104  LYS104      0.0035
    187  CD        11.3990   14.3410   36.7800 C.3   104  LYS104      0.0206
    188  CE        12.2060   13.5940   37.7890 C.3   104  LYS104      0.1093
    189  NZ        13.2300   14.4650   38.4480 N.3   104  LYS104     -0.1314
    190  N          3.6570    7.4410   37.4730 N.3   144  ASN144     -0.1240
    191  CA         3.5630    6.2760   38.3600 C.3   144  ASN144      0.1653
    192  C          4.3240    5.0790   37.8660 C.2   144  ASN144      0.2266
    193  O          4.1010    4.0050   38.3770 O.2   144  ASN144     -0.2867
    194  CB         2.0930    5.9100   38.6830 C.3   144  ASN144      0.1155
    195  CG         1.4900    6.9890   39.5310 C.2   144  ASN144      0.2627
    196  OD1        2.2170    7.7150   40.2430 O.2   144  ASN144     -0.2716
    197  ND2        0.1710    7.0760   39.5450 N.am  144  ASN144     -0.0877
    198  N          8.1810    4.0790   37.7150 N.3   146  LEU146     -0.1245
    199  CA         9.5410    4.4420   38.1440 C.3   146  LEU146      0.1561
    200  C         10.5780    3.6160   37.3970 C.2   146  LEU146      0.2260
    201  O         10.3320    2.4470   37.1040 O.2   146  LEU146     -0.2867
    202  CB         9.7090    4.1930   39.6400 C.3   146  LEU146      0.0270
    203  CG         8.6860    4.8640   40.5340 C.3   146  LEU146      0.0019
    204  CD1        8.7930    4.3100   41.9140 C.3   146  LEU146      0.0001
    205  CD2        8.7990    6.4260   40.4490 C.3   146  LEU146      0.0001
    206  N          4.1780    2.2470   40.7740 N.3   155  CYS155     -0.1221
    207  CA         3.9780    2.8110   42.1110 C.3   155  CYS155      0.1808
    208  C          2.6250    3.5080   42.2250 C.2   155  CYS155      0.2601
    209  O          1.8780    3.5980   41.2660 O.2   155  CYS155     -0.2717
    210  CB         5.1260    3.7710   42.4530 C.3   155  CYS155      0.0970
    211  SG         5.0890    5.3390   41.5520 S.3   155  CYS155     -0.0800
    212  N          2.3370    4.0220   43.4070 N.am  156  ASP156     -0.1973
    213  CA         1.1200    4.7710   43.7840 C.3   156  ASP156      0.1709
    214  C         -0.1410    3.9450   43.7210 C.2   156  ASP156      0.2293
    215  O         -0.8860    3.9230   42.7250 O.2   156  ASP156     -0.2864
    216  CB         0.9740    6.0680   42.9710 C.3   156  ASP156      0.1436
    217  CG        -0.1260    6.9500   43.5320 C.2   156  ASP156      0.3671
    218  OD1       -0.7370    6.5670   44.5650 O.co2 156  ASP156     -0.2456
    219  OD2       -0.3750    7.9940   42.9620 O.co2 156  ASP156     -0.2456
@<TRIPOS>BOND
     1   184   183    2
     2   183   182    1
     3   182   181    1
     4   182   185    1
     5   176   175    2
     6   185   186    1
     7   175   174    1
     8   172   170    1
     9   165   163   ar
    10   171   170    1
    11   179   178   ar
    12   186   187    1
    13   164   163   ar
    14   170   167    1
    15   174   173    1
    16   174   177    1
    17   163   162    1
    18   173   168   am
    19   187   188    1
    20   178   177    1
    21   178   180   ar
    22   201   200    2
    23   168   167    1
    24   168   169    2
    25   200   199    1
    26   167   166    1
    27   190   191    1
    28   162   161    1
    29   198   199    1
    30   188   189    1
    31   192   191    1
    32   192   193    2
    33   161   158    1
    34   166   159   am
    35   199   202    1
    36   191   194    1
    37   194   195    1
    38   159   160    2
    39   159   158    1
    40   158   157    1
    41   156   155    1
    42   195   197   am
    43   195   196    2
    44   202   203    1
    45   157   151   am
    46   205   203    1
    47   203   204    1
    48   206   207    1
    49   151   150    1
    50   151   152    2
    51   153   150    1
    52   153   154    1
    53   155   154    1
    54   209   208    2
    55   211   210    1
    56   150   149    1
    57   207   208    1
    58   207   210    1
    59   208   212   am
    60   215   214    2
    61   116   117    1
    62   219   217   ar
    63   216   217    1
    64   216   213    1
    65   149   143   am
    66   144   143    2
    67   212   213    1
    68   217   218   ar
    69   214   213    1
    70   143   142    1
    71   117   120    1
    72   117   118    1
    73   120   122    1
    74   120   121    1
    75     4     3    2
    76   123   121    1
    77     7     5    1
    78   146   147    1
    79   146   148    1
    80   146   145    1
    81     3     2    1
    82   142   145    1
    83   142   141    1
    84   118   119    2
    85    12    11    2
    86   139   138   ar
    87   136   135    2
    88   137   138    1
    89   137   134    1
    90     5     6    1
    91     5     2    1
    92     6     8    1
    93     2     1    1
    94   141   135   am
    95   135   134    1
    96   138   140   ar
    97     9    10    1
    98    99    97    1
    99    11    10    1
   100    11    18   am
   101   134   133    1
   102    19    18    1
   103    19    20    1
   104   114   113   ar
   105    97    96    2
   106    97    98    1
   107    96    95    1
   108    10    13    1
   109   133   126   am
   110    50    47    1
   111    14    13    1
   112    14    15    1
   113    22    20   am
   114    22    23    1
   115    95    94    1
   116    45    43    1
   117   132   130   am
   118    44    43    1
   119    20    21    2
   120    59    58    1
   121    43    40    1
   122   131   130    2
   123    26    23    1
   124   113   115   ar
   125   113   112    1
   126   130   129    1
   127   128   129    1
   128   128   125    1
   129    94    93    1
   130   126   127    2
   131   126   125    1
   132    15    16   ar
   133    15    17   ar
   134    23    24    1
   135    47    46    1
   136    47    48    1
   137    42    41    2
   138   112   111    1
   139    57    58    1
   140    57    56    1
   141   125   124    1
   142   111   108    1
   143    40    41    1
   144    40    39    1
   145    93    90    1
   146   108   107    1
   147   108   109    1
   148    39    33   am
   149   110   109    2
   150    88    87    1
   151    85    87   ar
   152    85    83   ar
   153    24    25    2
   154    90    91    1
   155    90    89    1
   156    48    49    2
   157    92    91    2
   158    30    29    2
   159    55    56    1
   160    55    52    1
   161    87    86   ar
   162    91   100   am
   163    33    32    1
   164    33    34    2
   165    83    82   ar
   166    32    31    1
   167    32    35    1
   168    29    31   am
   169    29    28    1
   170    36    35    1
   171    36    37    1
   172    52    51    1
   173    52    53    1
   174   100   101    1
   175    38    37    1
   176    86    84   ar
   177    27    28    1
   178    82    84   ar
   179    82    81    1
   180    77    78    1
   181    76    74    1
   182    78    81    1
   183    78    79    1
   184   101   102    1
   185   101   104    1
   186   103   102    2
   187    53    60   am
   188    53    54    2
   189    74    73    1
   190    80    79    2
   191    63    62    2
   192    60    61    1
   193   105   104    1
   194    75    73    1
   195   104   106    1
   196    73    70    1
   197    62    61    1
   198    62    69   am
   199    70    69    1
   200    70    71    1
   201    61    64    1
   202    64    65    1
   203    71    72    2
   204    65    66    1
   205    66    67    1
   206    67    68    1
