@<TRIPOS>MOLECULE
tmp/6g9uB00.pdb
 206 196 0 0 0
SMALL
GASTEIGER

@<TRIPOS>ATOM
      1  N         27.0500  -31.9910  -14.4800 N.3    44  ARG44      -0.1245
      2  CA        28.0330  -30.9520  -14.2170 C.3    44  ARG44       0.1563
      3  C         27.3640  -29.6010  -13.9300 C.2    44  ARG44       0.2260
      4  O         26.5560  -29.1220  -14.7330 O.2    44  ARG44      -0.2867
      5  CB        28.9820  -30.8410  -15.4180 C.3    44  ARG44       0.0307
      6  CG        30.1190  -29.8530  -15.2450 C.3    44  ARG44       0.0489
      7  CD        31.2690  -30.0920  -16.2240 C.3    44  ARG44       0.2205
      8  NE        31.3670  -29.0730  -17.2770 N.pl3  44  ARG44      -0.0865
      9  CZ        32.5020  -28.5680  -17.7900 C.cat  44  ARG44       0.5346
     10  NH1       32.4270  -27.6480  -18.7490 N.pl3  44  ARG44       0.1354
     11  NH2       33.7100  -28.9340  -17.3530 N.pl3  44  ARG44       0.1354
     12  N         28.6820  -25.7300  -13.1170 N.3    46  ARG46      -0.1245
     13  CA        29.9280  -24.9960  -13.2750 C.3    46  ARG46       0.1563
     14  C         29.7170  -23.4930  -13.1080 C.2    46  ARG46       0.2260
     15  O         28.7840  -22.9290  -13.6830 O.2    46  ARG46      -0.2867
     16  CB        30.5190  -25.3140  -14.6520 C.3    46  ARG46       0.0307
     17  CG        31.7560  -24.5050  -15.0290 C.3    46  ARG46       0.0489
     18  CD        32.4870  -25.0810  -16.2350 C.3    46  ARG46       0.2205
     19  NE        33.9090  -24.7550  -16.1480 N.pl3  46  ARG46      -0.0865
     20  CZ        34.4970  -23.6570  -16.6270 C.cat  46  ARG46       0.5346
     21  NH1       33.8110  -22.7290  -17.2860 N.pl3  46  ARG46       0.1354
     22  NH2       35.8040  -23.4860  -16.4480 N.pl3  46  ARG46       0.1354
     23  N         31.1480  -20.5220  -14.4670 N.3    48  ASN48      -0.1240
     24  CA        32.0080  -20.1230  -15.5910 C.3    48  ASN48       0.1653
     25  C         32.4070  -18.6440  -15.5490 C.2    48  ASN48       0.2266
     26  O         32.9540  -18.1220  -16.5190 O.2    48  ASN48      -0.2867
     27  CB        31.3540  -20.5000  -16.9390 C.3    48  ASN48       0.1155
     28  CG        30.0460  -19.7600  -17.2000 C.2    48  ASN48       0.2627
     29  OD1       29.8810  -18.6110  -16.8180 O.2    48  ASN48      -0.2716
     30  ND2       29.1110  -20.4350  -17.8580 N.am   48  ASN48      -0.0877
     31  N         30.5340  -15.9760  -15.7380 N.3    50  HIS50      -0.1226
     32  CA        29.4370  -15.1400  -16.2500 C.3    50  HIS50       0.1752
     33  C         28.0620  -15.6000  -15.7290 C.2    50  HIS50       0.2596
     34  O         27.1190  -14.8140  -15.6540 O.2    50  HIS50      -0.2718
     35  CB        29.4230  -15.1750  -17.7790 C.3    50  HIS50       0.0759
     36  CG        30.7300  -14.8100  -18.4160 C.ar   50  HIS50       0.0818
     37  ND1       30.9270  -13.6160  -19.0770 N.ar   50  HIS50      -0.2268
     38  CD2       31.8940  -15.4960  -18.5270 C.ar   50  HIS50       0.1154
     39  CE1       32.1620  -13.5740  -19.5490 C.ar   50  HIS50       0.1986
     40  NE2       32.7690  -14.7030  -19.2310 N.ar   50  HIS50      -0.2212
     41  N         27.9420  -16.8860  -15.4250 N.am   51  SER51      -0.1952
     42  CA        26.7230  -17.4500  -14.8710 C.3    51  SER51       0.1924
     43  C         27.0980  -18.7620  -14.2160 C.2    51  SER51       0.2314
     44  O         28.2770  -19.1650  -14.2560 O.2    51  SER51      -0.2863
     45  CB        25.6840  -17.6860  -15.9820 C.3    51  SER51       0.2116
     46  OG        24.4710  -18.1990  -15.4560 O.3    51  SER51      -0.2180
     47  N         26.1380  -22.6920  -14.7270 N.3    53  GLN53      -0.1245
     48  CA        25.6290  -23.4820  -15.8470 C.3    53  GLN53       0.1566
     49  C         25.5190  -24.9630  -15.5020 C.2    53  GLN53       0.2260
     50  O         26.4840  -25.5770  -15.0170 O.2    53  GLN53      -0.2867
     51  CB        26.5240  -23.2820  -17.0620 C.3    53  GLN53       0.0367
     52  CG        26.0310  -23.9480  -18.3400 C.3    53  GLN53       0.0905
     53  CD        26.8920  -23.6060  -19.5500 C.2    53  GLN53       0.2608
     54  OE1       27.2610  -22.4460  -19.7590 O.2    53  GLN53      -0.2717
     55  NE2       27.2150  -24.6170  -20.3560 N.am   53  GLN53      -0.0878
     56  N         20.5500  -28.5020  -24.1890 N.3    73  LEU73      -0.1231
     57  CA        22.0010  -28.5860  -24.0270 C.3    73  LEU73       0.1693
     58  C         22.4330  -28.2820  -22.6170 C.2    73  LEU73       0.2591
     59  O         23.2950  -28.9660  -22.0660 O.2    73  LEU73      -0.2718
     60  CB        22.6980  -27.5790  -24.9240 C.3    73  LEU73       0.0284
     61  CG        22.3830  -27.7040  -26.4090 C.3    73  LEU73       0.0019
     62  CD1       22.9190  -26.4940  -27.1460 C.3    73  LEU73       0.0001
     63  CD2       22.9370  -29.0060  -26.9570 C.3    73  LEU73       0.0001
     64  N         21.8630  -27.2170  -22.0660 N.am   74  GLN74      -0.1979
     65  CA        22.2650  -26.6330  -20.8080 C.3    74  GLN74       0.1601
     66  C         21.2360  -25.6330  -20.3210 C.2    74  GLN74       0.2287
     67  O         20.3820  -25.1500  -21.0810 O.2    74  GLN74      -0.2864
     68  CB        23.6260  -25.9410  -20.9140 C.3    74  GLN74       0.0394
     69  CG        23.7450  -24.8700  -21.9840 C.3    74  GLN74       0.0908
     70  CD        23.7530  -23.4330  -21.4560 C.2    74  GLN74       0.2608
     71  OE1       23.0310  -23.0650  -20.5290 O.2    74  GLN74      -0.2717
     72  NE2       24.5660  -22.6040  -22.0850 N.am   74  GLN74      -0.0878
     73  N         21.1690  -22.1340  -17.4460 N.3    76  HIS76      -0.1241
     74  CA        21.9430  -21.1860  -16.6800 C.3    76  HIS76       0.1621
     75  C         21.0010  -20.0720  -16.2270 C.2    76  HIS76       0.2264
     76  O         19.8090  -20.0540  -16.6070 O.2    76  HIS76      -0.2867
     77  CB        23.1010  -20.6540  -17.5120 C.3    76  HIS76       0.0745
     78  CG        22.6460  -19.8400  -18.6840 C.ar   76  HIS76       0.0817
     79  ND1       22.3920  -20.4000  -19.9160 N.ar   76  HIS76      -0.2268
     80  CD2       22.3490  -18.5210  -18.7960 C.ar   76  HIS76       0.1154
     81  CE1       21.9620  -19.4590  -20.7390 C.ar   76  HIS76       0.1986
     82  NE2       21.9170  -18.3120  -20.0840 N.ar   76  HIS76      -0.2212
     83  N         20.3500  -15.7680  -14.7480 N.3    78  HIS78      -0.1241
     84  CA        20.7460  -14.3710  -14.6990 C.3    78  HIS78       0.1621
     85  C         20.0950  -13.7920  -13.4660 C.2    78  HIS78       0.2264
     86  O         18.9340  -14.0890  -13.1740 O.2    78  HIS78      -0.2867
     87  CB        20.3090  -13.6330  -15.9640 C.3    78  HIS78       0.0745
     88  CG        20.8780  -14.2240  -17.2180 C.ar   78  HIS78       0.0817
     89  ND1       22.0430  -13.7660  -17.7800 N.ar   78  HIS78      -0.2268
     90  CD2       20.4660  -15.2600  -17.9910 C.ar   78  HIS78       0.1154
     91  CE1       22.3150  -14.4710  -18.8650 C.ar   78  HIS78       0.1986
     92  NE2       21.3740  -15.3830  -19.0170 N.ar   78  HIS78      -0.2212
     93  N         16.8850  -10.5910  -17.4500 N.3    88  GLU88      -0.1245
     94  CA        17.2940  -10.0140  -18.7200 C.3    88  GLU88       0.1567
     95  C         16.1200   -9.4040  -19.4630 C.2    88  GLU88       0.2260
     96  O         16.1480   -8.2200  -19.8260 O.2    88  GLU88      -0.2867
     97  CB        17.9320  -11.0920  -19.5890 C.3    88  GLU88       0.0388
     98  CG        19.1630  -11.7220  -18.9770 C.3    88  GLU88       0.1160
     99  CD        20.2420  -11.9280  -20.0110 C.2    88  GLU88       0.3649
    100  OE1       21.1250  -11.0540  -20.0900 O.co2  88  GLU88      -0.2457
    101  OE2       20.1760  -12.9350  -20.7640 O.co2  88  GLU88      -0.2457
    102  N         17.3440  -19.6590  -18.1310 N.3   101  HIS101     -0.1241
    103  CA        17.3890  -19.9470  -19.5610 C.3   101  HIS101      0.1621
    104  C         17.7330  -21.3940  -19.8060 C.2   101  HIS101      0.2264
    105  O         18.7700  -21.8690  -19.3080 O.2   101  HIS101     -0.2867
    106  CB        18.4370  -19.0770  -20.2140 C.3   101  HIS101      0.0745
    107  CG        18.0620  -17.6380  -20.2550 C.ar  101  HIS101      0.0817
    108  ND1       18.9640  -16.6540  -20.5590 N.ar  101  HIS101     -0.2268
    109  CD2       16.8810  -17.0110  -20.0110 C.ar  101  HIS101      0.1154
    110  CE1       18.3590  -15.4800  -20.5090 C.ar  101  HIS101      0.1986
    111  NE2       17.0940  -15.6700  -20.1870 N.ar  101  HIS101     -0.2212
    112  N         18.7140  -23.6410  -22.7830 N.3   103  VAL103     -0.1245
    113  CA        19.1770  -23.5040  -24.1510 C.3   103  VAL103      0.1561
    114  C         19.1010  -24.8300  -24.9030 C.2   103  VAL103      0.2260
    115  O         19.5780  -25.8760  -24.4100 O.2   103  VAL103     -0.2867
    116  CB        20.6260  -23.0040  -24.2180 C.3   103  VAL103      0.0252
    117  CG1       21.0560  -22.8130  -25.6640 C.3   103  VAL103      0.0019
    118  CG2       20.8130  -21.7330  -23.4080 C.3   103  VAL103      0.0019
    119  N         26.3530  -27.0840  -32.3620 N.3   112  VAL112     -0.1245
    120  CA        26.0410  -25.7080  -31.9790 C.3   112  VAL112      0.1561
    121  C         26.6800  -24.7050  -32.9290 C.2   112  VAL112      0.2260
    122  O         26.0720  -23.6960  -33.2820 O.2   112  VAL112     -0.2867
    123  CB        26.4840  -25.4080  -30.5150 C.3   112  VAL112      0.0252
    124  CG1       26.4340  -23.9160  -30.2000 C.3   112  VAL112      0.0019
    125  CG2       25.6070  -26.1840  -29.5210 C.3   112  VAL112      0.0019
    126  N         24.6820  -21.5200  -34.8380 N.3   116  LEU116     -0.1245
    127  CA        24.9040  -20.1240  -34.4940 C.3   116  LEU116      0.1561
    128  C         24.7350  -19.2390  -35.7240 C.2   116  LEU116      0.2260
    129  O         25.3500  -19.4770  -36.7630 O.2   116  LEU116     -0.2867
    130  CB        26.2780  -19.8940  -33.8760 C.3   116  LEU116      0.0270
    131  CG        26.4780  -20.4000  -32.4510 C.3   116  LEU116      0.0019
    132  CD1       27.9580  -20.4510  -32.0830 C.3   116  LEU116      0.0001
    133  CD2       25.6830  -19.5950  -31.4280 C.3   116  LEU116      0.0001
    134  N         19.1410  -22.3040  -32.6130 N.3   122  LEU122     -0.1245
    135  CA        19.0560  -22.3500  -31.1690 C.3   122  LEU122      0.1561
    136  C         17.7050  -21.8000  -30.7100 C.2   122  LEU122      0.2260
    137  O         17.1510  -20.8460  -31.3210 O.2   122  LEU122     -0.2867
    138  CB        20.1560  -21.5150  -30.5380 C.3   122  LEU122      0.0270
    139  CG        21.5960  -21.9440  -30.8280 C.3   122  LEU122      0.0019
    140  CD1       22.5250  -20.9540  -30.1470 C.3   122  LEU122      0.0001
    141  CD2       21.8580  -23.3650  -30.3740 C.3   122  LEU122      0.0001
    142  N         15.7910  -20.8590  -26.9030 N.3   124  VAL124     -0.1245
    143  CA        15.9100  -20.7050  -25.4610 C.3   124  VAL124      0.1561
    144  C         14.5270  -20.6260  -24.8200 C.2   124  VAL124      0.2260
    145  O         13.6530  -19.8810  -25.3080 O.2   124  VAL124     -0.2867
    146  CB        16.7400  -19.4720  -25.0540 C.3   124  VAL124      0.0252
    147  CG1       16.9050  -19.4280  -23.5440 C.3   124  VAL124      0.0019
    148  CG2       18.1050  -19.4890  -25.7250 C.3   124  VAL124      0.0019
    149  N         21.8650  -14.3350  -28.8320 N.3   181  LEU181     -0.1231
    150  CA        22.5320  -14.5950  -27.5620 C.3   181  LEU181      0.1693
    151  C         22.6780  -13.2570  -26.8100 C.2   181  LEU181      0.2593
    152  O         22.7850  -12.2110  -27.4360 O.2   181  LEU181     -0.2718
    153  CB        23.8970  -15.2430  -27.7610 C.3   181  LEU181      0.0284
    154  CG        23.9090  -16.5690  -28.5290 C.3   181  LEU181      0.0019
    155  CD1       25.3520  -17.0000  -28.7190 C.3   181  LEU181      0.0001
    156  CD2       23.0980  -17.6320  -27.8060 C.3   181  LEU181      0.0001
    157  N         22.6170  -13.3010  -25.4820 N.am  182  THR182     -0.1939
    158  CA        22.7930  -12.1070  -24.6550 C.3   182  THR182      0.2028
    159  C         24.2150  -11.9670  -24.1210 C.2   182  THR182      0.2643
    160  O         24.4780  -11.1200  -23.2500 O.2   182  THR182     -0.2714
    161  CB        21.8060  -12.0750  -23.4780 C.3   182  THR182      0.1808
    162  OG1       22.0510  -13.1810  -22.5860 O.3   182  THR182     -0.2208
    163  CG2       20.3600  -12.1240  -24.0250 C.3   182  THR182      0.0379
    164  N         25.1170  -12.7800  -24.6610 N.am  183  THR183     -0.1937
    165  CA        26.5450  -12.7190  -24.3670 C.3   183  THR183      0.2013
    166  C         27.2970  -12.8540  -25.6940 C.2   183  THR183      0.2484
    167  O         26.7610  -13.4160  -26.6430 O.2   183  THR183     -0.2729
    168  CB        26.9320  -13.8340  -23.3620 C.3   183  THR183      0.1807
    169  OG1       28.2660  -13.6210  -22.8740 O.3   183  THR183     -0.2208
    170  CG2       26.8280  -15.2180  -23.9820 C.3   183  THR183      0.0379
    171  N         28.5310  -12.3150  -25.7970 N.am  184  PRO184     -0.2715
    172  CA        29.3000  -12.5900  -27.0090 C.3   184  PRO184      0.1521
    173  C         29.3500  -14.0940  -27.2920 C.2   184  PRO184      0.2440
    174  O         29.5210  -14.8690  -26.3500 O.2   184  PRO184     -0.2731
    175  CB        30.6950  -12.0530  -26.6560 C.3   184  PRO184      0.0310
    176  CG        30.4010  -10.8980  -25.7650 C.3   184  PRO184      0.0237
    177  CD        29.2430  -11.3680  -24.9070 C.3   184  PRO184      0.0939
    178  N         29.1800  -14.5360  -28.5400 N.am  185  PRO185     -0.2727
    179  CA        29.2560  -13.7150  -29.7500 C.3   185  PRO185      0.1402
    180  C         27.9640  -12.9990  -30.2410 C.2   185  PRO185      0.2269
    181  O         27.9670  -12.4570  -31.3630 O.2   185  PRO185     -0.2865
    182  CB        29.7320  -14.7330  -30.7900 C.3   185  PRO185      0.0296
    183  CG        29.0820  -15.9990  -30.3570 C.3   185  PRO185      0.0237
    184  CD        29.0410  -15.9650  -28.8570 C.3   185  PRO185      0.0939
    185  N         13.5530  -17.0720  -28.9280 N.3   192  TRP192     -0.1241
    186  CA        13.2710  -16.8690  -27.5270 C.3   192  TRP192      0.1605
    187  C         11.7980  -17.1380  -27.2230 C.2   192  TRP192      0.2264
    188  O         10.9250  -16.5140  -27.8280 O.2   192  TRP192     -0.2867
    189  CB        13.6260  -15.4270  -27.1180 C.3   192  TRP192      0.0550
    190  CG        15.0970  -15.2200  -27.0270 C.ar  192  TRP192      0.0003
    191  CD1       15.9480  -14.8000  -28.0150 C.ar  192  TRP192      0.0946
    192  CD2       15.9090  -15.4840  -25.8770 C.ar  192  TRP192      0.0152
    193  NE1       17.2480  -14.7820  -27.5410 N.ar  192  TRP192     -0.2442
    194  CE2       17.2450  -15.1900  -26.2290 C.ar  192  TRP192      0.0810
    195  CE3       15.6320  -15.9240  -24.5700 C.ar  192  TRP192      0.0012
    196  CZ2       18.3030  -15.3200  -25.3180 C.ar  192  TRP192      0.0191
    197  CZ3       16.6890  -16.0470  -23.6660 C.ar  192  TRP192      0.0001
    198  CH2       18.0020  -15.7520  -24.0510 C.ar  192  TRP192      0.0015
    199  N         24.3800  -10.0040  -13.7320 N.3   224  ASN224     -0.1240
    200  CA        24.9030  -10.6250  -14.9480 C.3   224  ASN224      0.1653
    201  C         23.7920  -10.6790  -16.0170 C.2   224  ASN224      0.2266
    202  O         23.4480  -11.7560  -16.5430 O.2   224  ASN224     -0.2867
    203  CB        25.5350  -12.0090  -14.6530 C.3   224  ASN224      0.1155
    204  CG        24.5580  -13.0190  -14.0610 C.2   224  ASN224      0.2627
    205  OD1       23.5930  -12.6570  -13.3740 O.2   224  ASN224     -0.2716
    206  ND2       24.8020  -14.3010  -14.3270 N.am  224  ASN224     -0.0877
@<TRIPOS>BOND
     1   129   128    2
     2   128   127    1
     3   126   127    1
     4   127   130    1
     5   130   131    1
     6   122   121    2
     7   121   120    1
     8   134   135    1
     9   131   132    1
    10   131   133    1
    11   119   120    1
    12   120   123    1
    13   181   180    2
    14   137   136    2
    15   135   136    1
    16   135   138    1
    17   139   138    1
    18   139   141    1
    19   139   140    1
    20   182   183    1
    21   182   179    1
    22   123   124    1
    23   123   125    1
    24   183   184    1
    25   180   179    1
    26   179   178    1
    27   185   186    1
    28   184   178    1
    29   149   150    1
    30   155   154    1
    31   178   173   am
    32   154   156    1
    33   154   153    1
    34   191   193   ar
    35   191   190   ar
    36   188   187    2
    37   153   150    1
    38   150   151    1
    39   193   194   ar
    40   186   187    1
    41   186   189    1
    42   152   151    2
    43   173   172    1
    44   173   174    2
    45    62    61    1
    46   189   190    1
    47   190   192   ar
    48   172   175    1
    49   172   171    1
    50    63    61    1
    51   142   143    1
    52   151   157   am
    53   175   176    1
    54   167   166    2
    55    61    60    1
    56   194   192   ar
    57   194   196   ar
    58   192   195   ar
    59   171   166   am
    60   171   177    1
    61   176   177    1
    62   148   146    1
    63   166   165    1
    64   117   116    1
    65   157   158    1
    66   143   146    1
    67   143   144    1
    68   196   198   ar
    69   145   144    2
    70   146   147    1
    71    60    57    1
    72   114   115    2
    73   114   113    1
    74   164   165    1
    75   164   159   am
    76   158   159    1
    77   158   161    1
    78   195   197   ar
    79   165   168    1
    80   116   113    1
    81   116   118    1
    82    56    57    1
    83   113   112    1
    84   159   160    2
    85   198   197   ar
    86    57    58    1
    87   163   161    1
    88   170   168    1
    89   161   162    1
    90   168   169    1
    91    58    64   am
    92    58    59    2
    93    72    70   am
    94    64    65    1
    95    69    70    1
    96    69    68    1
    97    70    71    2
    98    67    66    2
    99    68    65    1
   100    65    66    1
   101   101    99   ar
   102    81    82   ar
   103    81    79   ar
   104   108   110   ar
   105   108   107   ar
   106   110   111   ar
   107    55    53   am
   108   107   106    1
   109   107   109   ar
   110   106   103    1
   111   111   109   ar
   112   100    99   ar
   113    82    80   ar
   114    99    98    1
   115    79    78   ar
   116    96    95    2
   117   104   103    1
   118   104   105    2
   119    54    53    2
   120    97    98    1
   121    97    94    1
   122   103   102    1
   123    53    52    1
   124    39    40   ar
   125    39    37   ar
   126    95    94    1
   127    40    38   ar
   128    37    36   ar
   129    92    91   ar
   130    92    90   ar
   131    91    89   ar
   132    80    78   ar
   133    10     9    1
   134    94    93    1
   135    78    77    1
   136    38    36   ar
   137    36    35    1
   138    52    51    1
   139    90    88   ar
   140    30    28   am
   141     9    11    1
   142     9     8    2
   143    89    88   ar
   144    35    32    1
   145    77    74    1
   146    73    74    1
   147    21    20    1
   148     8     7    1
   149    88    87    1
   150    28    27    1
   151    28    29    2
   152    51    48    1
   153    27    24    1
   154    74    75    1
   155    20    22    1
   156    20    19    2
   157    76    75    2
   158   202   201    2
   159    26    25    2
   160    32    31    1
   161    32    33    1
   162    18    19    1
   163    18    17    1
   164     7     6    1
   165   201   200    1
   166    45    46    1
   167    45    42    1
   168    87    84    1
   169    48    49    1
   170    48    47    1
   171    33    34    2
   172    33    41   am
   173    24    25    1
   174    24    23    1
   175    49    50    2
   176    41    42    1
   177     5     6    1
   178     5     2    1
   179    17    16    1
   180   200   203    1
   181   200   199    1
   182    42    43    1
   183    83    84    1
   184     4     3    2
   185    84    85    1
   186   203   204    1
   187    16    13    1
   188     1     2    1
   189   206   204   am
   190    44    43    2
   191     2     3    1
   192   204   205    2
   193    15    14    2
   194    85    86    2
   195    13    12    1
   196    13    14    1
