@<TRIPOS>MOLECULE
tmp/6g9zB00.pdb
 91 87 0 0 0
SMALL
GASTEIGER

@<TRIPOS>ATOM
      1  N          4.5220   18.3800    7.1670 N.3    11  PHE11      -0.1241
      2  CA         5.1120   17.5220    8.1430 C.3    11  PHE11       0.1605
      3  C          6.3280   18.1920    8.7580 C.2    11  PHE11       0.2264
      4  O          6.5770   17.9460    9.9140 O.2    11  PHE11      -0.2867
      5  CB         5.5110   16.1850    7.5210 C.3    11  PHE11       0.0534
      6  CG         4.3680   15.3470    7.0090 C.ar   11  PHE11      -0.0203
      7  CD1        3.0540   15.5790    7.3900 C.ar   11  PHE11      -0.0042
      8  CD2        4.5930   14.2970    6.1450 C.ar   11  PHE11      -0.0042
      9  CE1        2.0090   14.8130    6.8820 C.ar   11  PHE11      -0.0003
     10  CE2        3.5460   13.4960    5.7060 C.ar   11  PHE11      -0.0003
     11  CZ         2.2500   13.7410    6.0710 C.ar   11  PHE11      -0.0000
     12  N         -4.1800   11.9880   12.2610 N.3    35  ASP35      -0.1239
     13  CA        -4.5160   12.6220   10.9560 C.3    35  ASP35       0.1674
     14  C         -5.6730   13.5890   11.1600 C.2    35  ASP35       0.2266
     15  O         -6.6450   13.2850   11.8690 O.2    35  ASP35      -0.2867
     16  CB        -4.8460   11.5230    9.9370 C.3    35  ASP35       0.1410
     17  CG        -4.9220   11.9480    8.4730 C.2    35  ASP35       0.3668
     18  OD1       -5.8080   12.7960    8.1380 O.co2  35  ASP35      -0.2456
     19  OD2       -4.1410   11.4030    7.6680 O.co2  35  ASP35      -0.2456
     20  N         -7.3440    7.1270   13.1180 N.3    43  HIS43      -0.1241
     21  CA        -6.5820    7.3340   11.8820 C.3    43  HIS43       0.1621
     22  C         -5.3570    8.1720   12.2250 C.2    43  HIS43       0.2264
     23  O         -5.4790    9.3770   12.5090 O.2    43  HIS43      -0.2867
     24  CB        -7.4670    7.9020   10.7480 C.3    43  HIS43       0.0745
     25  CG        -6.7270    8.0700    9.4730 C.ar   43  HIS43       0.0817
     26  ND1       -7.3760    8.5230    8.3380 N.ar   43  HIS43      -0.2268
     27  CD2       -5.4520    7.7820    9.0820 C.ar   43  HIS43       0.1154
     28  CE1       -6.5130    8.5830    7.3350 C.ar   43  HIS43       0.1986
     29  NE2       -5.3390    8.1110    7.7440 N.ar   43  HIS43      -0.2212
     30  N         -0.8560    8.7850   11.4540 N.3    45  LEU45      -0.1245
     31  CA         0.3050    8.6750   10.5530 C.3    45  LEU45       0.1561
     32  C          1.5670    8.3720   11.3510 C.2    45  LEU45       0.2260
     33  O          1.7920    8.9360   12.4420 O.2    45  LEU45      -0.2867
     34  CB         0.5140   10.0120    9.8370 C.3    45  LEU45       0.0270
     35  CG        -0.6880   10.5300    9.0580 C.3    45  LEU45       0.0019
     36  CD1       -0.3520   11.8110    8.3370 C.3    45  LEU45       0.0001
     37  CD2       -1.1690    9.4990    8.0620 C.3    45  LEU45       0.0001
     38  N          1.1870    5.3110    0.2500 N.3    91  ASN91      -0.1240
     39  CA         0.8340    5.7280   -1.0680 C.3    91  ASN91       0.1653
     40  C          2.0200    6.3180   -1.8290 C.2    91  ASN91       0.2266
     41  O          2.8520    6.9740   -1.2510 O.2    91  ASN91      -0.2867
     42  CB        -0.3370    6.7000   -1.0280 C.3    91  ASN91       0.1155
     43  CG        -1.5780    6.0760   -0.4520 C.2    91  ASN91       0.2627
     44  OD1       -1.9490    4.9710   -0.8950 O.2    91  ASN91      -0.2716
     45  ND2       -2.2180    6.8200    0.4530 N.am   91  ASN91      -0.0877
     46  N         -2.7730    8.2540   -4.9150 N.3    97  GLY97      -0.1210
     47  CA        -3.4450    9.3210   -4.1620 C.3    97  GLY97       0.1956
     48  C         -2.5220   10.2110   -3.3270 C.2    97  GLY97       0.2612
     49  O         -3.0120   10.9280   -2.3880 O.2    97  GLY97      -0.2717
     50  N         -1.2200   10.2460   -3.5860 N.am   98  GLN98      -0.1965
     51  CA        -0.2750   11.0820   -2.7580 C.3    98  GLN98       0.1733
     52  C         -0.1740   12.4900   -3.3720 C.2    98  GLN98       0.2617
     53  O          0.0760   12.5660   -4.5740 O.2    98  GLN98      -0.2715
     54  CB         1.1050   10.3950   -2.7400 C.3    98  GLN98       0.0408
     55  CG         2.2430   11.1220   -1.9930 C.3    98  GLN98       0.0908
     56  CD         3.6230   10.4960   -2.2370 C.2    98  GLN98       0.2608
     57  OE1        3.9650    9.8950   -3.3130 O.2    98  GLN98      -0.2717
     58  NE2        4.4400   10.6050   -1.2150 N.am   98  GLN98      -0.0878
     59  N         -0.2750   13.5850   -2.5820 N.am   99  SER99      -0.1936
     60  CA         0.2080   14.9260   -3.0440 C.3    99  SER99       0.2055
     61  C          1.2700   15.5440   -2.1080 C.2    99  SER99       0.2642
     62  O          2.0960   16.4980   -2.5310 O.2    99  SER99      -0.2714
     63  CB        -0.9470   15.8790   -3.2450 C.3    99  SER99       0.2130
     64  OG        -1.6880   16.1130   -2.0380 O.3    99  SER99      -0.2179
     65  N          1.2500   15.0620   -0.8620 N.am  100  VAL100     -0.1977
     66  CA         2.2390   15.4340    0.1680 C.3   100  VAL100      0.1596
     67  C          3.4610   14.5300    0.0830 C.2   100  VAL100      0.2287
     68  O          3.3940   13.3620    0.4790 O.2   100  VAL100     -0.2864
     69  CB         1.6390   15.4330    1.5790 C.3   100  VAL100      0.0276
     70  CG1        2.6270   15.9100    2.6250 C.3   100  VAL100      0.0022
     71  CG2        0.3760   16.2750    1.5800 C.3   100  VAL100      0.0022
     72  N          4.8140    8.5820    4.4820 N.3   104  HIS104     -0.1241
     73  CA         3.9510    8.5300    5.6880 C.3   104  HIS104      0.1621
     74  C          3.0940    7.2730    5.6480 C.2   104  HIS104      0.2264
     75  O          2.4910    6.9830    4.6470 O.2   104  HIS104     -0.2867
     76  CB         3.1460    9.8320    5.9350 C.3   104  HIS104      0.0745
     77  CG         2.2440   10.2900    4.8400 C.ar  104  HIS104      0.0817
     78  ND1        2.7400   10.8880    3.7230 N.ar  104  HIS104     -0.2268
     79  CD2        0.9030   10.3850    4.7230 C.ar  104  HIS104      0.1154
     80  CE1        1.7610   11.2420    2.9060 C.ar  104  HIS104      0.1986
     81  NE2        0.6120   11.0140    3.5140 N.ar  104  HIS104     -0.2212
     82  N          0.0060    5.3930    6.9940 N.3   106  HIS106     -0.1241
     83  CA        -1.3460    5.5090    7.6250 C.3   106  HIS106      0.1621
     84  C         -1.6340    4.2450    8.4360 C.2   106  HIS106      0.2264
     85  O         -1.3680    3.1490    7.9700 O.2   106  HIS106     -0.2867
     86  CB        -2.4630    5.5850    6.5920 C.3   106  HIS106      0.0745
     87  CG        -2.3820    6.7540    5.6770 C.ar  106  HIS106      0.0817
     88  ND1       -3.1490    7.9160    5.8740 N.ar  106  HIS106     -0.2268
     89  CD2       -1.6560    6.9220    4.5450 C.ar  106  HIS106      0.1154
     90  CE1       -2.8170    8.7590    4.9210 C.ar  106  HIS106      0.1986
     91  NE2       -1.9240    8.1820    4.0730 N.ar  106  HIS106     -0.2212
@<TRIPOS>BOND
     1    46    47    1
     2    53    52    2
     3    47    48    1
     4    50    48   am
     5    50    51    1
     6    52    51    1
     7    52    59   am
     8    48    49    2
     9    57    56    2
    10    63    60    1
    11    63    64    1
    12    60    59    1
    13    60    61    1
    14    51    54    1
    15    54    55    1
    16    62    61    2
    17    56    55    1
    18    56    58   am
    19    61    65   am
    20    40    41    2
    21    40    39    1
    22    39    42    1
    23    39    38    1
    24    42    43    1
    25    44    43    2
    26    65    66    1
    27    43    45   am
    28    67    66    1
    29    67    68    2
    30    66    69    1
    31    69    71    1
    32    69    70    1
    33    80    81   ar
    34    80    78   ar
    35    81    79   ar
    36    78    77   ar
    37    91    89   ar
    38    91    90   ar
    39    72    73    1
    40    89    87   ar
    41    75    74    2
    42    79    77   ar
    43    77    76    1
    44    90    88   ar
    45    74    73    1
    46    87    88   ar
    47    87    86    1
    48    73    76    1
    49    10    11   ar
    50    10     8   ar
    51    11     9   ar
    52     8     6   ar
    53    86    83    1
    54     9     7   ar
    55    82    83    1
    56     6     7   ar
    57     6     5    1
    58     1     2    1
    59    28    29   ar
    60    28    26   ar
    61     5     2    1
    62    83    84    1
    63    19    17   ar
    64    29    27   ar
    65    85    84    2
    66    37    35    1
    67    18    17   ar
    68     2     3    1
    69    36    35    1
    70    26    25   ar
    71    17    16    1
    72     3     4    2
    73    35    34    1
    74    27    25   ar
    75    25    24    1
    76    34    31    1
    77    16    13    1
    78    31    32    1
    79    31    30    1
    80    24    21    1
    81    13    14    1
    82    13    12    1
    83    14    15    2
    84    32    33    2
    85    21    22    1
    86    21    20    1
    87    22    23    2
