@<TRIPOS>MOLECULE
tmp/6galD00.pdb
 114 115 0 0 0
SMALL
GASTEIGER

@<TRIPOS>ATOM
      1  N         -8.7900  -38.7090   64.6990 N.3   134  LEU134     -0.1245
      2  CA        -7.5730  -39.4670   64.3190 C.3   134  LEU134      0.1561
      3  C         -7.8900  -40.8590   63.8450 C.2   134  LEU134      0.2260
      4  O         -7.2210  -41.3760   62.9470 O.2   134  LEU134     -0.2867
      5  CB        -6.5910  -39.5260   65.4550 C.3   134  LEU134      0.0270
      6  CG        -5.9270  -38.2350   65.8170 C.3   134  LEU134      0.0019
      7  CD1       -4.8860  -38.5010   66.9120 C.3   134  LEU134      0.0001
      8  CD2       -5.2680  -37.5660   64.6450 C.3   134  LEU134      0.0001
      9  N         -1.1440  -29.8960   64.7210 N.3   178  LEU178     -0.1245
     10  CA        -2.4630  -30.5210   64.8140 C.3   178  LEU178      0.1561
     11  C         -3.5920  -29.5590   65.0330 C.2   178  LEU178      0.2260
     12  O         -4.7390  -29.9410   64.8970 O.2   178  LEU178     -0.2867
     13  CB        -2.4700  -31.6620   65.8420 C.3   178  LEU178      0.0270
     14  CG        -2.0560  -33.0500   65.2970 C.3   178  LEU178      0.0019
     15  CD1       -0.7130  -33.0630   64.6320 C.3   178  LEU178      0.0001
     16  CD2       -2.1670  -34.0980   66.4170 C.3   178  LEU178      0.0001
     17  N         -7.0800  -30.1080   66.7110 N.3   181  PHE181     -0.1227
     18  CA        -7.0770  -31.4950   67.1490 C.3   181  PHE181      0.1736
     19  C         -5.9940  -31.7860   68.1540 C.2   181  PHE181      0.2595
     20  O         -5.9650  -32.8930   68.7180 O.2   181  PHE181     -0.2718
     21  CB        -6.9030  -32.4480   65.9450 C.3   181  PHE181      0.0547
     22  CG        -7.8180  -32.1340   64.7830 C.ar  181  PHE181     -0.0202
     23  CD1       -9.1860  -32.0380   64.9390 C.ar  181  PHE181     -0.0042
     24  CD2       -7.2830  -31.8900   63.5140 C.ar  181  PHE181     -0.0042
     25  CE1      -10.0270  -31.6890   63.8880 C.ar  181  PHE181     -0.0003
     26  CE2       -8.1050  -31.5590   62.4440 C.ar  181  PHE181     -0.0003
     27  CZ        -9.4710  -31.4480   62.6340 C.ar  181  PHE181     -0.0000
     28  N         -5.1230  -30.8280   68.4590 N.am  182  ARG182     -0.1966
     29  CA        -3.9560  -31.1220   69.3060 C.3   182  ARG182      0.1729
     30  C         -4.3660  -31.4410   70.7410 C.2   182  ARG182      0.2616
     31  O         -5.1460  -30.7210   71.3800 O.2   182  ARG182     -0.2715
     32  CB        -2.9830  -29.9500   69.2790 C.3   182  ARG182      0.0348
     33  CG        -1.7090  -30.2190   70.0560 C.3   182  ARG182      0.0492
     34  CD        -0.7400  -29.0610   69.9550 C.3   182  ARG182      0.2205
     35  NE         0.3940  -29.2820   70.8530 N.pl3 182  ARG182     -0.0865
     36  CZ         1.6830  -29.1810   70.5260 C.cat 182  ARG182      0.5346
     37  NH1        2.0810  -28.9080   69.3060 N.pl3 182  ARG182      0.1354
     38  NH2        2.5990  -29.3050   71.4760 N.pl3 182  ARG182      0.1354
     39  N         -3.7650  -32.4910   71.2770 N.am  183  ASN183     -0.1958
     40  CA        -3.9310  -32.8290   72.7000 C.3   183  ASN183      0.1819
     41  C         -5.3740  -33.2200   73.0580 C.2   183  ASN183      0.2622
     42  O         -5.7950  -33.0790   74.2040 O.2   183  ASN183     -0.2715
     43  CB        -3.3710  -31.7450   73.6410 C.3   183  ASN183      0.1195
     44  CG        -2.7990  -32.3030   74.9130 C.2   183  ASN183      0.2630
     45  OD1       -2.1960  -33.3900   74.9140 O.2   183  ASN183     -0.2716
     46  ND2       -2.9350  -31.5380   76.0220 N.am  183  ASN183     -0.0877
     47  N         -6.1030  -33.7250   72.0770 N.am  184  GLY184     -0.1940
     48  CA        -7.4540  -34.1440   72.2770 C.3   184  GLY184      0.2014
     49  C         -7.5860  -35.4930   72.9420 C.2   184  GLY184      0.2639
     50  O         -6.6110  -36.0310   73.5010 O.2   184  GLY184     -0.2714
     51  N         -8.7960  -36.0500   72.8850 N.am  185  TYR185     -0.1959
     52  CA        -9.1480  -37.2340   73.6480 C.3   185  TYR185      0.1771
     53  C         -9.1100  -38.5220   72.7780 C.2   185  TYR185      0.2620
     54  O         -9.5220  -39.5760   73.2450 O.2   185  TYR185     -0.2715
     55  CB       -10.4840  -37.0290   74.3800 C.3   185  TYR185      0.0574
     56  CG       -10.4100  -35.7980   75.2500 C.ar  185  TYR185     -0.0198
     57  CD1       -9.6200  -35.8090   76.3970 C.ar  185  TYR185     -0.0009
     58  CD2      -10.9900  -34.6010   74.8700 C.ar  185  TYR185     -0.0009
     59  CE1       -9.4050  -34.6680   77.1450 C.ar  185  TYR185      0.0417
     60  CE2      -10.7930  -33.4680   75.6140 C.ar  185  TYR185      0.0417
     61  CZ       -10.0010  -33.4930   76.7290 C.ar  185  TYR185      0.1957
     62  OH        -9.7800  -32.3240   77.4270 O.3   185  TYR185     -0.2866
     63  N         -8.5930  -38.4040   71.5620 N.am  186  TRP186     -0.1960
     64  CA        -8.5480  -39.4630   70.5740 C.3   186  TRP186      0.1771
     65  C         -8.0140  -40.7410   71.2330 C.2   186  TRP186      0.2620
     66  O         -7.0450  -40.6970   71.9910 O.2   186  TRP186     -0.2715
     67  CB        -7.6190  -39.0410   69.4290 C.3   186  TRP186      0.0590
     68  CG        -7.7440  -37.6050   69.0490 C.ar  186  TRP186      0.0006
     69  CD1       -6.7570  -36.6790   69.0930 C.ar  186  TRP186      0.0946
     70  CD2       -8.9590  -36.8930   68.6870 C.ar  186  TRP186      0.0152
     71  NE1       -7.2440  -35.4450   68.7230 N.ar  186  TRP186     -0.2442
     72  CE2       -8.5940  -35.5490   68.4700 C.ar  186  TRP186      0.0810
     73  CE3      -10.3120  -37.2610   68.5470 C.ar  186  TRP186      0.0012
     74  CZ2       -9.5130  -34.5860   68.1160 C.ar  186  TRP186      0.0191
     75  CZ3      -11.2290  -36.3040   68.1910 C.ar  186  TRP186      0.0001
     76  CH2      -10.8170  -34.9710   67.9650 C.ar  186  TRP186      0.0015
     77  N         -8.6970  -41.8580   70.9680 N.am  187  GLY187     -0.1940
     78  CA        -8.2930  -43.1420   71.5480 C.3   187  GLY187      0.2014
     79  C         -8.9350  -43.4330   72.8940 C.2   187  GLY187      0.2639
     80  O         -8.7940  -44.5580   73.4020 O.2   187  GLY187     -0.2714
     81  N         -9.6460  -42.4600   73.4690 N.am  188  HIS188     -0.1959
     82  CA       -10.3730  -42.7170   74.7150 C.3   188  HIS188      0.1772
     83  C        -11.3000  -43.9300   74.4860 C.2   188  HIS188      0.2462
     84  O        -11.9220  -44.0380   73.4370 O.2   188  HIS188     -0.2730
     85  CB       -11.2020  -41.4800   75.0900 C.3   188  HIS188      0.0785
     86  CG       -11.7950  -41.4960   76.4480 C.ar  188  HIS188      0.0821
     87  ND1      -12.9130  -42.2320   76.7600 N.ar  188  HIS188     -0.2267
     88  CD2      -11.4480  -40.8030   77.5580 C.ar  188  HIS188      0.1154
     89  CE1      -13.2030  -42.0100   78.0410 C.ar  188  HIS188      0.1986
     90  NE2      -12.3490  -41.1240   78.5410 N.ar  188  HIS188     -0.2212
     91  N        -11.4600  -44.8010   75.4930 N.am  189  PRO189     -0.2727
     92  CA       -12.3190  -45.9820   75.3060 C.3   189  PRO189      0.1402
     93  C        -13.7800  -45.7140   75.0220 C.2   189  PRO189      0.2269
     94  O        -14.4560  -46.5900   74.5110 O.2   189  PRO189     -0.2865
     95  CB       -12.0710  -46.7930   76.5740 C.3   189  PRO189      0.0296
     96  CG       -11.6550  -45.8200   77.5950 C.3   189  PRO189      0.0237
     97  CD       -10.8530  -44.7850   76.8290 C.3   189  PRO189      0.0939
     98  N        -11.2520  -42.3280   82.6340 N.3   558  ILE558     -0.1245
     99  CA        -9.9280  -41.7510   82.8720 C.3   558  ILE558      0.1561
    100  C        -10.1630  -40.3670   83.4570 C.2   558  ILE558      0.2260
    101  O        -10.4020  -39.4180   82.7170 O.2   558  ILE558     -0.2867
    102  CB        -9.0950  -41.6260   81.5570 C.3   558  ILE558      0.0252
    103  CG1       -8.9800  -42.9540   80.7960 C.3   558  ILE558      0.0019
    104  CG2       -7.7040  -41.0550   81.8470 C.3   558  ILE558      0.0019
    105  CD1       -8.4540  -42.8400   79.3730 C.3   558  ILE558      0.0001
    106  N         -8.8640  -37.1620   81.8450 N.3   561  GLN561     -0.1245
    107  CA        -9.1870  -36.9350   80.4320 C.3   561  GLN561      0.1566
    108  C        -10.7100  -36.9250   80.3460 C.2   561  GLN561      0.2260
    109  O        -11.3590  -37.9600   80.0900 O.2   561  GLN561     -0.2867
    110  CB        -8.5510  -38.0460   79.5930 C.3   561  GLN561      0.0367
    111  CG        -7.0180  -38.1330   79.7300 C.3   561  GLN561      0.0905
    112  CD        -6.2770  -36.9590   79.0790 C.2   561  GLN561      0.2608
    113  OE1       -6.8240  -36.2380   78.2100 O.2   561  GLN561     -0.2717
    114  NE2       -5.0430  -36.7270   79.5410 N.am  561  GLN561     -0.0878
@<TRIPOS>BOND
     1    26    27   ar
     2    26    24   ar
     3    27    25   ar
     4     4     3    2
     5    24    22   ar
     6     3     2    1
     7    25    23   ar
     8     2     1    1
     9     2     5    1
    10    15    14    1
    11     8     6    1
    12     9    10    1
    13    22    23   ar
    14    22    21    1
    15    10    11    1
    16    10    13    1
    17    12    11    2
    18    14    13    1
    19    14    16    1
    20     5     6    1
    21     6     7    1
    22    21    18    1
    23    17    18    1
    24    18    19    1
    25    76    74   ar
    26    76    75   ar
    27    74    72   ar
    28    19    28   am
    29    19    20    2
    30    75    73   ar
    31    28    29    1
    32    72    70   ar
    33    72    71   ar
    34    73    70   ar
    35    70    68   ar
    36    71    69   ar
    37    68    69   ar
    38    68    67    1
    39    32    29    1
    40    32    33    1
    41    37    36    1
    42    29    30    1
    43    67    64    1
    44    34    33    1
    45    34    35    1
    46    36    35    2
    47    36    38    1
    48    64    65    1
    49    64    63    1
    50    30    39   am
    51    30    31    2
    52    77    65   am
    53    77    78    1
    54    65    66    2
    55    39    40    1
    56    78    79    1
    57    63    53   am
    58    47    48    1
    59    47    41   am
    60    48    49    1
    61    40    41    1
    62    40    43    1
    63    53    54    2
    64    53    52    1
    65    51    49   am
    66    51    52    1
    67    79    80    2
    68    79    81   am
    69    49    50    2
    70    41    42    2
    71    84    83    2
    72    81    82    1
    73    43    44    1
    74    52    55    1
    75    55    56    1
    76    83    82    1
    77    83    91   am
    78    94    93    2
    79    82    85    1
    80    58    56   ar
    81    58    60   ar
    82    44    45    2
    83    44    46   am
    84    93    92    1
    85    85    86    1
    86    56    57   ar
    87    92    91    1
    88    92    95    1
    89    91    97    1
    90    60    61   ar
    91    57    59   ar
    92    86    87   ar
    93    86    88   ar
    94    95    96    1
    95    61    59   ar
    96    61    62    1
    97    87    89   ar
    98    97    96    1
    99    88    90   ar
   100    89    90   ar
   101   113   112    2
   102   112   114   am
   103   112   111    1
   104   105   103    1
   105   110   111    1
   106   110   107    1
   107   109   108    2
   108   108   107    1
   109   107   106    1
   110   103   102    1
   111   102   104    1
   112   102    99    1
   113    98    99    1
   114   101   100    2
   115    99   100    1
