@<TRIPOS>MOLECULE
tmp/6gaqB00.pdb
 151 150 0 0 0
SMALL
GASTEIGER

@<TRIPOS>ATOM
      1  N        -21.7120  -43.5640   -7.3290 N.3     9  SER9       -0.1202
      2  CA       -21.0410  -42.5110   -8.0770 C.3     9  SER9        0.2020
      3  C        -19.6860  -42.2290   -7.4500 C.2     9  SER9        0.2619
      4  O        -19.5600  -42.1750   -6.2230 O.2     9  SER9       -0.2717
      5  CB       -21.8800  -41.2260   -8.1120 C.3     9  SER9        0.2103
      6  OG       -21.2030  -40.1930   -8.8070 O.3     9  SER9       -0.2182
      7  N        -18.6770  -42.0470   -8.2990 N.am   10  MET10      -0.1965
      8  CA       -17.3170  -41.7610   -7.8600 C.3    10  MET10       0.1736
      9  C        -16.9180  -40.3100   -8.0820 C.2    10  MET10       0.2617
     10  O        -16.4960  -39.6340   -7.1390 O.2    10  MET10      -0.2715
     11  CB       -16.3270  -42.6870   -8.5810 C.3    10  MET10       0.0427
     12  CG       -14.8720  -42.4550   -8.2050 C.3    10  MET10       0.0599
     13  SD       -13.8260  -43.8790   -8.5650 S.3    10  MET10      -0.1393
     14  CE       -12.3980  -43.0750   -9.2860 C.3    10  MET10       0.0692
     15  N        -17.0400  -39.8100   -9.3110 N.am   11  SER11      -0.1936
     16  CA       -16.6360  -38.4510   -9.6460 C.3    11  SER11       0.2055
     17  C        -17.8130  -37.4870   -9.7420 C.2    11  SER11       0.2644
     18  O        -17.6250  -36.3380  -10.1530 O.2    11  SER11      -0.2714
     19  CB       -15.8410  -38.4430  -10.9540 C.3    11  SER11       0.2130
     20  OG       -16.6600  -38.7940  -12.0540 O.3    11  SER11      -0.2179
     21  N        -19.0190  -37.9260   -9.3840 N.am   12  GLY12      -0.1939
     22  CA       -20.1600  -37.0430   -9.2680 C.3    12  GLY12       0.2014
     23  C        -21.1310  -37.0670  -10.4290 C.2    12  GLY12       0.2639
     24  O        -22.2240  -36.4990  -10.3050 O.2    12  GLY12      -0.2714
     25  N        -20.7760  -37.7030  -11.5480 N.am   13  ASN13      -0.1958
     26  CA       -21.6560  -37.6880  -12.7140 C.3    13  ASN13       0.1819
     27  C        -22.9540  -38.4380  -12.4350 C.2    13  ASN13       0.2621
     28  O        -24.0480  -37.9080  -12.6600 O.2    13  ASN13      -0.2715
     29  CB       -20.9380  -38.2810  -13.9260 C.3    13  ASN13       0.1195
     30  CG       -19.7020  -37.4930  -14.3120 C.2    13  ASN13       0.2630
     31  OD1      -19.6260  -36.2860  -14.0840 O.2    13  ASN13      -0.2716
     32  ND2      -18.7260  -38.1730  -14.9020 N.am   13  ASN13      -0.0877
     33  N        -22.8520  -39.6770  -11.9460 N.am   14  THR14      -0.1951
     34  CA       -24.0530  -40.4420  -11.6260 C.3    14  THR14       0.1897
     35  C        -24.8400  -39.7960  -10.4930 C.2    14  THR14       0.2313
     36  O        -26.0730  -39.8780  -10.4680 O.2    14  THR14      -0.2863
     37  CB       -23.6840  -41.8810  -11.2610 C.3    14  THR14       0.1794
     38  OG1      -22.7200  -42.3820  -12.1960 O.3    14  THR14      -0.2208
     39  CG2      -24.9190  -42.7740  -11.2860 C.3    14  THR14       0.0378
     40  N        -22.2710  -45.8500  -12.5080 N.3    56  TYR56      -0.1227
     41  CA       -21.3690  -45.6740  -13.6300 C.3    56  TYR56       0.1736
     42  C        -20.7250  -47.0110  -13.9860 C.2    56  TYR56       0.2596
     43  O        -20.8610  -48.0050  -13.2710 O.2    56  TYR56      -0.2718
     44  CB       -20.3090  -44.6210  -13.3060 C.3    56  TYR56       0.0548
     45  CG       -19.4120  -44.9670  -12.1360 C.ar   56  TYR56      -0.0200
     46  CD1      -19.8430  -44.7900  -10.8270 C.ar   56  TYR56      -0.0009
     47  CD2      -18.1300  -45.4570  -12.3420 C.ar   56  TYR56      -0.0009
     48  CE1      -19.0250  -45.1010   -9.7560 C.ar   56  TYR56       0.0417
     49  CE2      -17.3040  -45.7700  -11.2790 C.ar   56  TYR56       0.0417
     50  CZ       -17.7570  -45.5890   -9.9890 C.ar   56  TYR56       0.1957
     51  OH       -16.9380  -45.9010   -8.9270 O.3    56  TYR56      -0.2866
     52  N        -20.0270  -47.0370  -15.1160 N.am   57  THR57      -0.1939
     53  CA       -19.3900  -48.2480  -15.6110 C.3    57  THR57       0.2028
     54  C        -17.8810  -48.1430  -15.4380 C.2    57  THR57       0.2642
     55  O        -17.2990  -47.0690  -15.6200 O.2    57  THR57      -0.2714
     56  CB       -19.7380  -48.4910  -17.0830 C.3    57  THR57       0.1808
     57  OG1      -21.1600  -48.4410  -17.2500 O.3    57  THR57      -0.2208
     58  CG2      -19.2360  -49.8540  -17.5360 C.3    57  THR57       0.0379
     59  N        -17.2540  -49.2590  -15.0780 N.am   58  TRP58      -0.1959
     60  CA       -15.8210  -49.3180  -14.8500 C.3    58  TRP58       0.1771
     61  C        -15.1560  -50.1900  -15.9160 C.2    58  TRP58       0.2620
     62  O        -15.7630  -50.5300  -16.9380 O.2    58  TRP58      -0.2715
     63  CB       -15.5360  -49.8200  -13.4320 C.3    58  TRP58       0.0590
     64  CG       -14.2420  -49.3110  -12.8630 C.ar   58  TRP58       0.0006
     65  CD1      -13.2280  -50.0600  -12.3400 C.ar   58  TRP58       0.0946
     66  CD2      -13.8200  -47.9430  -12.7680 C.ar   58  TRP58       0.0152
     67  NE1      -12.2040  -49.2450  -11.9230 N.ar   58  TRP58      -0.2442
     68  CE2      -12.5430  -47.9420  -12.1740 C.ar   58  TRP58       0.0810
     69  CE3      -14.4000  -46.7200  -13.1240 C.ar   58  TRP58       0.0012
     70  CZ2      -11.8340  -46.7670  -11.9300 C.ar   58  TRP58       0.0191
     71  CZ3      -13.6950  -45.5560  -12.8820 C.ar   58  TRP58       0.0001
     72  CH2      -12.4260  -45.5870  -12.2900 C.ar   58  TRP58       0.0015
     73  N        -13.9000  -50.5560  -15.6640 N.am   59  GLY59      -0.1940
     74  CA       -13.0630  -51.2410  -16.6320 C.3    59  GLY59       0.2014
     75  C        -13.6570  -52.4800  -17.2690 C.2    59  GLY59       0.2639
     76  O        -14.1750  -53.3610  -16.5760 O.2    59  GLY59      -0.2714
     77  N        -13.5830  -52.5460  -18.6010 N.am   60  ASP60      -0.1957
     78  CA       -14.0510  -53.6970  -19.3780 C.3    60  ASP60       0.1840
     79  C        -15.5310  -53.9800  -19.1300 C.2    60  ASP60       0.2622
     80  O        -15.9610  -55.1330  -19.0680 O.2    60  ASP60      -0.2715
     81  CB       -13.2010  -54.9380  -19.0940 C.3    60  ASP60       0.1450
     82  CG       -11.7980  -54.8210  -19.6580 C.2    60  ASP60       0.3671
     83  OD1      -10.8320  -54.8770  -18.8680 O.co2  60  ASP60      -0.2456
     84  OD2      -11.6610  -54.6710  -20.8900 O.co2  60  ASP60      -0.2456
     85  N        -16.3200  -52.9160  -18.9940 N.am   61  GLY61      -0.1954
     86  CA       -17.7490  -53.0700  -18.8160 C.3    61  GLY61       0.1869
     87  C        -18.1710  -53.6910  -17.5060 C.2    61  GLY61       0.2309
     88  O        -19.3140  -54.1360  -17.3840 O.2    61  GLY61      -0.2863
     89  N        -24.1530  -43.4480  -15.9360 N.3    89  SER89      -0.1202
     90  CA       -23.3060  -42.5190  -16.6730 C.3    89  SER89       0.2020
     91  C        -22.0760  -43.2600  -17.1770 C.2    89  SER89       0.2619
     92  O        -21.4010  -43.9480  -16.4040 O.2    89  SER89      -0.2717
     93  CB       -22.8930  -41.3340  -15.7950 C.3    89  SER89       0.2103
     94  OG       -21.9870  -40.4810  -16.4750 O.3    89  SER89      -0.2182
     95  N        -21.7860  -43.1170  -18.4680 N.am   90  GLY90      -0.1942
     96  CA       -20.6960  -43.8250  -19.0980 C.3    90  GLY90       0.2014
     97  C        -19.8620  -42.9110  -19.9770 C.2    90  GLY90       0.2638
     98  O        -19.7820  -41.6980  -19.7640 O.2    90  GLY90      -0.2714
     99  N        -19.2250  -43.5200  -20.9740 N.am   91  ASP91      -0.1971
    100  CA       -18.3520  -42.7750  -21.8750 C.3    91  ASP91       0.1709
    101  C        -18.2950  -43.5290  -23.1920 C.2    91  ASP91       0.2293
    102  O        -17.7930  -44.6560  -23.2440 O.2    91  ASP91      -0.2864
    103  CB       -16.9630  -42.6070  -21.2790 C.3    91  ASP91       0.1436
    104  CG       -16.0700  -41.7030  -22.1140 C.2    91  ASP91       0.3671
    105  OD1      -16.5210  -41.2030  -23.1660 O.co2  91  ASP91      -0.2456
    106  OD2      -14.9100  -41.4840  -21.7070 O.co2  91  ASP91      -0.2456
    107  N        -15.5580  -45.8830  -24.8200 N.3    94  TYR94      -0.1241
    108  CA       -15.3840  -47.2930  -24.5040 C.3    94  TYR94       0.1605
    109  C        -16.3620  -48.1440  -25.3070 C.2    94  TYR94       0.2264
    110  O        -17.4630  -47.7030  -25.6450 O.2    94  TYR94      -0.2867
    111  CB       -15.5830  -47.5500  -23.0090 C.3    94  TYR94       0.0534
    112  CG       -14.5290  -46.9080  -22.1370 C.ar   94  TYR94      -0.0201
    113  CD1      -13.3680  -47.5900  -21.7980 C.ar   94  TYR94      -0.0009
    114  CD2      -14.6920  -45.6150  -21.6610 C.ar   94  TYR94      -0.0009
    115  CE1      -12.4010  -47.0030  -21.0030 C.ar   94  TYR94       0.0417
    116  CE2      -13.7330  -45.0190  -20.8680 C.ar   94  TYR94       0.0417
    117  CZ       -12.5890  -45.7170  -20.5420 C.ar   94  TYR94       0.1957
    118  OH       -11.6300  -45.1280  -19.7520 O.3    94  TYR94      -0.2866
    119  N        -18.0620  -50.8250  -24.3870 N.3    96  LEU96      -0.1231
    120  CA       -19.2460  -51.2090  -23.6240 C.3    96  LEU96       0.1693
    121  C        -19.7760  -49.9770  -22.8950 C.2    96  LEU96       0.2592
    122  O        -19.5730  -49.7850  -21.6960 O.2    96  LEU96      -0.2718
    123  CB       -18.9060  -52.3470  -22.6690 C.3    96  LEU96       0.0284
    124  CG       -18.5960  -53.6800  -23.3550 C.3    96  LEU96       0.0019
    125  CD1      -18.1660  -54.7280  -22.3420 C.3    96  LEU96       0.0001
    126  CD2      -19.7970  -54.1620  -24.1540 C.3    96  LEU96       0.0001
    127  N        -20.4760  -49.1320  -23.6490 N.am   97  PHE97      -0.1962
    128  CA       -20.9910  -47.8760  -23.1150 C.3    97  PHE97       0.1771
    129  C        -22.1450  -48.1440  -22.1560 C.2    97  PHE97       0.2619
    130  O        -23.1700  -48.7100  -22.5500 O.2    97  PHE97      -0.2715
    131  CB       -21.4420  -46.9660  -24.2550 C.3    97  PHE97       0.0574
    132  CG       -22.1540  -45.7240  -23.7950 C.ar   97  PHE97      -0.0200
    133  CD1      -21.4620  -44.7110  -23.1490 C.ar   97  PHE97      -0.0042
    134  CD2      -23.5130  -45.5670  -24.0110 C.ar   97  PHE97      -0.0042
    135  CE1      -22.1140  -43.5670  -22.7260 C.ar   97  PHE97      -0.0003
    136  CE2      -24.1710  -44.4250  -23.5910 C.ar   97  PHE97      -0.0003
    137  CZ       -23.4690  -43.4240  -22.9470 C.ar   97  PHE97      -0.0000
    138  N        -21.9720  -47.7330  -20.8980 N.am   98  CYS98      -0.1968
    139  CA       -23.0060  -47.8550  -19.8680 C.3    98  CYS98       0.1712
    140  C        -23.4510  -49.3050  -19.6830 C.2    98  CYS98       0.2296
    141  O        -24.6460  -49.5990  -19.5970 O.2    98  CYS98      -0.2864
    142  CB       -24.2050  -46.9540  -20.1790 C.3    98  CYS98       0.0983
    143  SG       -23.9350  -45.2010  -19.8260 S.3    98  CYS98      -0.0798
    144  N        -21.0040  -39.0800  -19.5270 N.3   124  LEU124     -0.1245
    145  CA       -20.2250  -38.2470  -18.5990 C.3   124  LEU124      0.1561
    146  C        -21.2060  -37.4800  -17.7120 C.2   124  LEU124      0.2260
    147  O        -22.1290  -38.0970  -17.1550 O.2   124  LEU124     -0.2867
    148  CB       -19.2500  -37.3950  -19.4010 C.3   124  LEU124      0.0270
    149  CG       -18.2030  -38.1750  -20.1990 C.3   124  LEU124      0.0019
    150  CD1      -17.2150  -37.2320  -20.8670 C.3   124  LEU124      0.0001
    151  CD2      -17.4830  -39.1640  -19.2980 C.3   124  LEU124      0.0001
@<TRIPOS>BOND
     1   110   109    2
     2   109   108    1
     3   107   108    1
     4   108   111    1
     5   119   120    1
     6   131   132    1
     7   131   128    1
     8   126   124    1
     9   134   132   ar
    10   134   136   ar
    11   132   133   ar
    12   127   128    1
    13   127   121   am
    14   120   121    1
    15   120   123    1
    16   136   137   ar
    17   124   123    1
    18   124   125    1
    19   102   101    2
    20   101   100    1
    21   105   104   ar
    22   133   135   ar
    23   128   129    1
    24   111   112    1
    25   137   135   ar
    26   121   122    2
    27   130   129    2
    28   129   138   am
    29   112   113   ar
    30   112   114   ar
    31   104   106   ar
    32   104   103    1
    33   100   103    1
    34   100    99    1
    35   113   115   ar
    36   114   116   ar
    37   115   117   ar
    38    99    97   am
    39   138   139    1
    40    84    82   ar
    41   116   117   ar
    42   150   149    1
    43   117   118    1
    44   149   148    1
    45   149   151    1
    46   142   139    1
    47   142   143    1
    48    97    98    2
    49    97    96    1
    50   139   140    1
    51   140   141    2
    52    82    81    1
    53    82    83   ar
    54   144   145    1
    55   148   145    1
    56    78    79    1
    57    78    81    1
    58    78    77    1
    59    79    80    2
    60    79    85   am
    61    96    95    1
    62    85    86    1
    63    86    87    1
    64    77    75   am
    65   145   146    1
    66    95    91   am
    67   146   147    2
    68    58    56    1
    69    87    88    2
    70    75    74    1
    71    75    76    2
    72    57    56    1
    73    91    90    1
    74    91    92    2
    75    56    53    1
    76    62    61    2
    77    90    89    1
    78    90    93    1
    79    74    73    1
    80    94    93    1
    81    61    73   am
    82    61    60    1
    83    55    54    2
    84    53    54    1
    85    53    52    1
    86    54    59   am
    87    52    42   am
    88    59    60    1
    89    32    30   am
    90    60    63    1
    91    30    31    2
    92    30    29    1
    93    42    41    1
    94    42    43    2
    95    29    26    1
    96    41    44    1
    97    41    40    1
    98    63    64    1
    99    44    45    1
   100    69    71   ar
   101    69    66   ar
   102    71    72   ar
   103    64    66   ar
   104    64    65   ar
   105    66    68   ar
   106    26    27    1
   107    26    25    1
   108    28    27    2
   109    27    33   am
   110    47    45   ar
   111    47    49   ar
   112    65    67   ar
   113    72    70   ar
   114    38    37    1
   115    68    70   ar
   116    68    67   ar
   117    45    46   ar
   118    20    19    1
   119    33    34    1
   120    34    37    1
   121    34    35    1
   122    25    23   am
   123    39    37    1
   124    49    50   ar
   125    19    16    1
   126    46    48   ar
   127    35    36    2
   128    23    24    2
   129    23    22    1
   130    18    17    2
   131    50    48   ar
   132    50    51    1
   133    17    16    1
   134    17    21   am
   135    16    15    1
   136    21    22    1
   137    15     9   am
   138    14    13    1
   139     6     5    1
   140    11    12    1
   141    11     8    1
   142    13    12    1
   143     7     8    1
   144     7     3   am
   145     5     2    1
   146     9     8    1
   147     9    10    2
   148     2     3    1
   149     2     1    1
   150     3     4    2
