@<TRIPOS>MOLECULE
tmp/6gaqB01.pdb
 69 65 0 0 0
SMALL
GASTEIGER

@<TRIPOS>ATOM
      1  N        -17.0400  -39.8100   -9.3110 N.3    11  SER11      -0.1202
      2  CA       -16.6360  -38.4510   -9.6460 C.3    11  SER11       0.2020
      3  C        -17.8130  -37.4870   -9.7420 C.2    11  SER11       0.2619
      4  O        -17.6250  -36.3380  -10.1530 O.2    11  SER11      -0.2717
      5  CB       -15.8410  -38.4430  -10.9540 C.3    11  SER11       0.2103
      6  OG       -16.6600  -38.7940  -12.0540 O.3    11  SER11      -0.2182
      7  N        -19.0190  -37.9260   -9.3840 N.am   12  GLY12      -0.1956
      8  CA       -20.1600  -37.0430   -9.2680 C.3    12  GLY12       0.1869
      9  C        -21.1310  -37.0670  -10.4290 C.2    12  GLY12       0.2309
     10  O        -22.2240  -36.4990  -10.3050 O.2    12  GLY12      -0.2863
     11  N        -24.1470  -39.1490   -9.5520 N.3    15  GLU15      -0.1231
     12  CA       -24.8390  -38.4540   -8.4700 C.3    15  GLU15       0.1699
     13  C        -25.6620  -37.2880   -9.0040 C.2    15  GLU15       0.2592
     14  O        -26.7680  -37.0240   -8.5180 O.2    15  GLU15      -0.2718
     15  CB       -23.8290  -37.9700   -7.4290 C.3    15  GLU15       0.0402
     16  CG       -24.4560  -37.3220   -6.2040 C.3    15  GLU15       0.1161
     17  CD       -23.4300  -36.6530   -5.3100 C.2    15  GLU15       0.3649
     18  OE1      -22.2820  -37.1420   -5.2530 O.co2  15  GLU15      -0.2457
     19  OE2      -23.7690  -35.6370   -4.6680 O.co2  15  GLU15      -0.2457
     20  N        -25.1380  -36.5790  -10.0090 N.am   16  SER16      -0.1952
     21  CA       -25.8860  -35.4770  -10.6070 C.3    16  SER16       0.1924
     22  C        -27.1610  -35.9760  -11.2760 C.2    16  SER16       0.2314
     23  O        -28.2100  -35.3270  -11.1920 O.2    16  SER16      -0.2863
     24  CB       -25.0080  -34.7330  -11.6130 C.3    16  SER16       0.2116
     25  OG       -23.7790  -34.3430  -11.0250 O.3    16  SER16      -0.2180
     26  N        -29.6410  -36.6590   -8.5550 N.3    19  ASP19      -0.1225
     27  CA       -30.2270  -35.4280   -8.0310 C.3    19  ASP19       0.1805
     28  C        -31.3150  -34.8980   -8.9570 C.2    19  ASP19       0.2597
     29  O        -32.3520  -34.4100   -8.4900 O.2    19  ASP19      -0.2718
     30  CB       -29.1400  -34.3730   -7.8260 C.3    19  ASP19       0.1424
     31  CG       -28.1080  -34.7900   -6.7960 C.2    19  ASP19       0.3668
     32  OD1      -28.4370  -35.6220   -5.9250 O.co2  19  ASP19      -0.2456
     33  OD2      -26.9680  -34.2840   -6.8570 O.co2  19  ASP19      -0.2456
     34  N        -31.0980  -34.9850  -10.2710 N.am   20  LEU20      -0.1979
     35  CA       -32.1050  -34.5210  -11.2200 C.3    20  LEU20       0.1596
     36  C        -33.3680  -35.3700  -11.1440 C.2    20  LEU20       0.2287
     37  O        -34.4840  -34.8410  -11.1900 O.2    20  LEU20      -0.2864
     38  CB       -31.5350  -34.5370  -12.6390 C.3    20  LEU20       0.0297
     39  CG       -30.4120  -33.5480  -12.9600 C.3    20  LEU20       0.0022
     40  CD1      -29.6720  -33.9710  -14.2200 C.3    20  LEU20       0.0001
     41  CD2      -30.9610  -32.1390  -13.1100 C.3    20  LEU20       0.0001
     42  N        -21.0570  -36.1660  -17.5450 N.3   125  ALA125     -0.1231
     43  CA       -21.9380  -35.4250  -16.6490 C.3   125  ALA125      0.1679
     44  C        -23.1600  -34.9080  -17.4040 C.2   125  ALA125      0.2434
     45  O        -23.0530  -34.5310  -18.5740 O.2   125  ALA125     -0.2733
     46  CB       -21.2000  -34.2500  -16.0150 C.3   125  ALA125      0.0304
     47  N        -24.3280  -34.8750  -16.7580 N.am  126  PRO126     -0.2718
     48  CA       -25.5240  -34.2820  -17.3830 C.3   126  PRO126      0.1535
     49  C        -25.4830  -32.7580  -17.3510 C.2   126  PRO126      0.2598
     50  O        -26.3430  -32.0920  -16.7670 O.2   126  PRO126     -0.2715
     51  CB       -26.6570  -34.8630  -16.5280 C.3   126  PRO126      0.0310
     52  CG       -26.0490  -34.9950  -15.1730 C.3   126  PRO126      0.0237
     53  CD       -24.6040  -35.3730  -15.3980 C.3   126  PRO126      0.0939
     54  N        -24.4600  -32.1920  -17.9940 N.am  127  GLU127     -0.1978
     55  CA       -24.1400  -30.7770  -17.8850 C.3   127  GLU127      0.1602
     56  C        -24.5800  -29.9710  -19.1030 C.2   127  GLU127      0.2287
     57  O        -24.0410  -28.8850  -19.3450 O.2   127  GLU127     -0.2864
     58  CB       -22.6380  -30.6000  -17.6550 C.3   127  GLU127      0.0415
     59  CG       -21.7810  -31.0510  -18.8270 C.3   127  GLU127      0.1163
     60  CD       -20.3290  -31.2510  -18.4480 C.2   127  GLU127      0.3649
     61  OE1      -19.8760  -32.4140  -18.4150 O.co2 127  GLU127     -0.2457
     62  OE2      -19.6390  -30.2450  -18.1820 O.co2 127  GLU127     -0.2457
     63  N        -30.1190  -32.8290  -19.5850 N.3   132  VAL132     -0.1245
     64  CA       -31.0800  -32.4640  -18.5490 C.3   132  VAL132      0.1561
     65  C        -32.4860  -32.8840  -18.9590 C.2   132  VAL132      0.2260
     66  O        -33.2620  -33.3950  -18.1430 O.2   132  VAL132     -0.2867
     67  CB       -30.9970  -30.9540  -18.2550 C.3   132  VAL132      0.0252
     68  CG1      -32.1650  -30.5100  -17.3900 C.3   132  VAL132      0.0019
     69  CG2      -29.6740  -30.6150  -17.5840 C.3   132  VAL132      0.0019
@<TRIPOS>BOND
     1    63    64    1
     2    57    56    2
     3    56    55    1
     4    65    64    1
     5    65    66    2
     6    59    60    1
     7    59    58    1
     8    45    44    2
     9    64    67    1
    10    60    61   ar
    11    60    62   ar
    12    67    69    1
    13    67    68    1
    14    54    55    1
    15    54    49   am
    16    55    58    1
    17    42    43    1
    18    44    47   am
    19    44    43    1
    20    48    49    1
    21    48    47    1
    22    48    51    1
    23    49    50    2
    24    47    53    1
    25    43    46    1
    26    51    52    1
    27    53    52    1
    28    40    39    1
    29    41    39    1
    30    39    38    1
    31    38    35    1
    32     6     5    1
    33    24    25    1
    34    24    21    1
    35    22    23    2
    36    22    21    1
    37    35    36    1
    38    35    34    1
    39    37    36    2
    40     5     2    1
    41    21    20    1
    42     9    10    2
    43     9     8    1
    44    34    28   am
    45     4     3    2
    46    20    13   am
    47     3     2    1
    48     3     7   am
    49     2     1    1
    50    11    12    1
    51     7     8    1
    52    13    14    2
    53    13    12    1
    54    28    29    2
    55    28    27    1
    56    26    27    1
    57    12    15    1
    58    27    30    1
    59    30    31    1
    60    15    16    1
    61    33    31   ar
    62    31    32   ar
    63    16    17    1
    64    17    18   ar
    65    17    19   ar
