@<TRIPOS>MOLECULE
tmp/6gb3A00.pdb
 175 161 0 0 0
SMALL
GASTEIGER

@<TRIPOS>ATOM
      1  N         12.8540    5.0520   -9.3260 N.3    19  VAL19      -0.1245
      2  CA        13.2550    3.8600  -10.0560 C.3    19  VAL19       0.1561
      3  C         12.1610    3.5520  -11.0680 C.2    19  VAL19       0.2260
      4  O         10.9700    3.6610  -10.7520 O.2    19  VAL19      -0.2867
      5  CB        13.4510    2.6550   -9.1030 C.3    19  VAL19       0.0252
      6  CG1       13.6910    1.3770   -9.8880 C.3    19  VAL19       0.0019
      7  CG2       14.5980    2.9060   -8.1410 C.3    19  VAL19       0.0019
      8  N         11.0700    0.2170  -13.4120 N.3    21  SER21      -0.1217
      9  CA        11.3130   -1.2020  -13.6160 C.3    21  SER21       0.1889
     10  C         10.5930   -1.6740  -14.8710 C.2    21  SER21       0.2288
     11  O          9.6490   -1.0370  -15.3530 O.2    21  SER21      -0.2866
     12  CB        10.8470   -2.0330  -12.4150 C.3    21  SER21       0.2089
     13  OG         9.4270   -2.1590  -12.4160 O.3    21  SER21      -0.2183
     14  N         11.4850   -8.4720  -12.9000 N.3    28  ASN28      -0.1240
     15  CA        11.0740   -7.0710  -12.8380 C.3    28  ASN28       0.1653
     16  C         12.2360   -6.1420  -12.4660 C.2    28  ASN28       0.2266
     17  O         12.1760   -5.4300  -11.4550 O.2    28  ASN28      -0.2867
     18  CB         9.9160   -6.9150  -11.8610 C.3    28  ASN28       0.1155
     19  CG         9.2230   -5.5630  -11.9500 C.2    28  ASN28       0.2627
     20  OD1        9.3280   -4.8480  -12.9500 O.2    28  ASN28      -0.2716
     21  ND2        8.4980   -5.2120  -10.8970 N.am   28  ASN28      -0.0877
     22  N         16.3800   -6.4280   -9.3480 N.3    52  ASN52      -0.1225
     23  CA        15.1440   -6.1580   -8.6300 C.3    52  ASN52       0.1785
     24  C         15.4510   -5.3430   -7.3770 C.2    52  ASN52       0.2597
     25  O         16.4520   -5.5890   -6.6970 O.2    52  ASN52      -0.2718
     26  CB        14.4570   -7.4740   -8.2640 C.3    52  ASN52       0.1169
     27  CG        13.1110   -7.2660   -7.6160 C.2    52  ASN52       0.2627
     28  OD1       13.0240   -6.8960   -6.4410 O.2    52  ASN52      -0.2716
     29  ND2       12.0490   -7.5130   -8.3710 N.am   52  ASN52      -0.0877
     30  N         14.5880   -4.3660   -7.0720 N.am   53  CYS53      -0.1956
     31  CA        14.8490   -3.4230   -5.9850 C.3    53  CYS53       0.1843
     32  C         14.7920   -4.0470   -4.5910 C.2    53  CYS53       0.2625
     33  O         14.9940   -3.3200   -3.6110 O.2    53  CYS53      -0.2714
     34  CB        13.8730   -2.2490   -6.0570 C.3    53  CYS53       0.0997
     35  SG        14.1510   -1.2060   -7.4870 S.3    53  CYS53      -0.0797
     36  N         14.5490   -5.3560   -4.4710 N.am   54  ARG54      -0.1977
     37  CA        14.5200   -5.9780   -3.1500 C.3    54  ARG54       0.1597
     38  C         15.8680   -5.9190   -2.4360 C.2    54  ARG54       0.2287
     39  O         15.9180   -6.2040   -1.2370 O.2    54  ARG54      -0.2864
     40  CB        14.0630   -7.4350   -3.2570 C.3    54  ARG54       0.0334
     41  CG        15.1310   -8.3830   -3.7790 C.3    54  ARG54       0.0492
     42  CD        14.6630   -9.8340   -3.7110 C.3    54  ARG54       0.2205
     43  NE        13.4680  -10.0450   -4.5190 N.pl3  54  ARG54      -0.0865
     44  CZ        13.4890  -10.3120   -5.8220 C.cat  54  ARG54       0.5346
     45  NH1       14.6500  -10.4080   -6.4620 N.pl3  54  ARG54       0.1354
     46  NH2       12.3510  -10.4850   -6.4800 N.pl3  54  ARG54       0.1354
     47  N         17.1830   -3.4130   -1.4620 N.3    56  LEU56      -0.1231
     48  CA        17.0060   -2.3690   -0.4570 C.3    56  LEU56       0.1693
     49  C         16.5150   -2.9150    0.8760 C.2    56  LEU56       0.2591
     50  O         16.5800   -2.2090    1.8860 O.2    56  LEU56      -0.2718
     51  CB        16.0180   -1.3310   -0.9740 C.3    56  LEU56       0.0284
     52  CG        16.5120   -0.6230   -2.2280 C.3    56  LEU56       0.0019
     53  CD1       15.4080    0.1830   -2.8550 C.3    56  LEU56       0.0001
     54  CD2       17.6950    0.2750   -1.8720 C.3    56  LEU56       0.0001
     55  N         16.0110   -4.1380    0.8960 N.am   57  GLN57      -0.1979
     56  CA        15.4880   -4.7160    2.1180 C.3    57  GLN57       0.1601
     57  C         16.6160   -5.3640    2.9040 C.2    57  GLN57       0.2287
     58  O         17.6710   -5.6930    2.3600 O.2    57  GLN57      -0.2864
     59  CB        14.3930   -5.7230    1.7830 C.3    57  GLN57       0.0394
     60  CG        13.2290   -5.0530    1.0740 C.3    57  GLN57       0.0908
     61  CD        12.4460   -5.9920    0.1880 C.2    57  GLN57       0.2608
     62  OE1       12.5520   -7.2140    0.3000 O.2    57  GLN57      -0.2717
     63  NE2       11.6530   -5.4220   -0.7100 N.am   57  GLN57      -0.0878
     64  N          6.7870   -6.5610    2.5390 N.3    66  VAL66      -0.1231
     65  CA         7.3100   -7.0350    1.2620 C.3    66  VAL66       0.1692
     66  C          6.2160   -7.7390    0.4670 C.2    66  VAL66       0.2591
     67  O          6.0460   -7.5020   -0.7350 O.2    66  VAL66      -0.2718
     68  CB         8.5260   -7.9490    1.4930 C.3    66  VAL66       0.0266
     69  CG1        8.9640   -8.6140    0.1840 C.3    66  VAL66       0.0020
     70  CG2        9.6730   -7.1470    2.1090 C.3    66  VAL66       0.0020
     71  N          5.4510   -8.6100    1.1240 N.am   67  GLU67      -0.1979
     72  CA         4.3670   -9.2950    0.4250 C.3    67  GLU67       0.1602
     73  C          3.3000   -8.3030   -0.0360 C.2    67  GLU67       0.2287
     74  O          2.7270   -8.4550   -1.1230 O.2    67  GLU67      -0.2864
     75  CB         3.7700  -10.3830    1.3160 C.3    67  GLU67       0.0415
     76  CG         2.6970  -11.2430    0.6520 C.3    67  GLU67       0.1163
     77  CD         3.1790  -11.9430   -0.6120 C.2    67  GLU67       0.3649
     78  OE1        4.3980  -12.1800   -0.7470 O.co2  67  GLU67      -0.2457
     79  OE2        2.3290  -12.2600   -1.4730 O.co2  67  GLU67      -0.2457
     80  N          3.7900   -5.1720   -1.0230 N.3    69  ILE69      -0.1231
     81  CA         4.3070   -4.5960   -2.2590 C.3    69  ILE69       0.1692
     82  C          4.1200   -5.5680   -3.4140 C.2    69  ILE69       0.2591
     83  O          3.7020   -5.1750   -4.5130 O.2    69  ILE69      -0.2718
     84  CB         5.7900   -4.2120   -2.0900 C.3    69  ILE69       0.0266
     85  CG1        5.9570   -3.1610   -0.9910 C.3    69  ILE69       0.0019
     86  CG2        6.3760   -3.7370   -3.4210 C.3    69  ILE69       0.0020
     87  CD1        7.4210   -2.9120   -0.6320 C.3    69  ILE69       0.0001
     88  N          4.4210   -6.8520   -3.1850 N.am   70  ARG70      -0.1980
     89  CA         4.3060   -7.8340   -4.2550 C.3    70  ARG70       0.1597
     90  C          2.8740   -7.9380   -4.7580 C.2    70  ARG70       0.2287
     91  O          2.6390   -8.0220   -5.9690 O.2    70  ARG70      -0.2864
     92  CB         4.7960   -9.1970   -3.7810 C.3    70  ARG70       0.0334
     93  CG         5.2100  -10.0950   -4.9450 C.3    70  ARG70       0.0492
     94  CD         5.7900  -11.3990   -4.4500 C.3    70  ARG70       0.2205
     95  NE         4.7360  -12.2040   -3.8550 N.pl3  70  ARG70      -0.0865
     96  CZ         4.0470  -13.1250   -4.5190 C.cat  70  ARG70       0.5346
     97  NH1        4.3250  -13.3650   -5.7940 N.pl3  70  ARG70       0.1354
     98  NH2        3.0920  -13.8120   -3.9070 N.pl3  70  ARG70       0.1354
     99  N          1.8670   -4.7560   -6.7350 N.3    73  LEU73      -0.1245
    100  CA         2.3550   -4.8030   -8.1100 C.3    73  LEU73       0.1561
    101  C          1.4690   -5.6880   -8.9760 C.2    73  LEU73       0.2260
    102  O          1.1440   -5.3310  -10.1150 O.2    73  LEU73      -0.2867
    103  CB         3.7990   -5.3030   -8.1300 C.3    73  LEU73       0.0270
    104  CG         4.8260   -4.3790   -7.4580 C.3    73  LEU73       0.0019
    105  CD1        6.1810   -5.0520   -7.3650 C.3    73  LEU73       0.0001
    106  CD2        4.9350   -3.0710   -8.2130 C.3    73  LEU73       0.0001
    107  N          8.2300    1.1600    4.5940 N.3    83  ILE83      -0.1245
    108  CA         8.9860   -0.0750    4.7290 C.3    83  ILE83       0.1561
    109  C         10.4090    0.2550    5.1690 C.2    83  ILE83       0.2260
    110  O         10.9890    1.2650    4.7500 O.2    83  ILE83      -0.2867
    111  CB         8.9640   -0.8840    3.4120 C.3    83  ILE83       0.0252
    112  CG1        9.6430   -2.2420    3.5960 C.3    83  ILE83       0.0019
    113  CG2        9.5850   -0.0820    2.2560 C.3    83  ILE83       0.0019
    114  CD1        9.4120   -3.1940    2.4420 C.3    83  ILE83       0.0001
    115  N         14.1540    0.0660    4.9500 N.3    85  ASN85      -0.1240
    116  CA        15.1350   -0.1980    3.9140 C.3    85  ASN85       0.1653
    117  C         16.5310    0.0780    4.4580 C.2    85  ASN85       0.2266
    118  O         16.7080    0.6320    5.5530 O.2    85  ASN85      -0.2867
    119  CB        14.8810    0.6490    2.6630 C.3    85  ASN85       0.1155
    120  CG        13.7720    0.0890    1.7730 C.2    85  ASN85       0.2627
    121  OD1       13.3760    0.7290    0.8020 O.2    85  ASN85      -0.2716
    122  ND2       13.2650   -1.0990    2.1060 N.am   85  ASN85      -0.0877
    123  N         11.4370    4.0190    4.6260 N.3    95  ASN95      -0.1240
    124  CA        11.2130    4.4540    3.2580 C.3    95  ASN95       0.1653
    125  C          9.7120    4.5010    2.9950 C.2    95  ASN95       0.2266
    126  O          9.0330    3.4720    3.0880 O.2    95  ASN95      -0.2867
    127  CB        11.9080    3.5020    2.2840 C.3    95  ASN95       0.1155
    128  CG        11.6090    3.8210    0.8330 C.2    95  ASN95       0.2627
    129  OD1       11.0840    4.8880    0.5070 O.2    95  ASN95      -0.2716
    130  ND2       11.9550    2.8910   -0.0560 N.am   95  ASN95      -0.0877
    131  N          7.5210    4.4140    0.2470 N.3    97  LEU97      -0.1245
    132  CA         7.6500    3.9740   -1.1330 C.3    97  LEU97       0.1561
    133  C          6.3190    4.1580   -1.8420 C.2    97  LEU97       0.2260
    134  O          5.2990    3.6420   -1.3820 O.2    97  LEU97      -0.2867
    135  CB         8.0650    2.5070   -1.1730 C.3    97  LEU97       0.0270
    136  CG         8.0450    1.8330   -2.5380 C.3    97  LEU97       0.0019
    137  CD1        9.0780    2.4890   -3.4470 C.3    97  LEU97       0.0001
    138  CD2        8.3300    0.3510   -2.3540 C.3    97  LEU97       0.0001
    139  N          4.4610    3.5480   -5.5230 N.3    99  ILE99      -0.1245
    140  CA         4.5940    2.8230   -6.7800 C.3    99  ILE99       0.1561
    141  C          3.3490    3.0550   -7.6180 C.2    99  ILE99       0.2260
    142  O          2.2320    3.1040   -7.0920 O.2    99  ILE99      -0.2867
    143  CB         4.8390    1.3150   -6.5380 C.3    99  ILE99       0.0252
    144  CG1        6.2690    1.1070   -6.0390 C.3    99  ILE99       0.0019
    145  CG2        4.5960    0.5060   -7.8040 C.3    99  ILE99       0.0019
    146  CD1        6.5820   -0.2970   -5.6120 C.3    99  ILE99       0.0001
    147  N          6.8350   -0.0280  -14.1910 N.3   112  PHE112     -0.1227
    148  CA         6.4610    0.4880  -12.8830 C.3   112  PHE112      0.1736
    149  C          7.3650    1.6730  -12.5590 C.2   112  PHE112      0.2595
    150  O          8.5480    1.6820  -12.9230 O.2   112  PHE112     -0.2718
    151  CB         6.5920   -0.5810  -11.7880 C.3   112  PHE112      0.0547
    152  CG         5.5020   -1.6240  -11.8080 C.ar  112  PHE112     -0.0202
    153  CD1        4.2130   -1.3150  -11.3910 C.ar  112  PHE112     -0.0042
    154  CD2        5.7760   -2.9190  -12.2080 C.ar  112  PHE112     -0.0042
    155  CE1        3.2040   -2.2780  -11.4040 C.ar  112  PHE112     -0.0003
    156  CE2        4.7780   -3.8910  -12.2140 C.ar  112  PHE112     -0.0003
    157  CZ         3.4910   -3.5700  -11.8100 C.ar  112  PHE112     -0.0000
    158  N          6.8000    2.6840  -11.9030 N.am  113  ALA113     -0.1966
    159  CA         7.5650    3.7960  -11.3550 C.3   113  ALA113      0.1728
    160  C          7.4880    3.7250   -9.8420 C.2   113  ALA113      0.2616
    161  O          6.3950    3.5970   -9.2780 O.2   113  ALA113     -0.2715
    162  CB         7.0480    5.1520  -11.8460 C.3   113  ALA113      0.0334
    163  N          8.6450    3.7910   -9.1940 N.am  114  GLY114     -0.1955
    164  CA         8.6990    3.7400   -7.7500 C.3   114  GLY114      0.1869
    165  C          9.4990    4.9050   -7.2240 C.2   114  GLY114      0.2309
    166  O         10.6370    5.1210   -7.6440 O.2   114  GLY114     -0.2863
    167  N         11.0100    6.9150   -3.8300 N.3   116  GLN116     -0.1245
    168  CA        11.3910    6.7100   -2.4410 C.3   116  GLN116      0.1566
    169  C         11.5000    8.0430   -1.7160 C.2   116  GLN116      0.2260
    170  O         12.0810    9.0050   -2.2320 O.2   116  GLN116     -0.2867
    171  CB        12.7200    5.9590   -2.3330 C.3   116  GLN116      0.0367
    172  CG        12.6860    4.5370   -2.8760 C.3   116  GLN116      0.0905
    173  CD        12.8530    4.4760   -4.3830 C.2   116  GLN116      0.2608
    174  OE1       13.2490    5.4590   -5.0180 O.2   116  GLN116     -0.2717
    175  NE2       12.5530    3.3170   -4.9640 N.am  116  GLN116     -0.0878
@<TRIPOS>BOND
     1    11    10    2
     2    10     9    1
     3   147   148    1
     4     9     8    1
     5     9    12    1
     6    20    19    2
     7   150   149    2
     8    14    15    1
     9   148   149    1
    10   148   151    1
    11    15    16    1
    12    15    18    1
    13   149   158   am
    14    16    17    2
    15    13    12    1
    16   156   154   ar
    17   156   157   ar
    18   154   152   ar
    19    19    18    1
    20    19    21   am
    21   158   159    1
    22   162   159    1
    23   157   155   ar
    24   152   151    1
    25   152   153   ar
    26   155   153   ar
    27   159   160    1
    28     3     4    2
    29     3     2    1
    30   102   101    2
    31     2     1    1
    32     2     5    1
    33     6     5    1
    34   160   161    2
    35   160   163   am
    36    22    23    1
    37   163   164    1
    38     5     7    1
    39   101   100    1
    40    23    26    1
    41    23    24    1
    42    29    27   am
    43    26    27    1
    44   106   104    1
    45   103   100    1
    46   103   104    1
    47   100    99    1
    48   145   143    1
    49   164   165    1
    50   166   165    2
    51   141   142    2
    52   141   140    1
    53    27    28    2
    54    35    34    1
    55   104   105    1
    56    24    30   am
    57    24    25    2
    58    30    31    1
    59   140   143    1
    60   140   139    1
    61   143   144    1
    62    46    44    1
    63    45    44    1
    64    34    31    1
    65   144   146    1
    66    31    32    1
    67    91    90    2
    68    44    43    2
    69    97    96    1
    70   174   173    2
    71   175   173   am
    72    93    94    1
    73    93    92    1
    74    90    89    1
    75    32    36   am
    76    32    33    2
    77    96    98    1
    78    96    95    2
    79    43    42    1
    80    83    82    2
    81    36    37    1
    82    94    95    1
    83   173   172    1
    84    89    92    1
    85    89    88    1
    86   167   168    1
    87    41    42    1
    88    41    40    1
    89   137   136    1
    90    86    84    1
    91    82    88   am
    92    82    81    1
    93    40    37    1
    94    37    38    1
    95   172   171    1
    96    53    52    1
    97   136   138    1
    98   136   135    1
    99   168   171    1
   100   168   169    1
   101    38    39    2
   102    81    84    1
   103    81    80    1
   104   170   169    2
   105    52    54    1
   106    52    51    1
   107    84    85    1
   108   133   134    2
   109   133   132    1
   110    79    77   ar
   111    47    48    1
   112   135   132    1
   113   132   131    1
   114    74    73    2
   115    85    87    1
   116    51    48    1
   117    78    77   ar
   118    67    66    2
   119    63    61   am
   120    77    76    1
   121    48    49    1
   122   130   128   am
   123    73    72    1
   124    69    68    1
   125    61    62    2
   126    61    60    1
   127    72    71    1
   128    72    75    1
   129    66    71   am
   130    66    65    1
   131   129   128    2
   132    76    75    1
   133   121   120    2
   134   128   127    1
   135    49    55   am
   136    49    50    2
   137    55    56    1
   138    60    59    1
   139    65    68    1
   140    65    64    1
   141    68    70    1
   142   120   122   am
   143   120   119    1
   144    59    56    1
   145    56    57    1
   146   113   111    1
   147   127   124    1
   148    58    57    2
   149   114   112    1
   150   119   116    1
   151   125   126    2
   152   125   124    1
   153   124   123    1
   154   111   112    1
   155   111   108    1
   156   116   117    1
   157   116   115    1
   158   117   118    2
   159   107   108    1
   160   108   109    1
   161   110   109    2
