@<TRIPOS>MOLECULE
tmp/6gb6B00.pdb
 97 94 0 0 0
SMALL
GASTEIGER

@<TRIPOS>ATOM
      1  N         20.2510   51.2950   11.1200 N.3    77  ASP77      -0.1239
      2  CA        19.1480   52.1970   10.7280 C.3    77  ASP77       0.1674
      3  C         18.4520   52.8430   11.9290 C.2    77  ASP77       0.2266
      4  O         18.1190   54.0350   11.8990 O.2    77  ASP77      -0.2867
      5  CB        18.0950   51.4500    9.9000 C.3    77  ASP77       0.1410
      6  CG        18.6070   50.9920    8.5490 C.2    77  ASP77       0.3668
      7  OD1       19.5810   51.5630    8.0140 O.co2  77  ASP77      -0.2456
      8  OD2       18.0160   50.0430    8.0040 O.co2  77  ASP77      -0.2456
      9  N         20.7360   55.5510   12.8980 N.3    80  THR80      -0.1203
     10  CA        20.6630   56.6200   11.8940 C.3    80  THR80       0.1994
     11  C         19.4540   57.5320   12.1140 C.2    80  THR80       0.2617
     12  O         19.5870   58.7650   12.0830 O.2    80  THR80      -0.2717
     13  CB        20.6180   56.0540   10.4640 C.3    80  THR80       0.1784
     14  OG1       21.8230   55.3250   10.2010 O.3    80  THR80      -0.2211
     15  CG2       20.5030   57.1750    9.4180 C.3    80  THR80       0.0376
     16  N         18.2840   56.9320   12.3350 N.am   81  LEU81      -0.1979
     17  CA        17.0570   57.7170   12.5210 C.3    81  LEU81       0.1596
     18  C         17.0460   58.5590   13.7890 C.2    81  LEU81       0.2287
     19  O         16.4210   59.6230   13.8010 O.2    81  LEU81      -0.2864
     20  CB        15.8120   56.8300   12.4740 C.3    81  LEU81       0.0297
     21  CG        15.5000   56.1470   11.1400 C.3    81  LEU81       0.0022
     22  CD1       14.0990   55.5560   11.1890 C.3    81  LEU81       0.0001
     23  CD2       15.6370   57.0520    9.9270 C.3    81  LEU81       0.0001
     24  N         18.6170   61.6020   12.3730 N.3    84  TYR84      -0.1241
     25  CA        17.7040   62.3390   11.4790 C.3    84  TYR84       0.1605
     26  C         16.6440   63.1620   12.2000 C.2    84  TYR84       0.2264
     27  O         16.3480   64.2840   11.7820 O.2    84  TYR84      -0.2867
     28  CB        16.9680   61.4040   10.5190 C.3    84  TYR84       0.0534
     29  CG        17.7730   60.7690    9.4110 C.ar   84  TYR84      -0.0201
     30  CD1       19.1370   61.0590    9.1930 C.ar   84  TYR84      -0.0009
     31  CD2       17.1480   59.8860    8.5470 C.ar   84  TYR84      -0.0009
     32  CE1       19.8300   60.4570    8.1520 C.ar   84  TYR84       0.0417
     33  CE2       17.8300   59.2870    7.5090 C.ar   84  TYR84       0.0417
     34  CZ        19.1740   59.5750    7.3130 C.ar   84  TYR84       0.1957
     35  OH        19.8090   58.9580    6.2680 O.3    84  TYR84      -0.2866
     36  N         11.1300   50.3700   13.7990 N.3    95  ILE95      -0.1245
     37  CA        11.0760   50.4260   12.3420 C.3    95  ILE95       0.1561
     38  C         10.2930   49.2220   11.8480 C.2    95  ILE95       0.2260
     39  O         10.4990   48.0990   12.3250 O.2    95  ILE95      -0.2867
     40  CB        12.4960   50.4060   11.6970 C.3    95  ILE95       0.0252
     41  CG1       13.2600   51.6710   12.0520 C.3    95  ILE95       0.0019
     42  CG2       12.4000   50.2990   10.1680 C.3    95  ILE95       0.0019
     43  CD1       14.7440   51.6360   11.7450 C.3    95  ILE95       0.0001
     44  N          8.2210   51.4600    4.3900 N.3   116  TYR116     -0.1241
     45  CA         8.8340   51.5900    5.7080 C.3   116  TYR116      0.1605
     46  C          7.9590   52.4800    6.5820 C.2   116  TYR116      0.2264
     47  O          7.2860   53.3960    6.0840 O.2   116  TYR116     -0.2867
     48  CB        10.2140   52.2510    5.6290 C.3   116  TYR116      0.0534
     49  CG        11.2830   51.3990    4.9890 C.ar  116  TYR116     -0.0201
     50  CD1       11.2780   51.1500    3.6130 C.ar  116  TYR116     -0.0009
     51  CD2       12.3080   50.8370    5.7540 C.ar  116  TYR116     -0.0009
     52  CE1       12.2640   50.3710    3.0250 C.ar  116  TYR116      0.0417
     53  CE2       13.2910   50.0510    5.1670 C.ar  116  TYR116      0.0417
     54  CZ        13.2670   49.8230    3.8090 C.ar  116  TYR116      0.1957
     55  OH        14.2500   49.0520    3.2220 O.3   116  TYR116     -0.2866
     56  N          7.0250   56.2930    6.5410 N.3   123  TYR123     -0.1241
     57  CA         8.3340   56.9510    6.4620 C.3   123  TYR123      0.1605
     58  C          8.7230   57.1230    4.9990 C.2   123  TYR123      0.2264
     59  O          8.8250   58.2440    4.5240 O.2   123  TYR123     -0.2867
     60  CB         9.4040   56.1470    7.2200 C.3   123  TYR123      0.0534
     61  CG        10.7760   56.7490    7.1570 C.ar  123  TYR123     -0.0201
     62  CD1       11.1140   57.8120    7.9650 C.ar  123  TYR123     -0.0009
     63  CD2       11.7400   56.2550    6.2700 C.ar  123  TYR123     -0.0009
     64  CE1       12.3740   58.3830    7.9070 C.ar  123  TYR123      0.0417
     65  CE2       12.9990   56.8240    6.2030 C.ar  123  TYR123      0.0417
     66  CZ        13.3120   57.8790    7.0250 C.ar  123  TYR123      0.1957
     67  OH        14.5540   58.4650    6.9920 O.3   123  TYR123     -0.2866
     68  N         16.8280   59.9980    3.2880 N.3   143  THR143     -0.1218
     69  CA        16.8880   58.6190    2.8000 C.3   143  THR143      0.1862
     70  C         16.6010   58.5270    1.3030 C.2   143  THR143      0.2287
     71  O         17.2660   57.7800    0.5810 O.2   143  THR143     -0.2866
     72  CB        15.8930   57.7070    3.5580 C.3   143  THR143      0.1770
     73  OG1       16.1760   57.7730    4.9560 O.3   143  THR143     -0.2211
     74  CG2       16.0040   56.2620    3.0930 C.3   143  THR143      0.0375
     75  N         19.6720   59.9320   -0.5850 N.3   146  LYS146     -0.1231
     76  CA        20.7210   58.9120   -0.4690 C.3   146  LYS146      0.1693
     77  C         20.4460   57.7140   -1.3710 C.2   146  LYS146      0.2592
     78  O         21.3680   57.2010   -2.0080 O.2   146  LYS146     -0.2718
     79  CB        20.8980   58.4470    0.9840 C.3   146  LYS146      0.0285
     80  CG        22.1970   57.6070    1.1130 C.3   146  LYS146      0.0035
     81  CD        22.5960   57.3460    2.5200 C.3   146  LYS146      0.0206
     82  CE        21.5850   56.4210    3.1640 C.3   146  LYS146      0.1093
     83  NZ        21.8490   56.3120    4.5910 N.3   146  LYS146     -0.1314
     84  N         19.1880   57.2850   -1.4420 N.am  147  TRP147     -0.1976
     85  CA        18.8180   56.1170   -2.2400 C.3   147  TRP147      0.1640
     86  C         18.7320   56.3870   -3.7340 C.2   147  TRP147      0.2290
     87  O         18.9900   55.4870   -4.5270 O.2   147  TRP147     -0.2864
     88  CB        17.5110   55.4760   -1.7400 C.3   147  TRP147      0.0576
     89  CG        17.6680   54.6820   -0.4490 C.ar  147  TRP147      0.0006
     90  CD1       18.8380   54.3970    0.2120 C.ar  147  TRP147      0.0946
     91  CD2       16.6190   54.0560    0.3170 C.ar  147  TRP147      0.0152
     92  NE1       18.5780   53.6570    1.3310 N.ar  147  TRP147     -0.2442
     93  CE2       17.2290   53.4280    1.4190 C.ar  147  TRP147      0.0810
     94  CE3       15.2240   53.9730    0.1790 C.ar  147  TRP147      0.0012
     95  CZ2       16.4930   52.7260    2.3850 C.ar  147  TRP147      0.0191
     96  CZ3       14.4890   53.2680    1.1460 C.ar  147  TRP147      0.0001
     97  CH2       15.1280   52.6620    2.2330 C.ar  147  TRP147      0.0015
@<TRIPOS>BOND
     1    87    86    2
     2    86    85    1
     3    85    88    1
     4    85    84    1
     5    78    77    2
     6    88    89    1
     7    84    77   am
     8    77    76    1
     9    75    76    1
    10    76    79    1
    11    89    90   ar
    12    89    91   ar
    13    94    91   ar
    14    94    96   ar
    15    90    92   ar
    16    91    93   ar
    17    71    70    2
    18    79    80    1
    19    80    81    1
    20    96    97   ar
    21    70    69    1
    22    92    93   ar
    23    93    95   ar
    24    97    95   ar
    25    81    82    1
    26    69    68    1
    27    69    72    1
    28    52    50   ar
    29    52    54   ar
    30    74    72    1
    31    82    83    1
    32    55    54    1
    33    72    73    1
    34    50    49   ar
    35    54    53   ar
    36    44    45    1
    37    59    58    2
    38    49    48    1
    39    49    51   ar
    40    58    57    1
    41    53    51   ar
    42    48    45    1
    43    45    46    1
    44    47    46    2
    45    65    63   ar
    46    65    66   ar
    47    35    34    1
    48    63    61   ar
    49    57    56    1
    50    57    60    1
    51    67    66    1
    52    66    64   ar
    53    61    60    1
    54    61    62   ar
    55    34    33   ar
    56    34    32   ar
    57    33    31   ar
    58    64    62   ar
    59     8     6   ar
    60     7     6   ar
    61    32    30   ar
    62    31    29   ar
    63     6     5    1
    64    30    29   ar
    65    29    28    1
    66    15    13    1
    67     5     2    1
    68    23    21    1
    69    42    40    1
    70    14    13    1
    71    13    10    1
    72    28    25    1
    73     2     1    1
    74     2     3    1
    75    21    22    1
    76    21    20    1
    77    25    26    1
    78    25    24    1
    79    40    41    1
    80    40    37    1
    81    43    41    1
    82    27    26    2
    83    38    39    2
    84    38    37    1
    85    10    11    1
    86    10     9    1
    87     4     3    2
    88    12    11    2
    89    11    16   am
    90    16    17    1
    91    37    36    1
    92    20    17    1
    93    17    18    1
    94    18    19    2
