@<TRIPOS>MOLECULE
tmp/6gb7A01.pdb
 116 114 0 0 0
SMALL
GASTEIGER

@<TRIPOS>ATOM
      1  N        -38.7010    8.4780  106.4700 N.3    73  TRP73      -0.1241
      2  CA       -39.6470    7.3990  106.7370 C.3    73  TRP73       0.1605
      3  C        -40.2130    7.5040  108.1500 C.2    73  TRP73       0.2264
      4  O        -41.4270    7.3900  108.3570 O.2    73  TRP73      -0.2867
      5  CB       -38.9450    6.0560  106.5240 C.3    73  TRP73       0.0550
      6  CG       -39.8410    4.8560  106.4940 C.ar   73  TRP73       0.0003
      7  CD1      -40.3520    4.2440  105.3860 C.ar   73  TRP73       0.0946
      8  CD2      -40.3120    4.1050  107.6210 C.ar   73  TRP73       0.0152
      9  NE1      -41.1170    3.1620  105.7530 N.ar   73  TRP73      -0.2442
     10  CE2      -41.1090    3.0550  107.1190 C.ar   73  TRP73       0.0810
     11  CE3      -40.1420    4.2210  109.0040 C.ar   73  TRP73       0.0012
     12  CZ2      -41.7350    2.1280  107.9530 C.ar   73  TRP73       0.0191
     13  CZ3      -40.7640    3.2970  109.8310 C.ar   73  TRP73       0.0001
     14  CH2      -41.5500    2.2650  109.3010 C.ar   73  TRP73       0.0015
     15  N        -42.7120   10.5530  108.4160 N.3    76  VAL76      -0.1231
     16  CA       -44.0430   10.2310  107.9110 C.3    76  VAL76       0.1692
     17  C        -44.7610    9.2980  108.8750 C.2    76  VAL76       0.2592
     18  O        -45.9640    9.4430  109.1290 O.2    76  VAL76      -0.2718
     19  CB       -43.9400    9.6100  106.5080 C.3    76  VAL76       0.0266
     20  CG1      -45.3100    9.1880  105.9950 C.3    76  VAL76       0.0020
     21  CG2      -43.2840   10.5890  105.5490 C.3    76  VAL76       0.0020
     22  N        -44.0340    8.3210  109.4210 N.am   77  SER77      -0.1952
     23  CA       -44.6470    7.3260  110.2930 C.3    77  SER77       0.1924
     24  C        -45.1800    7.9530  111.5750 C.2    77  SER77       0.2314
     25  O        -46.2530    7.5760  112.0610 O.2    77  SER77      -0.2863
     26  CB       -43.6290    6.2370  110.6170 C.3    77  SER77       0.2116
     27  OG       -43.3490    5.4570  109.4700 O.3    77  SER77      -0.2180
     28  N        -48.5600    9.5540  110.6920 N.3    80  ASN80      -0.1225
     29  CA       -49.6470    8.5860  110.5800 C.3    80  ASN80       0.1785
     30  C        -50.0370    8.0450  111.9500 C.2    80  ASN80       0.2597
     31  O        -51.2190    7.7940  112.2140 O.2    80  ASN80      -0.2718
     32  CB       -49.2440    7.4390  109.6520 C.3    80  ASN80       0.1169
     33  CG       -48.9650    7.9000  108.2310 C.2    80  ASN80       0.2627
     34  OD1      -49.3560    8.9960  107.8300 O.2    80  ASN80      -0.2716
     35  ND2      -48.2910    7.0540  107.4590 N.am   80  ASN80      -0.0877
     36  N        -49.0570    7.8620  112.8380 N.am   81  LEU81      -0.1980
     37  CA       -49.3450    7.3020  114.1550 C.3    81  LEU81       0.1596
     38  C        -50.1910    8.2540  114.9920 C.2    81  LEU81       0.2287
     39  O        -51.0500    7.8110  115.7620 O.2    81  LEU81      -0.2864
     40  CB       -48.0400    6.9570  114.8730 C.3    81  LEU81       0.0297
     41  CG       -47.3630    5.6840  114.3520 C.3    81  LEU81       0.0022
     42  CD1      -45.9320    5.5910  114.8320 C.3    81  LEU81       0.0001
     43  CD2      -48.1370    4.4480  114.7880 C.3    81  LEU81       0.0001
     44  N        -53.5720    7.3820  113.8810 N.3    84  TYR84      -0.1241
     45  CA       -54.0280    6.0620  114.3130 C.3    84  TYR84       0.1605
     46  C        -54.5250    6.0870  115.7530 C.2    84  TYR84       0.2264
     47  O        -55.5370    5.4540  116.0780 O.2    84  TYR84      -0.2867
     48  CB       -52.9130    5.0320  114.1620 C.3    84  TYR84       0.0534
     49  CG       -52.4410    4.8250  112.7440 C.ar   84  TYR84      -0.0201
     50  CD1      -53.1890    5.2660  111.6550 C.ar   84  TYR84      -0.0009
     51  CD2      -51.2440    4.1860  112.4950 C.ar   84  TYR84      -0.0009
     52  CE1      -52.7450    5.0710  110.3600 C.ar   84  TYR84       0.0417
     53  CE2      -50.7970    3.9890  111.2220 C.ar   84  TYR84       0.0417
     54  CZ       -51.5430    4.4280  110.1510 C.ar   84  TYR84       0.1957
     55  OH       -51.0760    4.2200  108.8730 O.3    84  TYR84      -0.2866
     56  N        -40.8310    6.9940  118.3220 N.3    95  LEU95      -0.1245
     57  CA       -40.8970    5.8210  117.4610 C.3    95  LEU95       0.1561
     58  C        -39.5170    5.1880  117.4310 C.2    95  LEU95       0.2260
     59  O        -38.5390    5.8460  117.0610 O.2    95  LEU95      -0.2867
     60  CB       -41.3610    6.1850  116.0470 C.3    95  LEU95       0.0270
     61  CG       -41.4440    5.0320  115.0410 C.3    95  LEU95       0.0019
     62  CD1      -42.3740    3.9250  115.5350 C.3    95  LEU95       0.0001
     63  CD2      -41.9040    5.5380  113.6880 C.3    95  LEU95       0.0001
     64  N        -40.7290   -2.7810  116.0910 N.3   116  PHE116     -0.1241
     65  CA       -41.0450   -1.3670  116.2100 C.3   116  PHE116      0.1605
     66  C        -41.7570   -1.1230  117.5300 C.2   116  PHE116      0.2264
     67  O        -42.4060   -2.0170  118.0800 O.2   116  PHE116     -0.2867
     68  CB       -41.9250   -0.8760  115.0480 C.3   116  PHE116      0.0534
     69  CG       -41.2240   -0.8530  113.7200 C.ar  116  PHE116     -0.0203
     70  CD1      -41.2340   -1.9650  112.8960 C.ar  116  PHE116     -0.0042
     71  CD2      -40.5600    0.2840  113.2920 C.ar  116  PHE116     -0.0042
     72  CE1      -40.5910   -1.9440  111.6710 C.ar  116  PHE116     -0.0003
     73  CE2      -39.9150    0.3080  112.0690 C.ar  116  PHE116     -0.0003
     74  CZ       -39.9310   -0.8070  111.2600 C.ar  116  PHE116     -0.0000
     75  N        -45.3290   -2.1320  119.1110 N.3   123  TYR123     -0.1241
     76  CA       -46.2910   -1.7590  118.0830 C.3   123  TYR123      0.1605
     77  C        -46.4630   -2.8440  117.0310 C.2   123  TYR123      0.2264
     78  O        -47.5880   -3.2860  116.7780 O.2   123  TYR123     -0.2867
     79  CB       -45.8740   -0.4430  117.4140 C.3   123  TYR123      0.0534
     80  CG       -46.8940    0.0550  116.4190 C.ar  123  TYR123     -0.0201
     81  CD1      -48.0710    0.6480  116.8500 C.ar  123  TYR123     -0.0009
     82  CD2      -46.6870   -0.0770  115.0530 C.ar  123  TYR123     -0.0009
     83  CE1      -49.0130    1.0980  115.9510 C.ar  123  TYR123      0.0417
     84  CE2      -47.6250    0.3710  114.1420 C.ar  123  TYR123      0.0417
     85  CZ       -48.7880    0.9580  114.5990 C.ar  123  TYR123      0.1957
     86  OH       -49.7310    1.4080  113.7050 O.3   123  TYR123     -0.2866
     87  N        -51.6330   -0.9510  110.2440 N.3   143  THR143     -0.1218
     88  CA       -50.3120   -1.1750  109.6660 C.3   143  THR143      0.1862
     89  C        -50.1670   -2.6120  109.1810 C.2   143  THR143      0.2287
     90  O        -49.7580   -2.8550  108.0410 O.2   143  THR143     -0.2866
     91  CB       -49.2250   -0.8460  110.6930 C.3   143  THR143      0.1770
     92  OG1      -49.3190    0.5340  111.0670 O.3   143  THR143     -0.2211
     93  CG2      -47.8290   -1.1210  110.1210 C.3   143  THR143      0.0375
     94  N        -51.8220   -3.2070  105.9120 N.3   146  LYS146     -0.1231
     95  CA       -51.1070   -2.5530  104.8200 C.3   146  LYS146      0.1693
     96  C        -49.8320   -3.3090  104.4700 C.2   146  LYS146      0.2592
     97  O        -49.5240   -3.5100  103.2890 O.2   146  LYS146     -0.2718
     98  CB       -50.7950   -1.1020  105.1960 C.3   146  LYS146      0.0285
     99  CG       -49.7590   -0.3930  104.3100 C.3   146  LYS146      0.0035
    100  CD       -50.3670    0.7550  103.5290 C.3   146  LYS146      0.0206
    101  CE       -49.3270    1.4010  102.6190 C.3   146  LYS146      0.1093
    102  NZ       -48.8380    0.4710  101.5600 N.3   146  LYS146     -0.1314
    103  N        -49.0780   -3.7400  105.4830 N.am  147  TRP147     -0.1976
    104  CA       -47.8140   -4.4200  105.2240 C.3   147  TRP147      0.1640
    105  C        -48.0370   -5.8170  104.6630 C.2   147  TRP147      0.2290
    106  O        -47.3030   -6.2560  103.7690 O.2   147  TRP147     -0.2864
    107  CB       -46.9880   -4.4800  106.5050 C.3   147  TRP147      0.0576
    108  CG       -46.3860   -3.1730  106.8670 C.ar  147  TRP147      0.0006
    109  CD1      -46.6470   -1.9620  106.2930 C.ar  147  TRP147      0.0946
    110  CD2      -45.4070   -2.9360  107.8800 C.ar  147  TRP147      0.0152
    111  NE1      -45.8940   -0.9850  106.8920 N.ar  147  TRP147     -0.2442
    112  CE2      -45.1240   -1.5570  107.8690 C.ar  147  TRP147      0.0810
    113  CE3      -44.7440   -3.7550  108.7990 C.ar  147  TRP147      0.0012
    114  CZ2      -44.2070   -0.9810  108.7320 C.ar  147  TRP147      0.0191
    115  CZ3      -43.8350   -3.1770  109.6600 C.ar  147  TRP147      0.0001
    116  CH2      -43.5760   -1.8020  109.6220 C.ar  147  TRP147      0.0015
@<TRIPOS>BOND
     1   102   101    1
     2   101   100    1
     3    97    96    2
     4   100    99    1
     5   106   105    2
     6    99    98    1
     7    96    95    1
     8    96   103   am
     9   105   104    1
    10    95    98    1
    11    95    94    1
    12   104   103    1
    13   104   107    1
    14     7     9   ar
    15     7     6   ar
    16    21    19    1
    17     9    10   ar
    18    20    19    1
    19   109   108   ar
    20   109   111   ar
    21     1     2    1
    22     6     5    1
    23     6     8   ar
    24   107   108    1
    25    19    16    1
    26     5     2    1
    27     2     3    1
    28   108   110   ar
    29   111   112   ar
    30    10     8   ar
    31    10    12   ar
    32    35    33   am
    33     8    11   ar
    34    34    33    2
    35   112   110   ar
    36   112   114   ar
    37   110   113   ar
    38    16    15    1
    39    16    17    1
    40    12    14   ar
    41    90    89    2
    42     3     4    2
    43    33    32    1
    44   114   116   ar
    45   113   115   ar
    46    55    54    1
    47    17    18    2
    48    17    22   am
    49    11    13   ar
    50    89    88    1
    51    14    13   ar
    52    22    23    1
    53    27    26    1
    54   116   115   ar
    55    32    29    1
    56    88    87    1
    57    88    91    1
    58    93    91    1
    59    54    52   ar
    60    54    53   ar
    61    23    26    1
    62    23    24    1
    63    52    50   ar
    64    29    28    1
    65    29    30    1
    66    91    92    1
    67    53    51   ar
    68    74    72   ar
    69    74    73   ar
    70    24    25    2
    71    50    49   ar
    72    72    70   ar
    73    30    31    2
    74    30    36   am
    75    73    71   ar
    76    51    49   ar
    77    49    48    1
    78    36    37    1
    79    70    69   ar
    80    71    69   ar
    81    63    61    1
    82    86    85    1
    83    69    68    1
    84    44    45    1
    85    84    85   ar
    86    84    82   ar
    87    37    40    1
    88    37    38    1
    89    48    45    1
    90    45    46    1
    91    41    43    1
    92    41    42    1
    93    41    40    1
    94    85    83   ar
    95    38    39    2
    96    61    62    1
    97    61    60    1
    98    68    65    1
    99    82    80   ar
   100    46    47    2
   101    83    81   ar
   102    60    57    1
   103    64    65    1
   104    65    66    1
   105    80    81   ar
   106    80    79    1
   107    78    77    2
   108    77    76    1
   109    59    58    2
   110    79    76    1
   111    58    57    1
   112    57    56    1
   113    66    67    2
   114    76    75    1
