@<TRIPOS>MOLECULE
tmp/6gbcA00.pdb
 139 132 0 0 0
SMALL
GASTEIGER

@<TRIPOS>ATOM
      1  N         25.2400    7.6600  -21.5950 N.3   182  SER182     -0.1202
      2  CA        25.6740    8.5510  -22.6900 C.3   182  SER182      0.2020
      3  C         24.9910    8.0850  -23.9420 C.2   182  SER182      0.2619
      4  O         24.6470    6.9060  -24.0660 O.2   182  SER182     -0.2717
      5  CB        27.1860    8.4860  -22.8800 C.3   182  SER182      0.2103
      6  OG        27.8470    9.2570  -21.8820 O.3   182  SER182     -0.2182
      7  N         24.8270    9.0000  -24.9160 N.am  183  THR183     -0.1952
      8  CA        24.2220    8.5990  -26.1870 C.3   183  THR183      0.1897
      9  C         25.1230    8.9890  -27.3360 C.2   183  THR183      0.2313
     10  O         25.7170   10.0660  -27.3210 O.2   183  THR183     -0.2863
     11  CB        22.8280    9.2250  -26.3770 C.3   183  THR183      0.1794
     12  OG1       22.9340   10.6250  -26.6140 O.3   183  THR183     -0.2208
     13  CG2       21.8770    8.9370  -25.2160 C.3   183  THR183      0.0378
     14  N         28.8750    8.0280  -32.3640 N.3   186  GLU186     -0.1231
     15  CA        30.2710    8.4610  -32.4650 C.3   186  GLU186      0.1699
     16  C         31.0860    8.0940  -31.2360 C.2   186  GLU186      0.2592
     17  O         32.2970    8.2190  -31.2740 O.2   186  GLU186     -0.2718
     18  CB        30.3740    9.9880  -32.7800 C.3   186  GLU186      0.0402
     19  CG        30.1510   10.9990  -31.6520 C.3   186  GLU186      0.1161
     20  CD        28.7480   11.1770  -31.1220 C.2   186  GLU186      0.3649
     21  OE1       27.8820   10.3400  -31.4460 O.co2 186  GLU186     -0.2457
     22  OE2       28.5040   12.1660  -30.3960 O.co2 186  GLU186     -0.2457
     23  N         30.4390    7.6910  -30.1230 N.am  187  LEU187     -0.1980
     24  CA        31.1840    7.4500  -28.8930 C.3   187  LEU187      0.1596
     25  C         31.8720    6.1350  -28.8470 C.2   187  LEU187      0.2287
     26  O         31.3250    5.1290  -29.3030 O.2   187  LEU187     -0.2864
     27  CB        30.2410    7.5280  -27.6810 C.3   187  LEU187      0.0297
     28  CG        29.4180    8.8020  -27.5510 C.3   187  LEU187      0.0022
     29  CD1       28.5230    8.7230  -26.3320 C.3   187  LEU187      0.0001
     30  CD2       30.3150   10.0400  -27.4900 C.3   187  LEU187      0.0001
     31  N         34.9240    9.6100  -30.9750 N.3   200  ILE200     -0.1231
     32  CA        35.4870   10.3540  -29.8420 C.3   200  ILE200      0.1692
     33  C         35.2790    9.4870  -28.6080 C.2   200  ILE200      0.2592
     34  O         34.3100    8.7180  -28.5540 O.2   200  ILE200     -0.2718
     35  CB        34.7990   11.7220  -29.6200 C.3   200  ILE200      0.0266
     36  CG1       33.2680   11.5800  -29.4080 C.3   200  ILE200      0.0019
     37  CG2       35.0890   12.6280  -30.7970 C.3   200  ILE200      0.0020
     38  CD1       32.5970   12.8370  -28.8660 C.3   200  ILE200      0.0001
     39  N         36.0800    9.7020  -27.5710 N.am  201  ARG201     -0.1966
     40  CA        35.8440    8.9570  -26.3200 C.3   201  ARG201      0.1729
     41  C         34.6490    9.5520  -25.5840 C.2   201  ARG201      0.2616
     42  O         34.4550   10.7750  -25.5570 O.2   201  ARG201     -0.2715
     43  CB        37.0960    8.9910  -25.4160 C.3   201  ARG201      0.0348
     44  CG        38.2580    8.2730  -26.0810 C.3   201  ARG201      0.0492
     45  CD        39.4920    8.1460  -25.1870 C.3   201  ARG201      0.2205
     46  NE        40.6000    7.6490  -26.0160 N.pl3 201  ARG201     -0.0865
     47  CZ        41.3780    8.4050  -26.7900 C.cat 201  ARG201      0.5346
     48  NH1       41.2550    9.7310  -26.7800 N.pl3 201  ARG201      0.1354
     49  NH2       42.2970    7.8420  -27.5700 N.pl3 201  ARG201      0.1354
     50  N         33.8320    8.6920  -24.9750 N.am  202  ASP202     -0.1957
     51  CA        32.7390    9.1420  -24.1280 C.3   202  ASP202      0.1840
     52  C         33.3830    9.8040  -22.8670 C.2   202  ASP202      0.2623
     53  O         34.0050    9.1130  -22.0540 O.2   202  ASP202     -0.2715
     54  CB        31.9450    7.9160  -23.6850 C.3   202  ASP202      0.1450
     55  CG        30.8110    8.1400  -22.7190 C.2   202  ASP202      0.3671
     56  OD1       30.4990    9.3100  -22.4250 O.co2 202  ASP202     -0.2456
     57  OD2       30.2190    7.1430  -22.2730 O.co2 202  ASP202     -0.2456
     58  N         33.3030   11.1340  -22.7580 N.am  203  SER203     -0.1936
     59  CA        33.8390   11.8290  -21.5900 C.3   203  SER203      0.2055
     60  C         32.6890   12.2610  -20.6440 C.2   203  SER203      0.2643
     61  O         32.9230   12.3940  -19.4500 O.2   203  SER203     -0.2714
     62  CB        34.6660   13.0460  -21.9980 C.3   203  SER203      0.2130
     63  OG        33.8720   13.9870  -22.7000 O.3   203  SER203     -0.2179
     64  N         31.4770   12.5090  -21.1580 N.am  204  ASN204     -0.1971
     65  CA        30.3880   12.9910  -20.2790 C.3   204  ASN204      0.1688
     66  C         30.0180   12.0030  -19.2120 C.2   204  ASN204      0.2292
     67  O         29.6670   12.4110  -18.1050 O.2   204  ASN204     -0.2864
     68  CB        29.1090   13.2880  -21.0810 C.3   204  ASN204      0.1181
     69  CG        29.1980   14.5030  -21.9600 C.2   204  ASN204      0.2629
     70  OD1       30.1360   15.2820  -21.8670 O.2   204  ASN204     -0.2716
     71  ND2       28.2180   14.6780  -22.8290 N.am  204  ASN204     -0.0877
     72  N         22.3320    5.7120  -31.1780 N.3   227  ASP227     -0.1239
     73  CA        21.2540    6.5950  -31.6860 C.3   227  ASP227      0.1674
     74  C         20.2070    5.7390  -32.3940 C.2   227  ASP227      0.2266
     75  O         20.0640    5.7750  -33.6130 O.2   227  ASP227     -0.2867
     76  CB        21.8420    7.6840  -32.5980 C.3   227  ASP227      0.1410
     77  CG        22.8490    8.5490  -31.8590 C.2   227  ASP227      0.3668
     78  OD1       22.5820    8.9030  -30.6870 O.co2 227  ASP227     -0.2456
     79  OD2       23.9050    8.8580  -32.4450 O.co2 227  ASP227     -0.2456
     80  N         22.9700   12.2010  -21.5630 N.3   250  SER250     -0.1202
     81  CA        23.5730   13.3490  -22.2480 C.3   250  SER250      0.2020
     82  C         23.5270   13.0800  -23.7520 C.2   250  SER250      0.2619
     83  O         23.5030   11.9220  -24.1630 O.2   250  SER250     -0.2717
     84  CB        24.9710   13.6770  -21.7380 C.3   250  SER250      0.2103
     85  OG        25.9890   12.8250  -22.2370 O.3   250  SER250     -0.2182
     86  N         23.4080   14.1430  -24.5560 N.am  251  GLY251     -0.1942
     87  CA        23.3250   14.0440  -26.0110 C.3   251  GLY251      0.2014
     88  C         21.9570   13.5550  -26.4570 C.2   251  GLY251      0.2639
     89  O         21.0760   13.3230  -25.6260 O.2   251  GLY251     -0.2714
     90  N         21.7540   13.4150  -27.7710 N.am  252  GLY252     -0.1939
     91  CA        20.4800   12.9350  -28.2940 C.3   252  GLY252      0.2014
     92  C         19.3070   13.8580  -28.0370 C.2   252  GLY252      0.2639
     93  O         18.1540   13.4110  -28.0970 O.2   252  GLY252     -0.2714
     94  N         19.5880   15.1480  -27.7330 N.am  253  VAL253     -0.1963
     95  CA        18.5680   16.1520  -27.3720 C.3   253  VAL253      0.1727
     96  C         18.6380   17.3900  -28.2390 C.2   253  VAL253      0.2616
     97  O         17.9840   18.3630  -27.8760 O.2   253  VAL253     -0.2715
     98  CB        18.6470   16.6080  -25.8670 C.3   253  VAL253      0.0290
     99  CG1       17.9650   15.6250  -24.9480 C.3   253  VAL253      0.0023
    100  CG2       20.0760   16.9010  -25.4300 C.3   253  VAL253      0.0023
    101  N         19.4140   17.4130  -29.3420 N.am  254  SER254     -0.1950
    102  CA        19.4850   18.6320  -30.1540 C.3   254  SER254      0.1924
    103  C         18.4480   18.4940  -31.2880 C.2   254  SER254      0.2314
    104  O         17.3540   17.9680  -31.0490 O.2   254  SER254     -0.2863
    105  CB        20.9010   18.8570  -30.6910 C.3   254  SER254      0.2116
    106  OG        21.8960   18.8280  -29.6820 O.3   254  SER254     -0.2180
    107  N         18.0160   12.0350  -32.7060 N.3   259  ASP259     -0.1239
    108  CA        18.0340   12.5140  -31.3100 C.3   259  ASP259      0.1674
    109  C         16.6950   12.0570  -30.7210 C.2   259  ASP259      0.2266
    110  O         15.6680   12.6410  -31.0200 O.2   259  ASP259     -0.2867
    111  CB        18.2040   14.0560  -31.2950 C.3   259  ASP259      0.1410
    112  CG        19.6420   14.4860  -31.5830 C.2   259  ASP259      0.3668
    113  OD1       20.5240   13.6070  -31.6560 O.co2 259  ASP259     -0.2456
    114  OD2       19.8810   15.6930  -31.7360 O.co2 259  ASP259     -0.2456
    115  N         24.5810   17.3270  -24.9930 N.3   304  GLY304     -0.1210
    116  CA        25.7470   16.4850  -25.2880 C.3   304  GLY304      0.1956
    117  C         27.0680   17.2340  -25.1950 C.2   304  GLY304      0.2612
    118  O         28.0990   16.6390  -24.8640 O.2   304  GLY304     -0.2717
    119  N         27.0830   18.5250  -25.5610 N.am  305  ASN305     -0.1960
    120  CA        28.3390   19.2880  -25.4740 C.3   305  ASN305      0.1804
    121  C         28.9280   19.2100  -24.0490 C.2   305  ASN305      0.2463
    122  O         28.1940   19.4930  -23.0950 O.2   305  ASN305     -0.2730
    123  CB        28.1340   20.7300  -25.8950 C.3   305  ASN305      0.1195
    124  CG        28.1670   20.8780  -27.4000 C.2   305  ASN305      0.2630
    125  OD1       29.1500   20.4850  -28.0760 O.2   305  ASN305     -0.2716
    126  ND2       27.1290   21.4500  -27.9550 N.am  305  ASN305     -0.0877
    127  N         30.1830   18.7240  -23.8680 N.am  306  PRO306     -0.2727
    128  CA        30.7300   18.5440  -22.4950 C.3   306  PRO306      0.1402
    129  C         30.5420   19.6990  -21.5140 C.2   306  PRO306      0.2269
    130  O         30.1350   19.4640  -20.4040 O.2   306  PRO306     -0.2865
    131  CB        32.2130   18.2900  -22.7620 C.3   306  PRO306      0.0296
    132  CG        32.2010   17.5240  -24.0460 C.3   306  PRO306      0.0237
    133  CD        31.1520   18.2390  -24.8790 C.3   306  PRO306      0.0939
    134  N         31.8970   23.0630  -26.6250 N.3   381  SER381     -0.1217
    135  CA        32.6300   21.8370  -26.9030 C.3   381  SER381      0.1889
    136  C         33.9870   21.7890  -26.1670 C.2   381  SER381      0.2288
    137  O         34.6900   20.7730  -26.2540 O.2   381  SER381     -0.2866
    138  CB        32.8850   21.7450  -28.4090 C.3   381  SER381      0.2089
    139  OG        33.4980   22.9310  -28.8890 O.3   381  SER381     -0.2183
@<TRIPOS>BOND
     1    75    74    2
     2    18    15    1
     3    18    19    1
     4   107   108    1
     5    76    77    1
     6    76    73    1
     7    15    14    1
     8    15    16    1
     9    79    77   ar
    10    74    73    1
    11    77    78   ar
    12   114   112   ar
    13    73    72    1
    14   113   112   ar
    15    19    20    1
    16   112   111    1
    17    21    20   ar
    18   108   111    1
    19   108   109    1
    20   103   104    2
    21   103   102    1
    22    17    16    2
    23    16    23   am
    24    20    22   ar
    25   110   109    2
    26    31    32    1
    27    37    35    1
    28   105   102    1
    29   105   106    1
    30   102   101    1
    31    23    24    1
    32    32    35    1
    33    32    33    1
    34    35    36    1
    35    36    38    1
    36   101    96   am
    37    26    25    2
    38    24    25    1
    39    24    27    1
    40   139   138    1
    41    33    34    2
    42    33    39   am
    43   138   135    1
    44    91    92    1
    45    91    90    1
    46    96    97    2
    47    96    95    1
    48    93    92    2
    49   125   124    2
    50    92    94   am
    51   126   124   am
    52    90    88   am
    53    94    95    1
    54    27    28    1
    55    39    40    1
    56    49    47    1
    57    28    30    1
    58    28    29    1
    59   124   123    1
    60    95    98    1
    61     9    10    2
    62     9     8    1
    63   135   134    1
    64   135   136    1
    65    47    48    1
    66    47    46    2
    67    12    11    1
    68    88    87    1
    69    88    89    2
    70    11     8    1
    71    11    13    1
    72    40    41    1
    73    40    43    1
    74   137   136    2
    75     8     7    1
    76    44    43    1
    77    44    45    1
    78    46    45    1
    79    87    86    1
    80   123   120    1
    81    98   100    1
    82    98    99    1
    83    41    42    2
    84    41    50   am
    85   119   120    1
    86   119   117   am
    87   120   121    1
    88   116   117    1
    89   116   115    1
    90   117   118    2
    91    50    51    1
    92     7     3   am
    93   133   132    1
    94   133   127    1
    95    86    82   am
    96    83    82    2
    97    51    54    1
    98    51    52    1
    99     4     3    2
   100   121   127   am
   101   121   122    2
   102   132   131    1
   103     3     2    1
   104   127   128    1
   105    82    81    1
   106    54    55    1
   107     5     2    1
   108     5     6    1
   109    52    58   am
   110    52    53    2
   111    71    69   am
   112   131   128    1
   113    58    59    1
   114    55    56   ar
   115    55    57   ar
   116    63    62    1
   117     2     1    1
   118   128   129    1
   119    81    84    1
   120    81    80    1
   121    85    84    1
   122    62    59    1
   123    69    70    2
   124    69    68    1
   125    59    60    1
   126   129   130    2
   127    64    60   am
   128    64    65    1
   129    68    65    1
   130    60    61    2
   131    65    66    1
   132    66    67    2
