@<TRIPOS>MOLECULE
tmp/6gbnB01.pdb
 164 155 0 0 0
SMALL
GASTEIGER

@<TRIPOS>ATOM
      1  N         22.5810    2.5670   34.1860 N.3    55  LEU55      -0.1231
      2  CA        21.7010    2.1570   33.0960 C.3    55  LEU55       0.1693
      3  C         20.3640    1.7730   33.7070 C.2    55  LEU55       0.2592
      4  O         20.3350    1.0000   34.6520 O.2    55  LEU55      -0.2718
      5  CB        22.2940    0.9550   32.3430 C.3    55  LEU55       0.0284
      6  CG        21.7690    0.7220   30.9240 C.3    55  LEU55       0.0019
      7  CD1       22.7360   -0.1370   30.1200 C.3    55  LEU55       0.0001
      8  CD2       20.3920    0.0810   30.9410 C.3    55  LEU55       0.0001
      9  N         19.2980    2.3620   33.1710 N.am   56  HIS56      -0.1976
     10  CA        17.9050    2.1070   33.5810 C.3    56  HIS56       0.1656
     11  C         17.7090    0.7580   34.2500 C.2    56  HIS56       0.2291
     12  O         17.8990   -0.2690   33.6170 O.2    56  HIS56      -0.2864
     13  CB        16.9470    2.1810   32.3710 C.3    56  HIS56       0.0771
     14  CG        17.1650    3.3750   31.5060 C.ar   56  HIS56       0.0820
     15  ND1       16.8090    4.6380   31.8890 N.ar   56  HIS56      -0.2267
     16  CD2       17.7590    3.4980   30.3000 C.ar   56  HIS56       0.1154
     17  CE1       17.1290    5.4940   30.9380 C.ar   56  HIS56       0.1986
     18  NE2       17.7210    4.8220   29.9690 N.ar   56  HIS56      -0.2212
     19  N         15.7830   -1.8040   34.9100 N.3    58  THR58      -0.1218
     20  CA        14.5850   -2.5390   34.4780 C.3    58  THR58       0.1862
     21  C         14.7450   -4.0430   34.6290 C.2    58  THR58       0.2287
     22  O         15.8340   -4.5390   34.9410 O.2    58  THR58      -0.2866
     23  CB        14.3100   -2.2660   32.9860 C.3    58  THR58       0.1770
     24  OG1       15.3610   -2.8160   32.1990 O.3    58  THR58      -0.2211
     25  CG2       14.2170   -0.7580   32.7210 C.3    58  THR58       0.0375
     26  N         14.8800   -5.9260   32.1560 N.3    60  GLN60      -0.1231
     27  CA        15.7940   -6.2600   31.0720 C.3    60  GLN60       0.1698
     28  C         17.2260   -6.1120   31.5310 C.2    60  GLN60       0.2592
     29  O         18.0770   -6.9710   31.2790 O.2    60  GLN60      -0.2718
     30  CB        15.5080   -5.3940   29.8280 C.3    60  GLN60       0.0381
     31  CG        14.1450   -5.6850   29.1730 C.3    60  GLN60       0.0905
     32  CD        12.9640   -5.2790   30.0360 C.2    60  GLN60       0.2608
     33  OE1       12.9270   -4.1730   30.5630 O.2    60  GLN60      -0.2717
     34  NE2       11.9930   -6.1910   30.2090 N.am   60  GLN60      -0.0878
     35  N         17.4760   -5.0220   32.2440 N.am   61  THR61      -0.1953
     36  CA        18.7920   -4.7420   32.8130 C.3    61  THR61       0.1897
     37  C         19.1680   -5.8040   33.8650 C.2    61  THR61       0.2313
     38  O         20.3300   -6.1790   33.9740 O.2    61  THR61      -0.2863
     39  CB        18.8250   -3.3180   33.3800 C.3    61  THR61       0.1794
     40  OG1       18.6720   -2.3940   32.2960 O.3    61  THR61      -0.2208
     41  CG2       20.1370   -2.9930   34.1150 C.3    61  THR61       0.0378
     42  N         25.2530    4.5920   30.2320 N.3   134  ASP134     -0.1239
     43  CA        24.1270    4.9180   29.3480 C.3   134  ASP134      0.1674
     44  C         23.7930    6.3810   29.5790 C.2   134  ASP134      0.2266
     45  O         23.0040    6.7200   30.4490 O.2   134  ASP134     -0.2867
     46  CB        22.9290    4.0130   29.6420 C.3   134  ASP134      0.1410
     47  CG        21.7110    4.2860   28.7610 C.2   134  ASP134      0.3668
     48  OD1       21.5490    5.3380   28.1600 O.co2 134  ASP134     -0.2456
     49  OD2       20.8380    3.4050   28.6940 O.co2 134  ASP134     -0.2456
     50  N         26.0710    3.0870   25.8020 N.3   159  GLU159     -0.1231
     51  CA        24.8350    2.5320   25.2580 C.3   159  GLU159      0.1699
     52  C         24.1410    3.4690   24.2470 C.2   159  GLU159      0.2592
     53  O         23.5200    2.9890   23.3060 O.2   159  GLU159     -0.2718
     54  CB        23.8920    2.2310   26.4370 C.3   159  GLU159      0.0402
     55  CG        22.4530    1.7890   26.1460 C.3   159  GLU159      0.1161
     56  CD        22.2720    0.2810   25.9510 C.2   159  GLU159      0.3649
     57  OE1       23.2340   -0.4910   26.2710 O.co2 159  GLU159     -0.2457
     58  OE2       21.1760   -0.1270   25.4450 O.co2 159  GLU159     -0.2457
     59  N         24.1940    4.7800   24.4340 N.am  160  THR160     -0.1953
     60  CA        23.2000    5.6380   23.7470 C.3   160  THR160      0.1897
     61  C         23.7880    6.8490   22.9950 C.2   160  THR160      0.2313
     62  O         24.8910    7.3500   23.3140 O.2   160  THR160     -0.2863
     63  CB        22.0260    6.0530   24.7080 C.3   160  THR160      0.1794
     64  OG1       20.8240    6.3030   23.9280 O.3   160  THR160     -0.2208
     65  CG2       22.4390    7.2740   25.5990 C.3   160  THR160      0.0378
     66  N         22.1640   -2.5630   17.3300 N.3   189  LYS189     -0.1245
     67  CA        21.5960   -1.6650   18.3440 C.3   189  LYS189      0.1561
     68  C         20.8250   -0.5340   17.7130 C.2   189  LYS189      0.2260
     69  O         19.6100   -0.5360   17.8090 O.2   189  LYS189     -0.2867
     70  CB        22.7020   -1.1840   19.3090 C.3   189  LYS189      0.0271
     71  CG        22.2260   -0.7080   20.6770 C.3   189  LYS189      0.0035
     72  CD        21.5870    0.6700   20.5890 C.3   189  LYS189      0.0206
     73  CE        21.2420    1.2140   21.9630 C.3   189  LYS189      0.1093
     74  NZ        20.7510    2.6390   21.9150 N.3   189  LYS189     -0.1314
     75  N         17.0450   -1.3110   18.4430 N.3   193  ASP193     -0.1225
     76  CA        16.6760   -0.7180   19.7200 C.3   193  ASP193      0.1805
     77  C         16.0420    0.6740   19.5250 C.2   193  ASP193      0.2597
     78  O         14.9210    0.8990   19.9360 O.2   193  ASP193     -0.2718
     79  CB        17.9440   -0.6230   20.5740 C.3   193  ASP193      0.1424
     80  CG        17.7340    0.0930   21.9190 C.2   193  ASP193      0.3668
     81  OD1       17.0900    1.1790   21.9990 O.co2 193  ASP193     -0.2456
     82  OD2       18.3020   -0.4260   22.8880 O.co2 193  ASP193     -0.2456
     83  N         16.7660    1.5880   18.9050 N.am  194  ASN194     -0.1974
     84  CA        16.2880    2.9850   18.8170 C.3   194  ASN194      0.1688
     85  C         15.0190    3.0610   17.9810 C.2   194  ASN194      0.2292
     86  O         14.0930    3.7630   18.3210 O.2   194  ASN194     -0.2864
     87  CB        17.3490    3.9300   18.2130 C.3   194  ASN194      0.1181
     88  CG        18.6490    3.9330   18.9770 C.2   194  ASN194      0.2629
     89  OD1       19.0550    2.9150   19.5730 O.2   194  ASN194     -0.2716
     90  ND2       19.3260    5.0680   18.9690 N.am  194  ASN194     -0.0877
     91  N         17.1510   11.3300   25.1970 N.3   304  HIS304     -0.1241
     92  CA        17.7620   10.9300   26.4830 C.3   304  HIS304      0.1621
     93  C         17.6230   11.9300   27.6910 C.2   304  HIS304      0.2264
     94  O         17.4760   11.4700   28.8680 O.2   304  HIS304     -0.2867
     95  CB        19.2330   10.4550   26.3100 C.3   304  HIS304      0.0745
     96  CG        19.8600    9.9540   27.5840 C.ar  304  HIS304      0.0817
     97  ND1       19.5130    8.7400   28.1500 N.ar  304  HIS304     -0.2268
     98  CD2       20.7530   10.5270   28.4330 C.ar  304  HIS304      0.1154
     99  CE1       20.1900    8.5790   29.2750 C.ar  304  HIS304      0.1986
    100  NE2       20.9460    9.6470   29.4730 N.ar  304  HIS304     -0.2212
    101  N         12.5800   10.8000   29.7460 N.3   347  LEU347     -0.1245
    102  CA        12.2920    9.6780   28.8480 C.3   347  LEU347      0.1561
    103  C         10.9310    9.0490   29.1370 C.2   347  LEU347      0.2260
    104  O         10.7450    8.4040   30.1730 O.2   347  LEU347     -0.2867
    105  CB        13.3340    8.5560   28.9830 C.3   347  LEU347      0.0270
    106  CG        14.6540    8.7390   28.2910 C.3   347  LEU347      0.0019
    107  CD1       15.4320    9.6930   29.0430 C.3   347  LEU347      0.0001
    108  CD2       15.4620    7.4730   28.3150 C.3   347  LEU347      0.0001
    109  N          9.0400    6.6840   27.5590 N.3   349  ASN349     -0.1225
    110  CA         8.8180    5.2390   27.4240 C.3   349  ASN349      0.1785
    111  C          9.1870    4.5000   28.7250 C.2   349  ASN349      0.2597
    112  O          8.4450    3.6370   29.1800 O.2   349  ASN349     -0.2718
    113  CB         9.5110    4.6290   26.1880 C.3   349  ASN349      0.1169
    114  CG        11.0110    4.7730   26.1980 C.2   349  ASN349      0.2627
    115  OD1       11.5600    5.7400   26.7510 O.2   349  ASN349     -0.2716
    116  ND2       11.7080    3.8280   25.5770 N.am  349  ASN349     -0.0877
    117  N         10.2990    4.8880   29.3230 N.am  350  LEU350     -0.1980
    118  CA        10.7610    4.3300   30.5890 C.3   350  LEU350      0.1596
    119  C         10.0770    4.9380   31.8150 C.2   350  LEU350      0.2287
    120  O          9.8620    4.2610   32.8090 O.2   350  LEU350     -0.2864
    121  CB        12.2890    4.4790   30.7000 C.3   350  LEU350      0.0297
    122  CG        13.0340    3.4710   29.8100 C.3   350  LEU350      0.0022
    123  CD1       14.3440    3.9950   29.2770 C.3   350  LEU350      0.0001
    124  CD2       13.2280    2.1540   30.5410 C.3   350  LEU350      0.0001
    125  N          7.4040    0.7540   30.6540 N.3   354  THR354     -0.1203
    126  CA         8.5140   -0.0880   31.0810 C.3   354  THR354      0.1994
    127  C          9.6610   -0.0680   30.0890 C.2   354  THR354      0.2618
    128  O         10.5210   -0.9680   30.1000 O.2   354  THR354     -0.2717
    129  CB         8.0400   -1.5490   31.2660 C.3   354  THR354      0.1784
    130  OG1        7.6630   -2.0760   29.9860 O.3   354  THR354     -0.2211
    131  CG2        6.9290   -1.6690   32.2670 C.3   354  THR354      0.0376
    132  N          9.7040    0.9570   29.2250 N.am  355  GLY355     -0.1942
    133  CA        10.7000    0.9840   28.1540 C.3   355  GLY355      0.2014
    134  C         10.5690   -0.1630   27.1370 C.2   355  GLY355      0.2638
    135  O          9.5080   -0.7870   26.9980 O.2   355  GLY355     -0.2714
    136  N         11.6530   -0.3960   26.4030 N.am  356  HIS356     -0.1973
    137  CA        11.6360   -1.3300   25.2880 C.3   356  HIS356      0.1656
    138  C         11.4150   -2.7340   25.8050 C.2   356  HIS356      0.2291
    139  O         11.8040   -3.0300   26.9370 O.2   356  HIS356     -0.2864
    140  CB        12.9490   -1.3420   24.5380 C.3   356  HIS356      0.0771
    141  CG        13.3140   -0.0490   23.8940 C.ar  356  HIS356      0.0820
    142  ND1       12.4700    1.0470   23.8150 N.ar  356  HIS356     -0.2267
    143  CD2       14.4660    0.3300   23.3140 C.ar  356  HIS356      0.1154
    144  CE1       13.0860    2.0290   23.1830 C.ar  356  HIS356      0.1986
    145  NE2       14.3010    1.6250   22.8730 N.ar  356  HIS356     -0.2212
    146  N         16.0100   -5.4830   23.6610 N.3   361  MET361     -0.1245
    147  CA        17.0910   -5.2000   24.5890 C.3   361  MET361      0.1570
    148  C         18.1360   -6.3250   24.6200 C.2   361  MET361      0.2261
    149  O         19.2920   -6.0780   24.9510 O.2   361  MET361     -0.2867
    150  CB        16.5580   -4.9260   25.9950 C.3   361  MET361      0.0387
    151  CG        15.6840   -3.6880   26.0860 C.3   361  MET361      0.0595
    152  SD        16.4020   -2.2120   25.3050 S.3   361  MET361     -0.1393
    153  CE        17.9310   -2.0500   26.1940 C.3   361  MET361      0.0692
    154  N         22.0170   -5.4680   24.7490 N.3   365  PHE365     -0.1241
    155  CA        22.7600   -5.9570   25.8970 C.3   365  PHE365      0.1605
    156  C         23.7440   -7.0770   25.5400 C.2   365  PHE365      0.2264
    157  O         24.7800   -7.2050   26.2060 O.2   365  PHE365     -0.2867
    158  CB        21.7970   -6.3800   27.0100 C.3   365  PHE365      0.0534
    159  CG        21.0460   -5.2440   27.6400 C.ar  365  PHE365     -0.0203
    160  CD1       21.4260   -3.8950   27.4620 C.ar  365  PHE365     -0.0042
    161  CD2       19.9660   -5.5120   28.4750 C.ar  365  PHE365     -0.0042
    162  CE1       20.7160   -2.8630   28.1050 C.ar  365  PHE365     -0.0003
    163  CE2       19.2630   -4.4730   29.0920 C.ar  365  PHE365     -0.0003
    164  CZ        19.6490   -3.1680   28.9120 C.ar  365  PHE365     -0.0000
@<TRIPOS>BOND
     1    66    67    1
     2    68    69    2
     3    68    67    1
     4    85    86    2
     5    85    84    1
     6    87    84    1
     7    87    88    1
     8    67    70    1
     9    75    76    1
    10    84    83    1
    11    83    77   am
    12    90    88   am
    13    88    89    2
    14    70    71    1
    15    77    76    1
    16    77    78    2
    17    76    79    1
    18    79    80    1
    19    72    71    1
    20    72    73    1
    21    74    73    1
    22    80    81   ar
    23    80    82   ar
    24   145   144   ar
    25   145   143   ar
    26    61    62    2
    27    61    60    1
    28   144   142   ar
    29    53    52    2
    30   143   141   ar
    31   146   147    1
    32    60    59    1
    33    60    63    1
    34   142   141   ar
    35   141   140    1
    36    64    63    1
    37    52    59   am
    38    52    51    1
    39   140   137    1
    40   147   148    1
    41   147   150    1
    42   148   149    2
    43    63    65    1
    44   154   155    1
    45    91    92    1
    46    51    50    1
    47    51    54    1
    48   137   138    1
    49   137   136    1
    50   152   151    1
    51   152   153    1
    52    58    56   ar
    53   156   155    1
    54   156   157    2
    55   116   114   am
    56   138   139    2
    57   155   158    1
    58    56    55    1
    59    56    57   ar
    60   150   151    1
    61    55    54    1
    62   113   114    1
    63   113   110    1
    64   114   115    2
    65    95    92    1
    66    95    96    1
    67   136   134   am
    68    92    93    1
    69   135   134    2
    70   158   159    1
    71   134   133    1
    72   110   109    1
    73   110   111    1
    74   160   159   ar
    75   160   162   ar
    76    96    97   ar
    77    96    98   ar
    78   159   161   ar
    79    93    94    2
    80   162   164   ar
    81    97    99   ar
    82   133   132    1
    83    48    47   ar
    84   106   108    1
    85   106   105    1
    86   106   107    1
    87    98   100   ar
    88   161   163   ar
    89    49    47   ar
    90   111   112    2
    91   111   117   am
    92    47    46    1
    93   102   105    1
    94   102   103    1
    95   102   101    1
    96   164   163   ar
    97   103   104    2
    98    31    30    1
    99    31    32    1
   100   132   127   am
   101    99   100   ar
   102   123   122    1
   103   117   118    1
   104    43    44    1
   105    43    46    1
   106    43    42    1
   107    44    45    2
   108   122   124    1
   109   122   121    1
   110    30    27    1
   111    18    16   ar
   112    18    17   ar
   113   130   129    1
   114    32    34   am
   115    32    33    2
   116   127   128    2
   117   127   126    1
   118     7     6    1
   119    16    14   ar
   120   118   121    1
   121   118   119    1
   122   125   126    1
   123     6     8    1
   124     6     5    1
   125    17    15   ar
   126    27    28    1
   127    27    26    1
   128   126   129    1
   129   129   131    1
   130    29    28    2
   131    14    15   ar
   132    14    13    1
   133    28    35   am
   134   119   120    2
   135    24    23    1
   136    35    36    1
   137    40    39    1
   138     5     2    1
   139    13    10    1
   140    25    23    1
   141    36    39    1
   142    36    37    1
   143    23    20    1
   144     2     3    1
   145     2     1    1
   146     9    10    1
   147     9     3   am
   148    39    41    1
   149    10    11    1
   150    12    11    2
   151     3     4    2
   152    37    38    2
   153    20    21    1
   154    20    19    1
   155    21    22    2
