@<TRIPOS>MOLECULE
tmp/6gbxC00.pdb
 138 135 0 0 0
SMALL
GASTEIGER

@<TRIPOS>ATOM
      1  N         24.8080   52.7380   35.5340 N.3   111  LYS111     -0.1245
      2  CA        25.5050   52.9290   36.8100 C.3   111  LYS111      0.1561
      3  C         25.5710   54.4100   37.2110 C.2   111  LYS111      0.2260
      4  O         25.8470   55.2710   36.3890 O.2   111  LYS111     -0.2867
      5  CB        26.9300   52.3910   36.7310 C.3   111  LYS111      0.0271
      6  CG        27.6780   52.3030   38.0460 C.3   111  LYS111      0.0035
      7  CD        28.9790   51.5320   37.9480 C.3   111  LYS111      0.0206
      8  CE        29.7600   51.5810   39.2430 C.3   111  LYS111      0.1093
      9  NZ        29.0860   50.8190   40.3300 N.3   111  LYS111     -0.1314
     10  N         26.6670   49.2020   28.0410 N.3   126  ASP126     -0.1239
     11  CA        26.4100   48.6850   29.3760 C.3   126  ASP126      0.1674
     12  C         25.1210   49.3110   29.9320 C.2   126  ASP126      0.2266
     13  O         25.2340   50.1050   30.8470 O.2   126  ASP126     -0.2867
     14  CB        27.5780   49.0670   30.2900 C.3   126  ASP126      0.1410
     15  CG        27.6120   48.4250   31.6590 C.2   126  ASP126      0.3668
     16  OD1       26.7070   47.5930   31.9790 O.co2 126  ASP126     -0.2456
     17  OD2       28.5610   48.7720   32.4360 O.co2 126  ASP126     -0.2456
     18  N         20.6810   46.4810   37.8790 N.3   168  GLU168     -0.1231
     19  CA        21.7670   45.4780   37.7850 C.3   168  GLU168      0.1699
     20  C         23.0140   46.0110   38.4970 C.2   168  GLU168      0.2592
     21  O         23.7170   45.2460   39.1250 O.2   168  GLU168     -0.2718
     22  CB        22.0840   45.2010   36.3150 C.3   168  GLU168      0.0402
     23  CG        23.1970   44.1560   36.1170 C.3   168  GLU168      0.1161
     24  CD        24.5940   44.6440   35.8110 C.2   168  GLU168      0.3649
     25  OE1       24.8470   45.8540   35.9540 O.co2 168  GLU168     -0.2457
     26  OE2       25.4860   43.7760   35.4100 O.co2 168  GLU168     -0.2457
     27  N         23.2960   47.3070   38.3670 N.am  169  GLU169     -0.1966
     28  CA        24.5720   47.8910   38.8340 C.3   169  GLU169      0.1733
     29  C         24.5710   48.0880   40.3440 C.2   169  GLU169      0.2616
     30  O         23.5320   48.4130   40.9440 O.2   169  GLU169     -0.2715
     31  CB        24.8520   49.2230   38.1460 C.3   169  GLU169      0.0429
     32  CG        25.0580   49.0810   36.6480 C.3   169  GLU169      0.1163
     33  CD        26.4350   48.6620   36.1540 C.2   169  GLU169      0.3649
     34  OE1       27.2540   48.2050   36.9150 O.co2 169  GLU169     -0.2457
     35  OE2       26.6350   48.7670   34.9560 O.co2 169  GLU169     -0.2457
     36  N         25.7540   47.9270   40.9410 N.am  170  ALA170     -0.1977
     37  CA        25.9880   48.3800   42.3400 C.3   170  ALA170      0.1597
     38  C         25.8850   49.9100   42.4520 C.2   170  ALA170      0.2287
     39  O         26.2690   50.6550   41.5590 O.2   170  ALA170     -0.2864
     40  CB        27.3410   47.9340   42.8050 C.3   170  ALA170      0.0319
     41  N         30.1730   46.6690   44.6270 N.3   174  TRP174     -0.1241
     42  CA        29.5170   45.4450   44.1950 C.3   174  TRP174      0.1605
     43  C         29.6610   44.3640   45.2580 C.2   174  TRP174      0.2264
     44  O         30.7590   44.0440   45.6710 O.2   174  TRP174     -0.2867
     45  CB        30.0800   44.9750   42.8600 C.3   174  TRP174      0.0550
     46  CG        29.3260   43.8440   42.2420 C.ar  174  TRP174      0.0003
     47  CD1       29.3600   42.5340   42.6220 C.ar  174  TRP174      0.0946
     48  CD2       28.4390   43.9020   41.1070 C.ar  174  TRP174      0.0152
     49  NE1       28.5440   41.7840   41.8170 N.ar  174  TRP174     -0.2442
     50  CE2       28.0040   42.5800   40.8490 C.ar  174  TRP174      0.0810
     51  CE3       27.9910   44.9120   40.2580 C.ar  174  TRP174      0.0012
     52  CZ2       27.0990   42.2680   39.8400 C.ar  174  TRP174      0.0191
     53  CZ3       27.1110   44.5930   39.2350 C.ar  174  TRP174      0.0001
     54  CH2       26.6610   43.2910   39.0420 C.ar  174  TRP174      0.0015
     55  N         25.1110   41.5900   27.4430 N.3   215  ASP215     -0.1225
     56  CA        25.6520   42.6560   28.2940 C.3   215  ASP215      0.1805
     57  C         27.0000   43.1130   27.7400 C.2   215  ASP215      0.2597
     58  O         27.7710   42.2750   27.2190 O.2   215  ASP215     -0.2718
     59  CB        25.7630   42.1850   29.7450 C.3   215  ASP215      0.1424
     60  CG        25.8600   43.2930   30.8040 C.2   215  ASP215      0.3668
     61  OD1       25.9180   44.4980   30.4500 O.co2 215  ASP215     -0.2456
     62  OD2       25.8260   42.9390   32.0070 O.co2 215  ASP215     -0.2456
     63  N         27.2770   44.4130   27.8290 N.am  216  LEU216     -0.1979
     64  CA        28.5630   44.9800   27.4660 C.3   216  LEU216      0.1596
     65  C         28.8410   44.7220   25.9810 C.2   216  LEU216      0.2287
     66  O         29.9690   44.3860   25.6150 O.2   216  LEU216     -0.2864
     67  CB        29.7040   44.4470   28.3510 C.3   216  LEU216      0.0297
     68  CG        29.5060   44.5270   29.8660 C.3   216  LEU216      0.0022
     69  CD1       30.7510   44.1450   30.6370 C.3   216  LEU216      0.0001
     70  CD2       29.0840   45.9160   30.2760 C.3   216  LEU216      0.0001
     71  N         31.7170   35.2400   36.2320 N.3   270  ILE270     -0.1231
     72  CA        31.3150   36.6580   36.0960 C.3   270  ILE270      0.1692
     73  C         29.9380   36.8490   36.7280 C.2   270  ILE270      0.2592
     74  O         28.9800   36.1680   36.3860 O.2   270  ILE270     -0.2718
     75  CB        31.3580   37.1360   34.6410 C.3   270  ILE270      0.0266
     76  CG1       32.7340   36.8820   34.0120 C.3   270  ILE270      0.0019
     77  CG2       30.9780   38.5960   34.5410 C.3   270  ILE270      0.0020
     78  CD1       32.8080   37.1670   32.5350 C.3   270  ILE270      0.0001
     79  N         29.8360   37.7810   37.6610 N.am  271  GLN271     -0.1966
     80  CA        28.5490   38.0650   38.2880 C.3   271  GLN271      0.1733
     81  C         27.7390   38.9930   37.3550 C.2   271  GLN271      0.2616
     82  O         28.2590   39.9180   36.7820 O.2   271  GLN271     -0.2715
     83  CB        28.7670   38.7030   39.6640 C.3   271  GLN271      0.0408
     84  CG        29.4850   37.8170   40.6740 C.3   271  GLN271      0.0908
     85  CD        28.6080   36.6850   41.1660 C.2   271  GLN271      0.2608
     86  OE1       27.4680   36.8830   41.5890 O.2   271  GLN271     -0.2717
     87  NE2       29.1130   35.4770   41.0390 N.am  271  GLN271     -0.0878
     88  N         26.4730   38.6850   37.1580 N.am  272  ASP272     -0.1971
     89  CA        25.5570   39.4370   36.2970 C.3   272  ASP272      0.1709
     90  C         24.1430   38.9440   36.5930 C.2   272  ASP272      0.2293
     91  O         23.9520   38.0830   37.4810 O.2   272  ASP272     -0.2864
     92  CB        25.9320   39.3290   34.8110 C.3   272  ASP272      0.1436
     93  CG        25.4190   40.4380   33.8960 C.2   272  ASP272      0.3671
     94  OD1       24.6320   41.3180   34.3520 O.co2 272  ASP272     -0.2456
     95  OD2       25.8520   40.4480   32.6820 O.co2 272  ASP272     -0.2456
     96  N         28.2720   38.0460   27.1090 N.3   288  ILE288     -0.1245
     97  CA        29.1250   39.0960   27.6170 C.3   288  ILE288      0.1561
     98  C         30.5460   38.7880   27.1290 C.2   288  ILE288      0.2260
     99  O         31.0180   37.6070   27.1840 O.2   288  ILE288     -0.2867
    100  CB        29.0370   39.1860   29.1700 C.3   288  ILE288      0.0252
    101  CG1       29.7150   40.4560   29.7170 C.3   288  ILE288      0.0019
    102  CG2       29.5540   37.9260   29.8610 C.3   288  ILE288      0.0019
    103  CD1       29.4740   40.7550   31.1880 C.3   288  ILE288      0.0001
    104  N         36.1160   42.6030   28.9320 N.3   292  PHE292     -0.1241
    105  CA        35.1050   43.6470   28.8030 C.3   292  PHE292      0.1605
    106  C         35.6170   44.7280   27.8380 C.2   292  PHE292      0.2264
    107  O         36.8570   44.8880   27.6370 O.2   292  PHE292     -0.2867
    108  CB        34.8140   44.2750   30.1720 C.3   292  PHE292      0.0534
    109  CG        34.1920   43.3860   31.2190 C.ar  292  PHE292     -0.0203
    110  CD1       33.6740   42.1330   30.9060 C.ar  292  PHE292     -0.0042
    111  CD2       34.0900   43.8250   32.5210 C.ar  292  PHE292     -0.0042
    112  CE1       33.0960   41.3350   31.8890 C.ar  292  PHE292     -0.0003
    113  CE2       33.4830   43.0390   33.4970 C.ar  292  PHE292     -0.0003
    114  CZ        32.9780   41.7990   33.1770 C.ar  292  PHE292     -0.0000
    115  N         34.8840   50.1930   29.5700 N.3   296  TRP296     -0.1227
    116  CA        34.0270   49.7560   30.6860 C.3   296  TRP296      0.1737
    117  C         34.1050   50.7280   31.8760 C.2   296  TRP296      0.2595
    118  O         35.1770   51.0370   32.4250 O.2   296  TRP296     -0.2718
    119  CB        34.3570   48.3180   31.0990 C.3   296  TRP296      0.0564
    120  CG        33.7290   47.8390   32.3760 C.ar  296  TRP296      0.0003
    121  CD1       32.4910   47.2900   32.5410 C.ar  296  TRP296      0.0946
    122  CD2       34.3440   47.8420   33.6780 C.ar  296  TRP296      0.0152
    123  NE1       32.3010   46.9560   33.8580 N.ar  296  TRP296     -0.2442
    124  CE2       33.4010   47.3320   34.5900 C.ar  296  TRP296      0.0810
    125  CE3       35.5830   48.2660   34.1710 C.ar  296  TRP296      0.0012
    126  CZ2       33.6810   47.2000   35.9480 C.ar  296  TRP296      0.0191
    127  CZ3       35.8420   48.1890   35.5240 C.ar  296  TRP296      0.0001
    128  CH2       34.9160   47.6160   36.3980 C.ar  296  TRP296      0.0015
    129  N         32.9110   51.1450   32.3180 N.am  297  HIS297     -0.1975
    130  CA        32.7120   52.0270   33.4760 C.3   297  HIS297      0.1656
    131  C         33.5850   53.2900   33.3850 C.2   297  HIS297      0.2291
    132  O         34.0730   53.7600   34.4040 O.2   297  HIS297     -0.2864
    133  CB        32.9390   51.2610   34.7840 C.3   297  HIS297      0.0771
    134  CG        31.8380   50.3120   35.0950 C.ar  297  HIS297      0.0820
    135  ND1       31.7580   49.6600   36.3170 N.ar  297  HIS297     -0.2267
    136  CD2       30.7440   49.9500   34.3960 C.ar  297  HIS297      0.1154
    137  CE1       30.6690   48.8920   36.3170 C.ar  297  HIS297      0.1986
    138  NE2       30.0480   49.0430   35.1660 N.ar  297  HIS297     -0.2212
@<TRIPOS>BOND
     1    66    65    2
     2    65    64    1
     3    96    97    1
     4    98    99    2
     5    98    97    1
     6    58    57    2
     7    55    56    1
     8    64    63    1
     9    64    67    1
    10    97   100    1
    11   107   106    2
    12    57    63   am
    13    57    56    1
    14   106   105    1
    15    10    11    1
    16    56    59    1
    17    67    68    1
    18   105   104    1
    19   105   108    1
    20   100   101    1
    21   100   102    1
    22    11    12    1
    23    11    14    1
    24   115   116    1
    25   101   103    1
    26    59    60    1
    27    68    70    1
    28    68    69    1
    29    12    13    2
    30   108   109    1
    31    14    15    1
    32    61    60   ar
    33   116   119    1
    34   116   117    1
    35    60    62   ar
    36   110   109   ar
    37   110   112   ar
    38   119   120    1
    39   109   111   ar
    40    15    16   ar
    41    15    17   ar
    42   117   129   am
    43   117   118    2
    44   112   114   ar
    45   129   130    1
    46   120   121   ar
    47   120   122   ar
    48   111   113   ar
    49    78    76    1
    50   121   123   ar
    51    95    93   ar
    52   114   113   ar
    53   131   130    1
    54   131   132    2
    55   130   133    1
    56   122   125   ar
    57   122   124   ar
    58   123   124   ar
    59    93    94   ar
    60    93    92    1
    61    76    75    1
    62   125   127   ar
    63   136   134   ar
    64   136   138   ar
    65    77    75    1
    66   124   126   ar
    67    75    72    1
    68   133   134    1
    69    92    89    1
    70    35    33   ar
    71   134   135   ar
    72   138   137   ar
    73    26    24   ar
    74   127   128   ar
    75     1     2    1
    76    24    25   ar
    77    24    23    1
    78   126   128   ar
    79    72    71    1
    80    72    73    1
    81    23    22    1
    82    33    32    1
    83    33    34   ar
    84    89    90    1
    85    89    88    1
    86    22    19    1
    87   137   135   ar
    88    74    73    2
    89     4     3    2
    90    90    91    2
    91    32    31    1
    92    73    79   am
    93     5     2    1
    94     5     6    1
    95    82    81    2
    96     2     3    1
    97    88    81   am
    98    81    80    1
    99    79    80    1
   100    19    18    1
   101    19    20    1
   102     7     6    1
   103     7     8    1
   104    31    28    1
   105    80    83    1
   106    27    20   am
   107    27    28    1
   108    20    21    2
   109    28    29    1
   110    54    53   ar
   111    54    52   ar
   112    53    51   ar
   113     8     9    1
   114    83    84    1
   115    52    50   ar
   116    51    48   ar
   117    29    36   am
   118    29    30    2
   119    84    85    1
   120    50    48   ar
   121    50    49   ar
   122    36    37    1
   123    87    85   am
   124    48    46   ar
   125    85    86    2
   126    39    38    2
   127    49    47   ar
   128    46    47   ar
   129    46    45    1
   130    37    38    1
   131    37    40    1
   132    45    42    1
   133    42    41    1
   134    42    43    1
   135    43    44    2
