@<TRIPOS>MOLECULE
tmp/6gccB00.pdb
 206 207 0 0 0
SMALL
GASTEIGER

@<TRIPOS>ATOM
      1  N          3.8970   34.7660   -5.1290 N.3    26  SER26      -0.1202
      2  CA         3.6020   34.5100   -3.7280 C.3    26  SER26       0.2020
      3  C          2.1330   34.7310   -3.4260 C.2    26  SER26       0.2619
      4  O          1.5830   34.1000   -2.5130 O.2    26  SER26      -0.2717
      5  CB         4.4400   35.4000   -2.8460 C.3    26  SER26       0.2103
      6  OG         4.3550   36.7160   -3.3320 O.3    26  SER26      -0.2182
      7  N          1.4960   35.6270   -4.1610 N.am   27  SER27      -0.1951
      8  CA         0.1770   36.1090   -3.7990 C.3    27  SER27       0.1924
      9  C         -0.8540   35.0660   -4.2070 C.2    27  SER27       0.2314
     10  O         -0.9150   34.7130   -5.3950 O.2    27  SER27      -0.2863
     11  CB        -0.1190   37.4290   -4.4970 C.3    27  SER27       0.2116
     12  OG        -1.5130   37.6700   -4.5440 O.3    27  SER27      -0.2180
     13  N         -3.9950   35.4570   -4.3940 N.3    29  TRP29      -0.1241
     14  CA        -4.9660   36.1500   -5.2370 C.3    29  TRP29       0.1605
     15  C         -4.4570   36.2510   -6.6630 C.2    29  TRP29       0.2264
     16  O         -5.1880   35.9720   -7.6150 O.2    29  TRP29      -0.2867
     17  CB        -5.2540   37.5520   -4.6740 C.3    29  TRP29       0.0550
     18  CG        -5.3770   37.5630   -3.1730 C.ar   29  TRP29       0.0003
     19  CD1       -4.4440   37.9840   -2.2770 C.ar   29  TRP29       0.0946
     20  CD2       -6.5020   37.1150   -2.4130 C.ar   29  TRP29       0.0152
     21  NE1       -4.9100   37.8150   -0.9940 N.ar   29  TRP29      -0.2442
     22  CE2       -6.1810   37.3010   -1.0480 C.ar   29  TRP29       0.0810
     23  CE3       -7.7660   36.6090   -2.7560 C.ar   29  TRP29       0.0012
     24  CZ2       -7.0600   36.9780   -0.0180 C.ar   29  TRP29       0.0191
     25  CZ3       -8.6530   36.2840   -1.7280 C.ar   29  TRP29       0.0001
     26  CH2       -8.2830   36.4500   -0.3660 C.ar   29  TRP29       0.0015
     27  N          8.4750   41.9280   -1.0660 N.3    55  PHE55      -0.1227
     28  CA         7.6430   43.0980   -0.8330 C.3    55  PHE55       0.1736
     29  C          8.4350   44.1540   -0.0690 C.2    55  PHE55       0.2596
     30  O          9.2140   43.8290    0.8330 O.2    55  PHE55      -0.2718
     31  CB         6.3970   42.6710   -0.0540 C.3    55  PHE55       0.0547
     32  CG         5.2870   43.6660   -0.0940 C.ar   55  PHE55      -0.0202
     33  CD1        5.2490   44.7260    0.8100 C.ar   55  PHE55      -0.0042
     34  CD2        4.2760   43.5500   -1.0400 C.ar   55  PHE55      -0.0042
     35  CE1        4.2200   45.6640    0.7530 C.ar   55  PHE55      -0.0003
     36  CE2        3.2510   44.4520   -1.0870 C.ar   55  PHE55      -0.0003
     37  CZ         3.2160   45.5220   -0.1950 C.ar   55  PHE55      -0.0000
     38  N          8.2760   45.4130   -0.4630 N.am   56  SER56      -0.1938
     39  CA         9.1490   46.4880    0.0110 C.3    56  SER56       0.2055
     40  C          8.3330   47.6000    0.6600 C.2    56  SER56       0.2643
     41  O          7.0920   47.6050    0.6550 O.2    56  SER56      -0.2714
     42  CB         9.9840   47.0700   -1.1380 C.3    56  SER56       0.2130
     43  OG         9.2150   48.0140   -1.8980 O.3    56  SER56      -0.2179
     44  N          9.0580   48.5960    1.1860 N.am   57  ALA57      -0.1963
     45  CA         8.3910   49.7980    1.6670 C.3    57  ALA57       0.1728
     46  C          7.5800   50.4830    0.5630 C.2    57  ALA57       0.2616
     47  O          6.6380   51.2250    0.8660 O.2    57  ALA57      -0.2715
     48  CB         9.4260   50.7700    2.2580 C.3    57  ALA57       0.0334
     49  N          7.9090   50.2510   -0.7080 N.am   58  HIS58      -0.1959
     50  CA         7.1590   50.8590   -1.8120 C.3    58  HIS58       0.1787
     51  C          6.2240   49.8750   -2.4850 C.2    58  HIS58       0.2621
     52  O          5.7030   50.1690   -3.5750 O.2    58  HIS58      -0.2715
     53  CB         8.1180   51.4420   -2.8480 C.3    58  HIS58       0.0785
     54  CG         9.2010   52.2660   -2.2470 C.ar   58  HIS58       0.0821
     55  ND1        8.9360   53.3740   -1.4720 N.ar   58  HIS58      -0.2267
     56  CD2       10.5450   52.1030   -2.2340 C.ar   58  HIS58       0.1154
     57  CE1       10.0760   53.8700   -1.0230 C.ar   58  HIS58       0.1986
     58  NE2       11.0660   53.1220   -1.4720 N.ar   58  HIS58      -0.2212
     59  N          6.0110   48.7180   -1.8640 N.am   59  GLY59      -0.1940
     60  CA         5.1200   47.7080   -2.3980 C.3    59  GLY59       0.2014
     61  C          5.8720   46.6790   -3.2210 C.2    59  GLY59       0.2638
     62  O          7.0630   46.4470   -3.0040 O.2    59  GLY59      -0.2714
     63  N          5.1780   46.0530   -4.1610 N.am   60  TRP60      -0.1973
     64  CA         5.7650   45.0090   -4.9780 C.3    60  TRP60       0.1640
     65  C          6.8300   45.6100   -5.8920 C.2    60  TRP60       0.2290
     66  O          6.4880   46.4250   -6.7470 O.2    60  TRP60      -0.2864
     67  CB         4.6990   44.3410   -5.8340 C.3    60  TRP60       0.0576
     68  CG         3.7000   43.5680   -5.0700 C.ar   60  TRP60       0.0006
     69  CD1        2.3880   43.8790   -4.8990 C.ar   60  TRP60       0.0946
     70  CD2        3.9240   42.3530   -4.3440 C.ar   60  TRP60       0.0152
     71  NE1        1.7860   42.9470   -4.1050 N.ar   60  TRP60      -0.2442
     72  CE2        2.6960   41.9810   -3.7730 C.ar   60  TRP60       0.0810
     73  CE3        5.0410   41.5380   -4.1270 C.ar   60  TRP60       0.0012
     74  CZ2        2.5520   40.8270   -2.9920 C.ar   60  TRP60       0.0191
     75  CZ3        4.8880   40.3840   -3.3430 C.ar   60  TRP60       0.0001
     76  CH2        3.6690   40.0460   -2.8020 C.ar   60  TRP60       0.0015
     77  N          3.1570   50.1170   -7.9800 N.3    83  ARG83      -0.1245
     78  CA         2.4480   51.3850   -7.8690 C.3    83  ARG83       0.1563
     79  C          2.7020   52.2790   -9.0870 C.2    83  ARG83       0.2260
     80  O          1.8460   53.0830   -9.4290 O.2    83  ARG83      -0.2867
     81  CB         2.8360   52.1320   -6.5920 C.3    83  ARG83       0.0307
     82  CG         4.2920   52.4290   -6.4670 C.3    83  ARG83       0.0489
     83  CD         4.6510   53.1340   -5.1110 C.3    83  ARG83       0.2205
     84  NE         4.6700   54.5820   -5.3510 N.pl3  83  ARG83      -0.0865
     85  CZ         3.9010   55.4770   -4.7420 C.cat  83  ARG83       0.5346
     86  NH1        3.0650   55.1120   -3.7880 N.pl3  83  ARG83       0.1354
     87  NH2        3.9890   56.7570   -5.0800 N.pl3  83  ARG83       0.1354
     88  N         -6.1590   53.8640   -3.8550 N.3    95  GLY95      -0.1210
     89  CA        -6.2760   52.5240   -3.3360 C.3    95  GLY95       0.1956
     90  C         -4.9160   51.9050   -3.0950 C.2    95  GLY95       0.2612
     91  O         -3.8680   52.5500   -3.1730 O.2    95  GLY95      -0.2717
     92  N         -4.9520   50.6120   -2.7940 N.am   96  ARG96      -0.1965
     93  CA        -3.7600   49.8170   -2.6020 C.3    96  ARG96       0.1729
     94  C         -3.2100   49.3720   -3.9540 C.2    96  ARG96       0.2616
     95  O         -3.9600   49.1790   -4.9070 O.2    96  ARG96      -0.2715
     96  CB        -4.0850   48.6040   -1.7290 C.3    96  ARG96       0.0348
     97  CG        -4.6380   49.0050   -0.3380 C.3    96  ARG96       0.0492
     98  CD        -5.2330   47.8230    0.4300 C.3    96  ARG96       0.2205
     99  NE        -4.2660   46.7340    0.5420 N.pl3  96  ARG96      -0.0865
    100  CZ        -4.4770   45.4680    0.1790 C.cat  96  ARG96       0.5346
    101  NH1       -5.6530   45.0650   -0.3190 N.pl3  96  ARG96       0.1354
    102  NH2       -3.4900   44.5910    0.3330 N.pl3  96  ARG96       0.1354
    103  N         -1.8870   49.2010   -4.0170 N.am   97  PHE97      -0.1960
    104  CA        -1.1950   48.8930   -5.2630 C.3    97  PHE97       0.1771
    105  C         -1.0290   47.3710   -5.3930 C.2    97  PHE97       0.2620
    106  O          0.0720   46.8320   -5.4110 O.2    97  PHE97      -0.2715
    107  CB         0.1430   49.6330   -5.2920 C.3    97  PHE97       0.0574
    108  CG         0.0170   51.1390   -5.1430 C.ar   97  PHE97      -0.0200
    109  CD1       -0.6770   51.8920   -6.0970 C.ar   97  PHE97      -0.0042
    110  CD2        0.6120   51.7980   -4.0720 C.ar   97  PHE97      -0.0042
    111  CE1       -0.7710   53.2710   -5.9970 C.ar   97  PHE97      -0.0003
    112  CE2        0.5200   53.1800   -3.9440 C.ar   97  PHE97      -0.0003
    113  CZ        -0.1630   53.9270   -4.9040 C.ar   97  PHE97      -0.0000
    114  N         -2.1630   46.6800   -5.4610 N.am   98  THR98      -0.1937
    115  CA        -2.1630   45.2330   -5.2820 C.3    98  THR98       0.2028
    116  C         -1.9070   44.4930   -6.5860 C.2    98  THR98       0.2642
    117  O         -2.2240   44.9830   -7.6670 O.2    98  THR98      -0.2714
    118  CB        -3.5040   44.7440   -4.7340 C.3    98  THR98       0.1808
    119  OG1       -4.5610   45.2700   -5.5470 O.3    98  THR98      -0.2208
    120  CG2       -3.7030   45.1410   -3.2730 C.3    98  THR98       0.0379
    121  N         -1.4010   43.2610   -6.4570 N.am   99  VAL99      -0.1977
    122  CA        -1.4910   42.2890   -7.5460 C.3    99  VAL99       0.1596
    123  C         -2.7140   41.4090   -7.2830 C.2    99  VAL99       0.2287
    124  O         -3.1000   41.2150   -6.1420 O.2    99  VAL99      -0.2864
    125  CB        -0.2140   41.4590   -7.6910 C.3    99  VAL99       0.0276
    126  CG1        0.9150   42.3720   -8.1420 C.3    99  VAL99       0.0022
    127  CG2        0.1480   40.7460   -6.3920 C.3    99  VAL99       0.0022
    128  N         -5.2240   35.0840    6.7040 N.3   164  TYR164     -0.1241
    129  CA        -4.6750   36.4240    6.8930 C.3   164  TYR164      0.1605
    130  C         -5.1740   37.0480    8.1840 C.2   164  TYR164      0.2264
    131  O         -4.4000   37.6690    8.9250 O.2   164  TYR164     -0.2867
    132  CB        -5.0570   37.3120    5.7080 C.3   164  TYR164      0.0534
    133  CG        -4.2110   37.0570    4.4620 C.ar  164  TYR164     -0.0201
    134  CD1       -3.0010   37.6930    4.3020 C.ar  164  TYR164     -0.0009
    135  CD2       -4.6480   36.2290    3.4470 C.ar  164  TYR164     -0.0009
    136  CE1       -2.2090   37.4710    3.1780 C.ar  164  TYR164      0.0417
    137  CE2       -3.8700   36.0110    2.3200 C.ar  164  TYR164      0.0417
    138  CZ        -2.6450   36.6380    2.2000 C.ar  164  TYR164      0.1957
    139  OH        -1.8440   36.4520    1.0900 O.3   164  TYR164     -0.2866
    140  N         -2.2420   38.0830   10.7930 N.3   168  PHE168     -0.1241
    141  CA        -1.9640   39.4900   11.0550 C.3   168  PHE168      0.1605
    142  C         -2.7290   40.0280   12.2520 C.2   168  PHE168      0.2264
    143  O         -2.6140   41.2140   12.5560 O.2   168  PHE168     -0.2867
    144  CB        -2.2670   40.3390    9.8170 C.3   168  PHE168      0.0534
    145  CG        -1.0950   40.4440    8.8950 C.ar  168  PHE168     -0.0203
    146  CD1       -0.8510   39.4620    7.9750 C.ar  168  PHE168     -0.0042
    147  CD2       -0.1790   41.4850    9.0210 C.ar  168  PHE168     -0.0042
    148  CE1        0.2560   39.5250    7.1390 C.ar  168  PHE168     -0.0003
    149  CE2        0.9180   41.5510    8.1960 C.ar  168  PHE168     -0.0003
    150  CZ         1.1340   40.5520    7.2480 C.ar  168  PHE168     -0.0000
    151  N          8.0860   35.6650    0.4480 N.3   266  SER266     -0.1202
    152  CA         7.2010   36.7990    0.7100 C.3   266  SER266      0.2020
    153  C          6.6800   36.7560    2.1420 C.2   266  SER266      0.2618
    154  O          6.7630   37.7490    2.8760 O.2   266  SER266     -0.2717
    155  CB         6.0000   36.8370   -0.2440 C.3   266  SER266      0.2103
    156  OG         6.3460   37.2720   -1.5500 O.3   266  SER266     -0.2182
    157  N          6.0780   35.6380    2.5360 N.am  267  TYR267     -0.1975
    158  CA         5.4490   35.5810    3.8600 C.3   267  TYR267      0.1639
    159  C          6.4800   35.7740    4.9610 C.2   267  TYR267      0.2290
    160  O          6.2860   36.5850    5.8760 O.2   267  TYR267     -0.2864
    161  CB         4.6970   34.2460    4.0310 C.3   267  TYR267      0.0560
    162  CG         3.3950   34.2290    3.2810 C.ar  267  TYR267     -0.0198
    163  CD1        2.3470   35.0100    3.6890 C.ar  267  TYR267     -0.0009
    164  CD2        3.2240   33.4620    2.1440 C.ar  267  TYR267     -0.0009
    165  CE1        1.1550   35.0340    3.0130 C.ar  267  TYR267      0.0417
    166  CE2        2.0330   33.4800    1.4680 C.ar  267  TYR267      0.0417
    167  CZ         0.9980   34.2560    1.9020 C.ar  267  TYR267      0.1957
    168  OH        -0.2090   34.2730    1.2090 O.3   267  TYR267     -0.2866
    169  N          9.2670   37.2770    4.9120 N.3   269  ALA269     -0.1231
    170  CA         9.8290   38.6200    4.9470 C.3   269  ALA269      0.1694
    171  C          8.9400   39.6340    5.6510 C.2   269  ALA269      0.2592
    172  O          9.3320   40.7980    5.7620 O.2   269  ALA269     -0.2718
    173  CB        10.1000   39.1510    3.5470 C.3   269  ALA269      0.0304
    174  N          7.7740   39.2290    6.1330 N.am  270  GLN270     -0.1966
    175  CA         6.8030   40.1380    6.7440 C.3   270  GLN270      0.1733
    176  C          7.2740   40.4480    8.1620 C.2   270  GLN270      0.2616
    177  O          6.9620   39.7410    9.1160 O.2   270  GLN270     -0.2715
    178  CB         5.4180   39.5210    6.7110 C.3   270  GLN270      0.0408
    179  CG         4.8420   39.4300    5.3000 C.3   270  GLN270      0.0908
    180  CD         3.6140   38.5690    5.1860 C.2   270  GLN270      0.2608
    181  OE1        3.2760   37.7920    6.0800 O.2   270  GLN270     -0.2717
    182  NE2        2.9570   38.6610    4.0460 N.am  270  GLN270     -0.0878
    183  N          7.9990   41.5630    8.2850 N.am  271  LYS271     -0.1963
    184  CA         8.7920   41.8710    9.4780 C.3   271  LYS271      0.1728
    185  C          7.9310   42.0940   10.7220 C.2   271  LYS271      0.2616
    186  O          8.4060   41.8880   11.8410 O.2   271  LYS271     -0.2715
    187  CB         9.6630   43.1030    9.1910 C.3   271  LYS271      0.0311
    188  CG         8.9300   44.4190    9.4270 C.3   271  LYS271      0.0038
    189  CD         9.3870   45.5590    8.5430 C.3   271  LYS271      0.0206
    190  CE         8.5880   46.8400    8.8810 C.3   271  LYS271      0.1093
    191  NZ         8.9250   47.9930    7.9740 N.3   271  LYS271     -0.1314
    192  N          6.6790   42.5240   10.5660 N.am  272  ASN272     -0.1958
    193  CA         5.8390   42.7570   11.7330 C.3   272  ASN272      0.1819
    194  C          5.3760   41.4550   12.3710 C.2   272  ASN272      0.2621
    195  O          4.8940   41.4680   13.5100 O.2   272  ASN272     -0.2715
    196  CB         4.6130   43.6060   11.3710 C.3   272  ASN272      0.1195
    197  CG         4.9780   45.0400   11.0070 C.2   272  ASN272      0.2630
    198  OD1        5.9800   45.5770   11.4910 O.2   272  ASN272     -0.2716
    199  ND2        4.1780   45.6590   10.1360 N.am  272  ASN272     -0.0877
    200  N          5.4980   40.3470   11.6540 N.am  273  VAL273     -0.1977
    201  CA         5.1700   39.0240   12.1690 C.3   273  VAL273      0.1596
    202  C          6.4360   38.2500   12.4950 C.2   273  VAL273      0.2287
    203  O          6.5260   37.5690   13.5140 O.2   273  VAL273     -0.2864
    204  CB         4.3070   38.2830   11.1160 C.3   273  VAL273      0.0276
    205  CG1        4.0520   36.8370   11.4970 C.3   273  VAL273      0.0022
    206  CG2        2.9970   39.0070   10.8880 C.3   273  VAL273      0.0022
@<TRIPOS>BOND
     1    80    79    2
     2    79    78    1
     3   126   125    1
     4    77    78    1
     5    78    81    1
     6   125   122    1
     7   125   127    1
     8   117   116    2
     9    16    15    2
    10   122   123    1
    11   122   121    1
    12   123   124    2
    13    66    65    2
    14    15    14    1
    15    81    82    1
    16   116   121   am
    17   116   115    1
    18    82    83    1
    19   109   111   ar
    20   109   108   ar
    21   111   113   ar
    22    65    64    1
    23    67    68    1
    24    67    64    1
    25   119   118    1
    26   114   105   am
    27   114   115    1
    28   106   105    2
    29    10     9    2
    30   105   104    1
    31    84    83    1
    32    84    85    2
    33   107   104    1
    34   107   108    1
    35   115   118    1
    36   104   103    1
    37    14    17    1
    38    14    13    1
    39   108   110   ar
    40     1     2    1
    41    87    85    1
    42    68    69   ar
    43    68    70   ar
    44    64    63    1
    45    95    94    2
    46   113   112   ar
    47    69    71   ar
    48    85    86    1
    49   118   120    1
    50    17    18    1
    51    12    11    1
    52    11     8    1
    53    70    73   ar
    54    70    72   ar
    55     9     8    1
    56     7     8    1
    57     7     3   am
    58    63    61   am
    59    73    75   ar
    60    71    72   ar
    61   110   112   ar
    62   103    94   am
    63    94    93    1
    64    88    89    1
    65    72    74   ar
    66     2     3    1
    67     2     5    1
    68    52    51    2
    69     3     4    2
    70    75    76   ar
    71    89    90    1
    72     6     5    1
    73    61    62    2
    74    61    60    1
    75    91    90    2
    76    18    20   ar
    77    18    19   ar
    78    90    92   am
    79    74    76   ar
    80    53    54    1
    81    53    50    1
    82    92    93    1
    83    23    20   ar
    84    23    25   ar
    85    93    96    1
    86    51    59   am
    87    51    50    1
    88    20    22   ar
    89    60    59    1
    90    19    21   ar
    91    54    56   ar
    92    54    55   ar
    93    56    58   ar
    94    43    42    1
    95    50    49    1
    96    96    97    1
    97    25    26   ar
    98   156   155    1
    99    55    57   ar
   100    58    57   ar
   101    42    39    1
   102    36    34   ar
   103    36    37   ar
   104    27    28    1
   105    22    21   ar
   106    22    24   ar
   107    34    32   ar
   108    28    29    1
   109    28    31    1
   110    49    46   am
   111    38    29   am
   112    38    39    1
   113    26    24   ar
   114    97    98    1
   115   101   100    1
   116   155   152    1
   117    37    35   ar
   118    32    31    1
   119    32    33   ar
   120    29    30    2
   121    39    40    1
   122   100   102    1
   123   100    99    2
   124    98    99    1
   125   151   152    1
   126    46    47    2
   127    46    45    1
   128    41    40    2
   129    40    44   am
   130   152   153    1
   131    35    33   ar
   132   139   138    1
   133    44    45    1
   134   168   167    1
   135   166   167   ar
   136   166   164   ar
   137    45    48    1
   138   167   165   ar
   139   153   157   am
   140   153   154    2
   141   164   162   ar
   142   138   137   ar
   143   138   136   ar
   144   137   135   ar
   145   157   158    1
   146   165   163   ar
   147   136   134   ar
   148   162   163   ar
   149   162   161    1
   150   135   133   ar
   151   173   170    1
   152   158   161    1
   153   158   159    1
   154   182   180   am
   155   134   133   ar
   156   133   132    1
   157   169   170    1
   158   170   171    1
   159   159   160    2
   160   180   179    1
   161   180   181    2
   162   179   178    1
   163   171   172    2
   164   171   174   am
   165   132   129    1
   166   174   175    1
   167   128   129    1
   168   178   175    1
   169   175   176    1
   170   129   130    1
   171   148   150   ar
   172   148   146   ar
   173   150   149   ar
   174   191   190    1
   175   146   145   ar
   176   176   183   am
   177   176   177    2
   178   130   131    2
   179   149   147   ar
   180   183   184    1
   181   189   190    1
   182   189   188    1
   183   145   147   ar
   184   145   144    1
   185   187   188    1
   186   187   184    1
   187   184   185    1
   188   144   141    1
   189   199   197   am
   190   192   185   am
   191   192   193    1
   192   185   186    2
   193   140   141    1
   194   206   204    1
   195   197   196    1
   196   197   198    2
   197   141   142    1
   198   204   205    1
   199   204   201    1
   200   196   193    1
   201   200   201    1
   202   200   194   am
   203   193   194    1
   204   201   202    1
   205   142   143    2
   206   194   195    2
   207   202   203    2
