@<TRIPOS>MOLECULE
tmp/6gchC01.pdb
 89 87 0 0 0
SMALL
GASTEIGER

@<TRIPOS>ATOM
      1  N         40.2570   84.9150   94.9940 N.3    39  SER39      -0.1202
      2  CA        40.2070   83.6190   94.3440 C.3    39  SER39       0.2020
      3  C         39.4890   83.6480   92.9980 C.2    39  SER39       0.2619
      4  O         38.4710   84.3240   92.8600 O.2    39  SER39      -0.2717
      5  CB        39.4910   82.5560   95.1930 C.3    39  SER39       0.2103
      6  OG        39.0350   81.5320   94.2760 O.3    39  SER39      -0.2182
      7  N         40.0310   82.8120   92.1240 N.am   40  SER40      -0.1937
      8  CA        39.4010   82.6090   90.7920 C.3    40  SER40       0.2055
      9  C         38.1090   81.8320   91.1240 C.2    40  SER40       0.2643
     10  O         38.0190   81.3030   92.2480 O.2    40  SER40      -0.2714
     11  CB        40.2910   81.8900   89.8220 C.3    40  SER40       0.2130
     12  OG        41.0240   82.7080   88.9360 O.3    40  SER40      -0.2179
     13  N         37.1990   81.8300   90.1720 N.am   41  CYS41      -0.1953
     14  CA        35.9040   81.1570   90.4450 C.3    41  CYS41       0.1843
     15  C         35.2320   80.6670   89.1810 C.2    41  CYS41       0.2625
     16  O         35.6670   80.9370   88.0650 O.2    41  CYS41      -0.2714
     17  CB        35.0420   82.1070   91.2860 C.3    41  CYS41       0.0997
     18  SG        33.7890   81.3210   92.3020 S.3    41  CYS41      -0.0797
     19  N         34.1770   79.9070   89.3720 N.am   42  MET42      -0.1963
     20  CA        33.3770   79.3060   88.2860 C.3    42  MET42       0.1736
     21  C         33.1310   80.3550   87.2060 C.2    42  MET42       0.2617
     22  O         32.5810   81.4230   87.5050 O.2    42  MET42      -0.2715
     23  CB        32.0870   78.6850   88.8450 C.3    42  MET42       0.0427
     24  CG        32.2340   77.3870   89.5670 C.3    42  MET42       0.0599
     25  SD        32.6770   77.4880   91.3020 S.3    42  MET42      -0.1393
     26  CE        31.2580   78.3310   92.0080 C.3    42  MET42       0.0692
     27  N         33.5620   80.0800   85.9810 N.am   43  GLY43      -0.1955
     28  CA        33.4340   80.9830   84.8390 C.3    43  GLY43       0.1869
     29  C         34.7400   81.6440   84.4080 C.2    43  GLY43       0.2309
     30  O         34.8660   82.1970   83.3050 O.2    43  GLY43      -0.2863
     31  N         37.5610   79.8110   84.4180 N.3    45  SER45      -0.1217
     32  CA        38.2560   78.7070   83.7820 C.3    45  SER45       0.1889
     33  C         38.6640   78.9310   82.3280 C.2    45  SER45       0.2288
     34  O         37.8900   79.3850   81.4760 O.2    45  SER45      -0.2866
     35  CB        37.4780   77.3760   83.8180 C.3    45  SER45       0.2089
     36  OG        37.3350   77.0030   85.1960 O.3    45  SER45      -0.2183
     37  N         43.4600   79.0680   84.5380 N.3    63  VAL63      -0.1231
     38  CA        42.5340   78.7690   85.6660 C.3    63  VAL63       0.1692
     39  C         41.8630   77.4520   85.2800 C.2    63  VAL63       0.2593
     40  O         41.2920   77.2670   84.1960 O.2    63  VAL63      -0.2718
     41  CB        41.7500   79.9640   86.1480 C.3    63  VAL63       0.0266
     42  CG1       42.1060   81.2880   85.4500 C.3    63  VAL63       0.0020
     43  CG2       40.2490   79.7480   86.1510 C.3    63  VAL63       0.0020
     44  N         42.1360   76.4880   86.1290 N.am   64  SER64      -0.1938
     45  CA        41.7390   75.0900   85.9770 C.3    64  SER64       0.2055
     46  C         40.6980   74.7030   87.0130 C.2    64  SER64       0.2643
     47  O         39.5270   74.5000   86.6540 O.2    64  SER64      -0.2714
     48  CB        42.9900   74.2060   86.0010 C.3    64  SER64       0.2130
     49  OG        42.7130   72.8360   86.0320 O.3    64  SER64      -0.2179
     50  N         41.1180   74.6170   88.2680 N.am   65  TRP65      -0.1959
     51  CA        40.2760   74.2220   89.3860 C.3    65  TRP65       0.1771
     52  C         40.7180   74.8360   90.7130 C.2    65  TRP65       0.2620
     53  O         41.5890   75.6910   90.8320 O.2    65  TRP65      -0.2715
     54  CB        40.1700   72.7000   89.5360 C.3    65  TRP65       0.0590
     55  CG        41.4690   72.0260   89.7730 C.ar   65  TRP65       0.0006
     56  CD1       42.4280   71.7650   88.8310 C.ar   65  TRP65       0.0946
     57  CD2       41.9940   71.5270   91.0120 C.ar   65  TRP65       0.0152
     58  NE1       43.5050   71.1390   89.4010 N.ar   65  TRP65      -0.2442
     59  CE2       43.2690   70.9790   90.7360 C.ar   65  TRP65       0.0810
     60  CE3       41.5140   71.4950   92.3130 C.ar   65  TRP65       0.0012
     61  CZ2       44.0670   70.4100   91.7160 C.ar   65  TRP65       0.0191
     62  CZ3       42.3090   70.9380   93.2980 C.ar   65  TRP65       0.0001
     63  CH2       43.5630   70.4050   93.0060 C.ar   65  TRP65       0.0015
     64  N         40.0190   74.3580   91.7220 N.am   66  GLY66      -0.1940
     65  CA        40.1390   74.7320   93.1120 C.3    66  GLY66       0.2014
     66  C         38.7790   74.6070   93.8040 C.2    66  GLY66       0.2640
     67  O         37.8140   74.0220   93.3110 O.2    66  GLY66      -0.2714
     68  N         38.7640   75.2240   94.9580 N.am   67  SER67      -0.1935
     69  CA        37.6510   75.2760   95.8990 C.3    67  SER67       0.2055
     70  C         36.2950   75.3930   95.2220 C.2    67  SER67       0.2643
     71  O         36.0460   76.2390   94.3660 O.2    67  SER67      -0.2714
     72  CB        37.9120   76.3170   96.9660 C.3    67  SER67       0.2130
     73  OG        36.7730   77.0330   97.3970 O.3    67  SER67      -0.2179
     74  N         35.4300   74.4810   95.6180 N.am   68  SER68      -0.1949
     75  CA        34.0390   74.3080   95.2200 C.3    68  SER68       0.1924
     76  C         33.2340   75.5880   95.4880 C.2    68  SER68       0.2314
     77  O         32.3030   75.9240   94.7630 O.2    68  SER68      -0.2863
     78  CB        33.3930   73.1510   95.9890 C.3    68  SER68       0.2116
     79  OG        33.5720   73.2580   97.4010 O.3    68  SER68      -0.2180
     80  N         34.9580   78.5580   95.9590 N.3    70  CYS70      -0.1235
     81  CA        35.9220   79.5870   95.5750 C.3    70  CYS70       0.1677
     82  C         36.4390   80.3870   96.7640 C.2    70  CYS70       0.2270
     83  O         36.5700   81.6230   96.7420 O.2    70  CYS70      -0.2867
     84  CB        35.2820   80.5060   94.5130 C.3    70  CYS70       0.0956
     85  SG        34.3550   79.6050   93.2650 S.3    70  CYS70      -0.0801
     86  N         43.7630   78.5100   94.4440 N.3    76  GLY76      -0.1225
     87  CA        43.1850   78.0580   93.1660 C.3    76  GLY76       0.1811
     88  C         44.3010   77.3050   92.4070 C.2    76  GLY76       0.2280
     89  O         45.5020   77.5640   92.6300 O.2    76  GLY76      -0.2866
@<TRIPOS>BOND
     1    34    33    2
     2    33    32    1
     3    30    29    2
     4    32    35    1
     5    32    31    1
     6    35    36    1
     7    40    39    2
     8    29    28    1
     9    37    38    1
    10    28    27    1
    11    39    38    1
    12    39    44   am
    13    42    41    1
    14    38    41    1
    15    45    48    1
    16    45    44    1
    17    45    46    1
    18    27    21   am
    19    48    49    1
    20    41    43    1
    21    47    46    2
    22    46    50   am
    23    21    22    2
    24    21    20    1
    25    16    15    2
    26    50    51    1
    27    20    23    1
    28    20    19    1
    29    56    58   ar
    30    56    55   ar
    31    23    24    1
    32    12    11    1
    33    15    19   am
    34    15    14    1
    35    51    54    1
    36    51    52    1
    37    58    59   ar
    38    54    55    1
    39    24    25    1
    40    55    57   ar
    41    11     8    1
    42    13    14    1
    43    13     9   am
    44    14    17    1
    45    52    53    2
    46    52    64   am
    47    59    57   ar
    48    59    61   ar
    49     8     9    1
    50     8     7    1
    51    57    60   ar
    52     9    10    2
    53    17    18    1
    54    25    26    1
    55    61    63   ar
    56    64    65    1
    57     7     3   am
    58    18    85    1
    59    60    62   ar
    60    88    89    2
    61    88    87    1
    62     4     3    2
    63     3     2    1
    64    63    62   ar
    65    65    66    1
    66    87    86    1
    67    85    84    1
    68    67    66    2
    69    66    68   am
    70     6     5    1
    71     2     1    1
    72     2     5    1
    73    71    70    2
    74    84    81    1
    75    77    76    2
    76    68    69    1
    77    75    76    1
    78    75    74    1
    79    75    78    1
    80    70    74   am
    81    70    69    1
    82    81    80    1
    83    81    82    1
    84    69    72    1
    85    78    79    1
    86    83    82    2
    87    72    73    1
