@<TRIPOS>MOLECULE
tmp/6gciA01.pdb
 140 136 0 0 0
SMALL
GASTEIGER

@<TRIPOS>ATOM
      1  N        -22.7050   21.7590    0.3390 N.3   122  ALA122     -0.1231
      2  CA       -22.4130   20.3500    0.1610 C.3   122  ALA122      0.1694
      3  C        -23.5920   19.5770   -0.4220 C.2   122  ALA122      0.2592
      4  O        -23.3820   18.7370   -1.2930 O.2   122  ALA122     -0.2718
      5  CB       -22.0050   19.7450    1.4780 C.3   122  ALA122      0.0304
      6  N        -24.8160   19.8560    0.0310 N.am  123  THR123     -0.1953
      7  CA       -25.9940   19.1900   -0.5090 C.3   123  THR123      0.1897
      8  C        -26.1940   19.5770   -1.9640 C.2   123  THR123      0.2313
      9  O        -26.2730   18.6910   -2.8190 O.2   123  THR123     -0.2863
     10  CB       -27.2340   19.5240    0.2850 C.3   123  THR123      0.1794
     11  OG1      -27.0040   19.2740    1.6790 O.3   123  THR123     -0.2208
     12  CG2      -28.4470   18.7820   -0.2350 C.3   123  THR123      0.0378
     13  N        -23.8050   17.9450   -4.2010 N.3   126  LEU126     -0.1231
     14  CA       -24.1090   16.5330   -4.3760 C.3   126  LEU126      0.1693
     15  C        -25.1690   16.3360   -5.4500 C.2   126  LEU126      0.2592
     16  O        -25.1060   15.3700   -6.1800 O.2   126  LEU126     -0.2718
     17  CB       -24.5760   15.9360   -3.0420 C.3   126  LEU126      0.0284
     18  CG       -24.7530   14.4600   -2.9940 C.3   126  LEU126      0.0019
     19  CD1      -23.4290   13.7630   -3.1440 C.3   126  LEU126      0.0001
     20  CD2      -25.3650   14.0900   -1.7260 C.3   126  LEU126      0.0001
     21  N        -26.0970   17.2650   -5.5820 N.am  127  PHE127     -0.1976
     22  CA       -27.1560   17.1230   -6.5530 C.3   127  PHE127      0.1639
     23  C        -26.8110   17.6000   -7.9650 C.2   127  PHE127      0.2290
     24  O        -27.3020   16.9960   -8.9300 O.2   127  PHE127     -0.2864
     25  CB       -28.3640   17.9000   -6.0780 C.3   127  PHE127      0.0560
     26  CG       -29.2140   17.1740   -5.0840 C.ar  127  PHE127     -0.0200
     27  CD1      -30.3570   16.4980   -5.4900 C.ar  127  PHE127     -0.0042
     28  CD2      -28.9090   17.2090   -3.7260 C.ar  127  PHE127     -0.0042
     29  CE1      -31.1790   15.8630   -4.5530 C.ar  127  PHE127     -0.0003
     30  CE2      -29.7290   16.5820   -2.7890 C.ar  127  PHE127     -0.0003
     31  CZ       -30.8610   15.9150   -3.2030 C.ar  127  PHE127     -0.0000
     32  N        -20.9880    5.5960  -11.2950 N.3   169  ILE169     -0.1231
     33  CA       -21.3070    6.8590  -10.6270 C.3   169  ILE169      0.1692
     34  C        -20.0290    7.6760  -10.3180 C.2   169  ILE169      0.2591
     35  O        -20.0790    8.9030  -10.3560 O.2   169  ILE169     -0.2718
     36  CB       -22.1750    6.6050   -9.3530 C.3   169  ILE169      0.0266
     37  CG1      -22.7450    7.8960   -8.7520 C.3   169  ILE169      0.0019
     38  CG2      -21.4480    5.7870   -8.3010 C.3   169  ILE169      0.0020
     39  CD1      -23.8000    8.5600   -9.5930 C.3   169  ILE169      0.0001
     40  N        -18.8940    6.9940  -10.0480 N.am  170  ALA170     -0.1980
     41  CA       -17.6160    7.6290   -9.7390 C.3   170  ALA170      0.1597
     42  C        -17.1410    8.4590  -10.9100 C.2   170  ALA170      0.2287
     43  O        -16.5510    9.5130  -10.6940 O.2   170  ALA170     -0.2864
     44  CB       -16.5790    6.5790   -9.3860 C.3   170  ALA170      0.0319
     45  N        -19.0570   11.7990  -10.7950 N.3   173  TYR173     -0.1227
     46  CA       -18.6270   12.6040   -9.6600 C.3   173  TYR173      0.1736
     47  C        -17.1100   12.6050   -9.5490 C.2   173  TYR173      0.2595
     48  O        -16.5680   12.5810   -8.4410 O.2   173  TYR173     -0.2718
     49  CB       -19.2790   12.0710   -8.3660 C.3   173  TYR173      0.0548
     50  CG       -20.7370   12.4270   -8.2380 C.ar  173  TYR173     -0.0200
     51  CD1      -21.7070   11.7410   -8.9620 C.ar  173  TYR173     -0.0009
     52  CD2      -21.1470   13.4710   -7.4210 C.ar  173  TYR173     -0.0009
     53  CE1      -23.0450   12.0890   -8.8810 C.ar  173  TYR173      0.0417
     54  CE2      -22.4810   13.8350   -7.3340 C.ar  173  TYR173      0.0417
     55  CZ       -23.4300   13.1310   -8.0550 C.ar  173  TYR173      0.1957
     56  OH       -24.7620   13.4600   -7.9590 O.3   173  TYR173     -0.2866
     57  N        -16.4200   12.6370  -10.6920 N.am  174  ARG174     -0.1966
     58  CA       -14.9670   12.5950  -10.6980 C.3   174  ARG174      0.1729
     59  C        -14.4000   13.8820  -10.1100 C.2   174  ARG174      0.2617
     60  O        -14.7770   14.9690  -10.5460 O.2   174  ARG174     -0.2715
     61  CB       -14.4420   12.3290  -12.1080 C.3   174  ARG174      0.0348
     62  CG       -13.0070   11.8140  -12.1460 C.3   174  ARG174      0.0492
     63  CD       -12.7830   10.5240  -11.3590 C.3   174  ARG174      0.2205
     64  NE       -13.3720    9.3450  -12.0040 N.pl3 174  ARG174     -0.0865
     65  CZ       -13.2800    8.0980  -11.5380 C.cat 174  ARG174      0.5346
     66  NH1      -12.6130    7.8450  -10.4130 N.pl3 174  ARG174      0.1354
     67  NH2      -13.8460    7.0950  -12.1960 N.pl3 174  ARG174      0.1354
     68  N        -13.5550   13.7290   -9.0870 N.am  175  GLY175     -0.1940
     69  CA       -12.9340   14.8290   -8.3500 C.3   175  GLY175      0.2014
     70  C        -13.9010   15.5590   -7.4310 C.2   175  GLY175      0.2639
     71  O        -13.8440   16.7910   -7.3140 O.2   175  GLY175     -0.2714
     72  N        -14.7960   14.7980   -6.7560 N.am  176  PHE176     -0.1959
     73  CA       -15.8440   15.3600   -5.8970 C.3   176  PHE176      0.1771
     74  C        -15.3190   15.8470   -4.5560 C.2   176  PHE176      0.2620
     75  O        -15.8110   16.8550   -4.0500 O.2   176  PHE176     -0.2715
     76  CB       -16.9680   14.3390   -5.6780 C.3   176  PHE176      0.0574
     77  CG       -18.1400   14.8230   -4.8560 C.ar  176  PHE176     -0.0200
     78  CD1      -19.1840   15.5200   -5.4490 C.ar  176  PHE176     -0.0042
     79  CD2      -18.2180   14.5460   -3.4950 C.ar  176  PHE176     -0.0042
     80  CE1      -20.2850   15.9220   -4.7000 C.ar  176  PHE176     -0.0003
     81  CE2      -19.3100   14.9620   -2.7470 C.ar  176  PHE176     -0.0003
     82  CZ       -20.3370   15.6440   -3.3550 C.ar  176  PHE176     -0.0000
     83  N        -14.3780   15.1120   -3.9830 N.am  177  GLY177     -0.1940
     84  CA       -13.8220   15.4090   -2.6710 C.3   177  GLY177      0.1998
     85  C        -13.2980   16.8190   -2.4750 C.2   177  GLY177      0.2480
     86  O        -13.8120   17.5540   -1.6240 O.2   177  GLY177     -0.2729
     87  N        -12.2720   17.2500   -3.2320 N.am  178  PRO178     -0.2726
     88  CA       -11.7490   18.6050   -3.0200 C.3   178  PRO178      0.1402
     89  C        -12.8840   19.5710   -3.3780 C.2   178  PRO178      0.2269
     90  O        -12.9790   20.6430   -2.7840 O.2   178  PRO178     -0.2865
     91  CB       -10.5780   18.6870   -4.0030 C.3   178  PRO178      0.0296
     92  CG       -10.8420   17.6310   -5.0110 C.3   178  PRO178      0.0237
     93  CD       -11.5270   16.5460   -4.2950 C.3   178  PRO178      0.0939
     94  N        -16.2150   19.2250   -2.7560 N.3   180  VAL180     -0.1231
     95  CA       -17.0510   19.4260   -1.5880 C.3   180  VAL180      0.1692
     96  C        -16.3920   20.1040   -0.3760 C.2   180  VAL180      0.2591
     97  O        -17.0610   20.8480    0.3430 O.2   180  VAL180     -0.2718
     98  CB       -17.7060   18.0650   -1.2760 C.3   180  VAL180      0.0266
     99  CG1      -16.7140   17.0530   -0.7360 C.3   180  VAL180      0.0020
    100  CG2      -18.8940   18.2160   -0.3430 C.3   180  VAL180      0.0020
    101  N        -15.0790   19.9270   -0.2000 N.am  181  ALA181     -0.1980
    102  CA       -14.3810   20.6200    0.8820 C.3   181  ALA181      0.1597
    103  C        -14.3660   22.1470    0.5970 C.2   181  ALA181      0.2287
    104  O        -14.7260   22.9570    1.4510 O.2   181  ALA181     -0.2864
    105  CB       -12.9710   20.0780    1.0180 C.3   181  ALA181      0.0319
    106  N        -17.8070   23.6210    0.9470 N.3   184  VAL184     -0.1245
    107  CA       -18.3310   23.6970    2.3060 C.3   184  VAL184      0.1561
    108  C        -17.7200   24.9340    2.9800 C.2   184  VAL184      0.2260
    109  O        -18.4180   25.6030    3.7430 O.2   184  VAL184     -0.2867
    110  CB       -18.1540   22.3980    3.1150 C.3   184  VAL184      0.0252
    111  CG1      -16.7050   22.1340    3.4820 C.3   184  VAL184      0.0019
    112  CG2      -19.0110   22.4160    4.3500 C.3   184  VAL184      0.0019
    113  N         -6.5480   18.7780   -9.8120 N.3   238  MET238     -0.1245
    114  CA        -6.8460   17.3460   -9.7880 C.3   238  MET238      0.1570
    115  C         -7.7370   16.9150  -10.9550 C.2   238  MET238      0.2261
    116  O         -7.5940   15.7930  -11.4390 O.2   238  MET238     -0.2867
    117  CB        -7.4800   16.9360   -8.4630 C.3   238  MET238      0.0387
    118  CG        -6.4600   16.6870   -7.3830 C.3   238  MET238      0.0595
    119  SD        -7.0850   15.6470   -6.0490 S.3   238  MET238     -0.1393
    120  CE        -7.1790   14.0300   -6.9020 C.3   238  MET238      0.0692
    121  N         -4.9010   11.4710   -4.5470 N.3   246  SER246     -0.1202
    122  CA        -5.5080   12.0950   -3.3550 C.3   246  SER246      0.2020
    123  C         -5.1270   13.5960   -3.2610 C.2   246  SER246      0.2619
    124  O         -4.0300   13.9990   -3.6570 O.2   246  SER246     -0.2717
    125  CB        -5.1360   11.3490   -2.0750 C.3   246  SER246      0.2103
    126  OG        -5.7480   11.9190   -0.9320 O.3   246  SER246     -0.2182
    127  N         -6.0520   14.4190   -2.7490 N.am  247  SER247     -0.1937
    128  CA        -5.9040   15.8670   -2.6150 C.3   247  SER247      0.2055
    129  C         -4.8060   16.2490   -1.6370 C.2   247  SER247      0.2642
    130  O         -4.2200   17.3210   -1.7820 O.2   247  SER247     -0.2714
    131  CB        -7.2210   16.5180   -2.1940 C.3   247  SER247      0.2130
    132  OG        -7.5620   16.2960   -0.8330 O.3   247  SER247     -0.2179
    133  N         -4.5250   15.3890   -0.6500 N.am  248  ILE248     -0.1977
    134  CA        -3.5120   15.6770    0.3570 C.3   248  ILE248      0.1596
    135  C         -2.1240   15.6060   -0.2930 C.2   248  ILE248      0.2287
    136  O         -1.3020   16.4890   -0.0330 O.2   248  ILE248     -0.2864
    137  CB        -3.6650   14.7750    1.6080 C.3   248  ILE248      0.0276
    138  CG1       -5.0710   14.9410    2.2490 C.3   248  ILE248      0.0022
    139  CG2       -2.5950   15.1030    2.6510 C.3   248  ILE248      0.0022
    140  CD1       -6.1480   13.9470    1.7950 C.3   248  ILE248      0.0001
@<TRIPOS>BOND
     1    67    65    1
     2    62    61    1
     3    62    63    1
     4    61    58    1
     5    64    65    2
     6    64    63    1
     7    65    66    1
     8   116   115    2
     9    32    33    1
    10   115   114    1
    11    42    43    2
    12    42    41    1
    13    45    46    1
    14    58    57    1
    15    58    59    1
    16    57    47   am
    17    33    34    1
    18    33    36    1
    19    60    59    2
    20    35    34    2
    21    34    40   am
    22    59    68   am
    23    40    41    1
    24   113   114    1
    25   114   117    1
    26    41    44    1
    27    46    47    1
    28    46    49    1
    29    39    37    1
    30    47    48    2
    31    36    37    1
    32    36    38    1
    33    68    69    1
    34    51    53   ar
    35    51    50   ar
    36    24    23    2
    37    53    55   ar
    38   117   118    1
    39    49    50    1
    40    69    70    1
    41    50    52   ar
    42    55    56    1
    43    55    54   ar
    44    23    22    1
    45    70    71    2
    46    70    72   am
    47    52    54   ar
    48   118   119    1
    49   120   119    1
    50    72    73    1
    51    22    25    1
    52    22    21    1
    53    16    15    2
    54    25    26    1
    55    73    76    1
    56    73    74    1
    57    76    77    1
    58    21    15   am
    59    27    26   ar
    60    27    29   ar
    61    15    14    1
    62    78    77   ar
    63    78    80   ar
    64    26    28   ar
    65    92    93    1
    66    92    91    1
    67    77    79   ar
    68    80    82   ar
    69    74    75    2
    70    74    83   am
    71    29    31   ar
    72   121   122    1
    73    14    13    1
    74    14    17    1
    75    93    87    1
    76    91    88    1
    77    83    84    1
    78    28    30   ar
    79   124   123    2
    80    79    81   ar
    81    89    88    1
    82    89    90    2
    83   122   123    1
    84   122   125    1
    85    82    81   ar
    86   123   127   am
    87    87    88    1
    88    87    85   am
    89    31    30   ar
    90    19    18    1
    91    17    18    1
    92    18    20    1
    93     9     8    2
    94    94    95    1
    95   127   128    1
    96    84    85    1
    97   128   131    1
    98   128   129    1
    99    85    86    2
   100   131   132    1
   101   125   126    1
   102     8     7    1
   103   130   129    2
   104   129   133   am
   105    95    98    1
   106    95    96    1
   107     4     3    2
   108    98    99    1
   109    98   100    1
   110   133   134    1
   111     7     6    1
   112     7    10    1
   113     3     6   am
   114     3     2    1
   115    96   101   am
   116    96    97    2
   117   135   136    2
   118   135   134    1
   119    12    10    1
   120   101   102    1
   121     2     1    1
   122     2     5    1
   123    10    11    1
   124   134   137    1
   125   103   102    1
   126   103   104    2
   127   102   105    1
   128   106   107    1
   129   137   138    1
   130   137   139    1
   131   140   138    1
   132   107   108    1
   133   107   110    1
   134   108   109    2
   135   110   111    1
   136   110   112    1
