@<TRIPOS>MOLECULE
tmp/6gciA03.pdb
 81 76 0 0 0
SMALL
GASTEIGER

@<TRIPOS>ATOM
      1  N        -15.2330   41.3310  -20.1610 N.3    30  LYS30      -0.1245
      2  CA       -14.0630   40.8910  -19.4220 C.3    30  LYS30       0.1561
      3  C        -13.4180   39.7070  -20.1180 C.2    30  LYS30       0.2260
      4  O        -12.2020   39.6400  -20.2350 O.2    30  LYS30      -0.2867
      5  CB       -14.4350   40.5020  -17.9930 C.3    30  LYS30       0.0271
      6  CG       -13.2380   40.3780  -17.0640 C.3    30  LYS30       0.0035
      7  CD       -13.6150   39.7140  -15.7520 C.3    30  LYS30       0.0206
      8  CE       -13.6160   38.2020  -15.8850 C.3    30  LYS30       0.1093
      9  NZ       -12.2390   37.6790  -16.0890 N.3    30  LYS30      -0.1314
     10  N         -9.8050   39.6570  -22.0950 N.3    34  GLN34      -0.1245
     11  CA        -8.8390   38.7220  -21.5310 C.3    34  GLN34       0.1566
     12  C         -8.3690   37.6640  -22.5270 C.2    34  GLN34       0.2260
     13  O         -7.1870   37.3360  -22.5790 O.2    34  GLN34      -0.2867
     14  CB        -9.4120   38.0420  -20.2870 C.3    34  GLN34       0.0367
     15  CG        -8.4750   37.0470  -19.6250 C.3    34  GLN34       0.0905
     16  CD        -9.1560   36.2590  -18.5260 C.2    34  GLN34       0.2608
     17  OE1      -10.3470   36.4300  -18.2690 O.2    34  GLN34      -0.2717
     18  NE2       -8.4000   35.3920  -17.8670 N.am   34  GLN34      -0.0878
     19  N        -11.4850   34.2780   -1.4500 N.3   226  ILE226     -0.1245
     20  CA       -10.0660   34.2150   -1.1390 C.3   226  ILE226      0.1561
     21  C         -9.7520   33.0540   -0.2100 C.2   226  ILE226      0.2260
     22  O         -8.7570   32.3580   -0.3860 O.2   226  ILE226     -0.2867
     23  CB        -9.5920   35.5060   -0.4530 C.3   226  ILE226      0.0252
     24  CG1       -9.7820   36.7060   -1.3780 C.3   226  ILE226      0.0019
     25  CG2       -8.1390   35.3800   -0.0310 C.3   226  ILE226      0.0019
     26  CD1       -9.3170   38.0130   -0.7760 C.3   226  ILE226      0.0001
     27  N          2.5260   30.2890   -1.9950 N.3   261  LYS261     -0.1245
     28  CA         2.0700   31.3960   -2.8270 C.3   261  LYS261      0.1561
     29  C          1.3740   30.9190   -4.0960 C.2   261  LYS261      0.2260
     30  O          0.4060   31.5220   -4.5500 O.2   261  LYS261     -0.2867
     31  CB         3.2400   32.3150   -3.1840 C.3   261  LYS261      0.0271
     32  CG         3.7700   33.0910   -1.9950 C.3   261  LYS261      0.0035
     33  CD         2.6180   33.6850   -1.1730 C.3   261  LYS261      0.0206
     34  CE         3.1370   34.4750    0.0300 C.3   261  LYS261      0.1093
     35  NZ         3.7150   33.6100    1.1080 N.3   261  LYS261     -0.1314
     36  N         -2.5200   30.2500   -4.0880 N.3   264  PHE264     -0.1227
     37  CA        -3.3470   31.4480   -4.1660 C.3   264  PHE264      0.1736
     38  C         -3.3690   32.1550   -5.5220 C.2   264  PHE264      0.2595
     39  O         -4.2410   32.9760   -5.7680 O.2   264  PHE264     -0.2718
     40  CB        -2.9600   32.4310   -3.0620 C.3   264  PHE264      0.0547
     41  CG        -3.1680   31.8920   -1.6800 C.ar  264  PHE264     -0.0202
     42  CD1       -4.3830   32.0470   -1.0400 C.ar  264  PHE264     -0.0042
     43  CD2       -2.1530   31.2190   -1.0260 C.ar  264  PHE264     -0.0042
     44  CE1       -4.5810   31.5470    0.2300 C.ar  264  PHE264     -0.0003
     45  CE2       -2.3420   30.7170    0.2450 C.ar  264  PHE264     -0.0003
     46  CZ        -3.5580   30.8810    0.8750 C.ar  264  PHE264     -0.0000
     47  N         -2.4380   31.8270   -6.4110 N.am  265  LYS265     -0.1966
     48  CA        -2.3700   32.5170   -7.6990 C.3   265  LYS265      0.1728
     49  C         -3.6590   32.3890   -8.5000 C.2   265  LYS265      0.2617
     50  O         -4.2080   31.3050   -8.6290 O.2   265  LYS265     -0.2715
     51  CB        -1.1960   31.9850   -8.5220 C.3   265  LYS265      0.0311
     52  CG         0.1470   32.1640   -7.8330 C.3   265  LYS265      0.0038
     53  CD         0.5220   33.5960   -7.6210 C.3   265  LYS265      0.0206
     54  CE         2.0340   33.7750   -7.6760 C.3   265  LYS265      0.1093
     55  NZ         2.6320   33.7810   -6.3230 N.3   265  LYS265     -0.1314
     56  N         -4.0820   33.4950   -9.1060 N.am  266  GLY266     -0.1940
     57  CA        -5.3220   33.5510   -9.8610 C.3   266  GLY266      0.2014
     58  C         -6.5170   33.9910   -9.0260 C.2   266  GLY266      0.2639
     59  O         -7.6530   33.9860   -9.5000 O.2   266  GLY266     -0.2714
     60  N         -6.2510   34.3870   -7.7840 N.am  267  ALA267     -0.1963
     61  CA        -7.2760   34.8400   -6.8360 C.3   267  ALA267      0.1728
     62  C         -8.0270   36.0960   -7.2750 C.2   267  ALA267      0.2617
     63  O         -9.2190   36.2410   -7.0150 O.2   267  ALA267     -0.2715
     64  CB        -6.6740   35.0550   -5.4560 C.3   267  ALA267      0.0334
     65  N         -7.3190   36.9990   -7.9370 N.am  268  GLY268     -0.1940
     66  CA        -7.8800   38.2660   -8.3660 C.3   268  GLY268      0.2014
     67  C         -9.0780   38.1840   -9.2920 C.2   268  GLY268      0.2638
     68  O         -9.9630   39.0340   -9.2330 O.2   268  GLY268     -0.2714
     69  N         -9.1200   37.1670  -10.1420 N.am  269  ALA269     -0.1977
     70  CA       -10.2110   37.0330  -11.1030 C.3   269  ALA269      0.1597
     71  C        -11.5960   36.9290  -10.4610 C.2   269  ALA269      0.2287
     72  O        -12.5610   37.4810  -10.9860 O.2   269  ALA269     -0.2864
     73  CB        -9.9610   35.8400  -12.0130 C.3   269  ALA269      0.0319
     74  N        -13.0910   38.4700   -8.4880 N.3   271  ILE271     -0.1245
     75  CA       -13.7080   39.8070   -8.2990 C.3   271  ILE271      0.1561
     76  C        -15.0460   39.9940   -9.0270 C.2   271  ILE271      0.2260
     77  O        -15.9310   40.6260   -8.4810 O.2   271  ILE271     -0.2867
     78  CB       -12.7680   40.9810   -8.6450 C.3   271  ILE271      0.0252
     79  CG1      -13.2630   42.2880   -8.0210 C.3   271  ILE271      0.0019
     80  CG2      -12.4500   41.0240  -10.1410 C.3   271  ILE271      0.0019
     81  CD1      -12.2200   43.3510   -7.9660 C.3   271  ILE271      0.0001
@<TRIPOS>BOND
     1    13    12    2
     2    12    11    1
     3    10    11    1
     4    11    14    1
     5    14    15    1
     6     4     3    2
     7     1     2    1
     8     3     2    1
     9    15    16    1
    10     2     5    1
    11    16    17    2
    12    16    18   am
    13     5     6    1
    14     6     7    1
    15     9     8    1
    16     8     7    1
    17    73    70    1
    18    70    71    1
    19    70    69    1
    20    72    71    2
    21    69    67   am
    22    80    78    1
    23    57    56    1
    24    57    58    1
    25    59    58    2
    26    67    68    2
    27    67    66    1
    28    56    49   am
    29    76    77    2
    30    76    75    1
    31    58    60   am
    32    78    75    1
    33    78    79    1
    34    50    49    2
    35    51    52    1
    36    51    48    1
    37    49    48    1
    38    74    75    1
    39    66    65    1
    40    79    81    1
    41    65    62   am
    42    52    53    1
    43    60    61    1
    44    48    47    1
    45    54    53    1
    46    54    55    1
    47    62    63    2
    48    62    61    1
    49    61    64    1
    50    47    38   am
    51    39    38    2
    52    38    37    1
    53    30    29    2
    54    37    36    1
    55    37    40    1
    56    29    28    1
    57    31    28    1
    58    31    32    1
    59    40    41    1
    60    28    27    1
    61    32    33    1
    62    41    42   ar
    63    41    43   ar
    64    19    20    1
    65    24    26    1
    66    24    23    1
    67    33    34    1
    68    20    23    1
    69    20    21    1
    70    42    44   ar
    71    43    45   ar
    72    23    25    1
    73    22    21    2
    74    34    35    1
    75    44    46   ar
    76    45    46   ar
