@<TRIPOS>MOLECULE
tmp/6gciA02.pdb
 79 77 0 0 0
SMALL
GASTEIGER

@<TRIPOS>ATOM
      1  N        -27.9300   37.5230  -15.1670 N.3    21  THR21      -0.1218
      2  CA       -28.2990   38.3160  -16.3390 C.3    21  THR21       0.1862
      3  C        -27.8550   39.7750  -16.1560 C.2    21  THR21       0.2287
      4  O        -27.3860   40.3760  -17.1150 O.2    21  THR21      -0.2866
      5  CB       -29.7900   38.2090  -16.6170 C.3    21  THR21       0.1770
      6  OG1      -30.4820   38.4860  -15.4110 O.3    21  THR21      -0.2211
      7  CG2      -30.2000   36.8330  -17.0770 C.3    21  THR21       0.0375
      8  N        -27.8950   43.4460  -27.4290 N.3    66  MET66      -0.1245
      9  CA       -28.1550   42.0790  -26.9810 C.3    66  MET66       0.1570
     10  C        -26.9130   41.1890  -27.0870 C.2    66  MET66       0.2261
     11  O        -26.7920   40.2490  -26.3030 O.2    66  MET66      -0.2867
     12  CB       -29.3060   41.4570  -27.7790 C.3    66  MET66       0.0387
     13  CG       -30.6570   42.1010  -27.6950 C.3    66  MET66       0.0595
     14  SD       -31.2970   41.8180  -26.0030 S.3    66  MET66      -0.1393
     15  CE       -31.0370   40.1440  -25.6780 C.3    66  MET66       0.0692
     16  N        -25.0500   39.8610  -24.0770 N.3    69  TRP69      -0.1227
     17  CA       -25.5660   38.7580  -23.2720 C.3    69  TRP69       0.1737
     18  C        -25.3800   37.4080  -23.9710 C.2    69  TRP69       0.2595
     19  O        -26.1730   36.4950  -23.7510 O.2    69  TRP69      -0.2718
     20  CB       -27.0450   38.9990  -22.9350 C.3    69  TRP69       0.0564
     21  CG       -27.2670   40.0110  -21.8530 C.ar   69  TRP69       0.0003
     22  CD1      -27.4900   39.7600  -20.5350 C.ar   69  TRP69       0.0946
     23  CD2      -27.3120   41.4380  -22.0040 C.ar   69  TRP69       0.0152
     24  NE1      -27.6350   40.9430  -19.8460 N.ar   69  TRP69      -0.2442
     25  CE2      -27.5390   41.9870  -20.7240 C.ar   69  TRP69       0.0810
     26  CE3      -27.1690   42.3070  -23.0970 C.ar   69  TRP69       0.0012
     27  CZ2      -27.6320   43.3580  -20.5060 C.ar   69  TRP69       0.0191
     28  CZ3      -27.2610   43.6670  -22.8750 C.ar   69  TRP69       0.0001
     29  CH2      -27.4890   44.1790  -21.5920 C.ar   69  TRP69       0.0015
     30  N        -24.3460   37.2670  -24.8100 N.am   70  ARG70      -0.1966
     31  CA       -24.1210   35.9900  -25.4750 C.3    70  ARG70       0.1729
     32  C        -23.5380   34.9960  -24.4590 C.2    70  ARG70       0.2617
     33  O        -22.6150   35.3410  -23.6900 O.2    70  ARG70      -0.2715
     34  CB       -23.2270   36.1280  -26.7160 C.3    70  ARG70       0.0348
     35  CG       -23.1190   34.8420  -27.5370 C.3    70  ARG70       0.0492
     36  CD       -22.3410   35.0390  -28.8290 C.3    70  ARG70       0.2205
     37  NE       -23.1560   35.6490  -29.8960 N.pl3  70  ARG70      -0.0865
     38  CZ       -23.1380   36.9440  -30.2300 C.cat  70  ARG70       0.5346
     39  NH1      -22.3400   37.7930  -29.5880 N.pl3  70  ARG70       0.1354
     40  NH2      -23.9210   37.3990  -31.2020 N.pl3  70  ARG70       0.1354
     41  N        -24.1490   33.7980  -24.4610 N.am   71  GLY71      -0.1940
     42  CA       -23.8120   32.6400  -23.6360 C.3    71  GLY71       0.2014
     43  C        -24.4250   32.6390  -22.2550 C.2    71  GLY71       0.2639
     44  O        -24.1290   31.7380  -21.4630 O.2    71  GLY71      -0.2714
     45  N        -25.2700   33.6440  -21.9510 N.am   72  ASN72      -0.1958
     46  CA       -25.8320   33.8100  -20.6220 C.3    72  ASN72       0.1819
     47  C        -26.8640   32.7820  -20.2760 C.2    72  ASN72       0.2622
     48  O        -26.9180   32.3840  -19.1160 O.2    72  ASN72      -0.2715
     49  CB       -26.3990   35.1910  -20.4020 C.3    72  ASN72       0.1195
     50  CG       -26.5940   35.4890  -18.9370 C.2    72  ASN72       0.2630
     51  OD1      -27.7280   35.6230  -18.4860 O.2    72  ASN72      -0.2716
     52  ND2      -25.4980   35.5620  -18.1480 N.am   72  ASN72      -0.0877
     53  N        -27.6560   32.3170  -21.2440 N.am   73  THR73      -0.1937
     54  CA       -28.6870   31.2970  -20.9970 C.3    73  THR73       0.2028
     55  C        -28.0810   30.0430  -20.3460 C.2    73  THR73       0.2642
     56  O        -28.6390   29.5540  -19.3710 O.2    73  THR73      -0.2714
     57  CB       -29.4310   30.9670  -22.2820 C.3    73  THR73       0.1808
     58  OG1      -29.9240   32.1830  -22.8520 O.3    73  THR73      -0.2208
     59  CG2      -30.5720   30.0080  -22.0590 C.3    73  THR73       0.0379
     60  N        -26.9180   29.5760  -20.8360 N.am   74  ALA74      -0.1977
     61  CA       -26.2120   28.4210  -20.2870 C.3    74  ALA74       0.1597
     62  C        -25.7890   28.6600  -18.8620 C.2    74  ALA74       0.2287
     63  O        -25.8750   27.7430  -18.0560 O.2    74  ALA74      -0.2864
     64  CB       -24.9970   28.1030  -21.1230 C.3    74  ALA74       0.0319
     65  N        -27.3040   30.6380  -16.7870 N.3    76  VAL76      -0.1231
     66  CA       -28.4940   30.7130  -15.9660 C.3    76  VAL76       0.1692
     67  C        -29.0230   29.2950  -15.7490 C.2    76  VAL76       0.2591
     68  O        -29.4650   28.9980  -14.6530 O.2    76  VAL76      -0.2718
     69  CB       -29.5320   31.6750  -16.5700 C.3    76  VAL76       0.0266
     70  CG1      -30.8350   31.6530  -15.7940 C.3    76  VAL76       0.0020
     71  CG2      -28.9860   33.0910  -16.6150 C.3    76  VAL76       0.0020
     72  N        -28.9170   28.4010  -16.7410 N.am   77  ILE77      -0.1980
     73  CA       -29.3820   27.0230  -16.5690 C.3    77  ILE77       0.1595
     74  C        -28.4250   26.2720  -15.6470 C.2    77  ILE77       0.2287
     75  O        -28.8070   25.2500  -15.0710 O.2    77  ILE77      -0.2864
     76  CB       -29.6230   26.2610  -17.8890 C.3    77  ILE77       0.0276
     77  CG1      -28.2920   25.8800  -18.5650 C.3    77  ILE77       0.0022
     78  CG2      -30.5700   27.0340  -18.8050 C.3    77  ILE77       0.0022
     79  CD1      -28.3480   25.1180  -19.9220 C.3    77  ILE77       0.0001
@<TRIPOS>BOND
     1    40    38    1
     2    38    37    2
     3    38    39    1
     4    37    36    1
     5    36    35    1
     6    12    13    1
     7    12     9    1
     8    13    14    1
     9    35    34    1
    10     8     9    1
    11    10     9    1
    12    10    11    2
    13    34    31    1
    14    14    15    1
    15    31    30    1
    16    31    32    1
    17    30    18   am
    18    41    32   am
    19    41    42    1
    20    32    33    2
    21    16    17    1
    22    18    19    2
    23    18    17    1
    24    42    43    1
    25    17    20    1
    26    26    28   ar
    27    26    23   ar
    28    20    21    1
    29    28    29   ar
    30    58    57    1
    31    57    59    1
    32    57    54    1
    33    43    45   am
    34    43    44    2
    35    23    21   ar
    36    23    25   ar
    37    45    46    1
    38    21    22   ar
    39    29    27   ar
    40    53    54    1
    41    53    47   am
    42    64    61    1
    43    54    55    1
    44    60    55   am
    45    60    61    1
    46    25    27   ar
    47    25    24   ar
    48    46    49    1
    49    46    47    1
    50    22    24   ar
    51    49    50    1
    52    55    56    2
    53    61    62    1
    54    47    48    2
    55    79    77    1
    56    50    51    2
    57    50    52   am
    58    62    63    2
    59    78    76    1
    60    77    76    1
    61    76    73    1
    62     4     3    2
    63     7     5    1
    64    65    66    1
    65    72    73    1
    66    72    67   am
    67     5     2    1
    68     5     6    1
    69    71    69    1
    70    69    66    1
    71    69    70    1
    72    73    74    1
    73     2     3    1
    74     2     1    1
    75    66    67    1
    76    67    68    2
    77    74    75    2
