@<TRIPOS>MOLECULE
tmp/6gciA00.pdb
 214 202 0 0 0
SMALL
GASTEIGER

@<TRIPOS>ATOM
      1  N        -27.3350   36.9160  -12.4480 N.3    20  LYS20      -0.1245
      2  CA       -26.4540   36.4840  -13.5260 C.3    20  LYS20       0.1561
      3  C        -26.6510   37.3240  -14.7590 C.2    20  LYS20       0.2260
      4  O        -25.6600   37.8040  -15.3210 O.2    20  LYS20      -0.2867
      5  CB       -26.6650   35.0110  -13.8580 C.3    20  LYS20       0.0271
      6  CG       -25.6390   34.1110  -13.2480 C.3    20  LYS20       0.0035
      7  CD       -24.2700   34.3550  -13.7970 C.3    20  LYS20       0.0206
      8  CE       -23.2400   33.6190  -12.9820 C.3    20  LYS20       0.1093
      9  NZ       -21.8500   33.9450  -13.4020 N.3    20  LYS20      -0.1314
     10  N        -27.1910   26.7780  -15.4910 N.3    78  ARG78      -0.1231
     11  CA       -26.2370   26.1800  -14.5600 C.3    78  ARG78       0.1694
     12  C        -26.4650   26.7530  -13.1620 C.2    78  ARG78       0.2592
     13  O        -26.5820   26.0020  -12.1940 O.2    78  ARG78      -0.2718
     14  CB       -24.7800   26.4090  -15.0060 C.3    78  ARG78       0.0321
     15  CG       -23.7380   25.9790  -13.9640 C.3    78  ARG78       0.0489
     16  CD       -22.3180   26.3970  -14.3020 C.3    78  ARG78       0.2205
     17  NE       -22.2450   27.8040  -14.7030 N.pl3  78  ARG78      -0.0865
     18  CZ       -22.0980   28.8240  -13.8610 C.cat  78  ARG78       0.5346
     19  NH1      -22.0030   28.6070  -12.5520 N.pl3  78  ARG78       0.1354
     20  NH2      -22.0510   30.0710  -14.3210 N.pl3  78  ARG78       0.1354
     21  N        -26.5350   28.0750  -13.0740 N.am   79  TYR79      -0.1976
     22  CA       -26.6360   28.8080  -11.8350 C.3    79  TYR79       0.1639
     23  C        -27.9960   28.7080  -11.1360 C.2    79  TYR79       0.2290
     24  O        -28.0050   28.6310   -9.9120 O.2    79  TYR79      -0.2864
     25  CB       -26.3140   30.2590  -12.1220 C.3    79  TYR79       0.0560
     26  CG       -25.8250   31.0440  -10.9410 C.ar   79  TYR79      -0.0198
     27  CD1      -26.5120   32.1660  -10.4990 C.ar   79  TYR79      -0.0009
     28  CD2      -24.6390   30.7090  -10.3010 C.ar   79  TYR79      -0.0009
     29  CE1      -26.0510   32.9170   -9.4230 C.ar   79  TYR79       0.0417
     30  CE2      -24.1770   31.4380   -9.2080 C.ar   79  TYR79       0.0417
     31  CZ       -24.8720   32.5600   -8.7910 C.ar   79  TYR79       0.1957
     32  OH       -24.4060   33.2940   -7.7340 O.3    79  TYR79      -0.2866
     33  N        -28.4390   25.5430   -8.8740 N.3    82  THR82      -0.1203
     34  CA       -27.3540   25.6290   -7.9040 C.3    82  THR82       0.1994
     35  C        -27.7310   26.5600   -6.7520 C.2    82  THR82       0.2617
     36  O        -27.7790   26.1150   -5.5990 O.2    82  THR82      -0.2717
     37  CB       -26.0780   26.0850   -8.6100 C.3    82  THR82       0.1784
     38  OG1      -25.6690   25.0660   -9.5230 O.3    82  THR82      -0.2211
     39  CG2      -24.9460   26.4040   -7.6480 C.3    82  THR82       0.0376
     40  N        -28.0100   27.8320   -7.0600 N.am   83  GLN83      -0.1979
     41  CA       -28.3510   28.7990   -6.0340 C.3    83  GLN83       0.1601
     42  C        -29.6980   28.5270   -5.4430 C.2    83  GLN83       0.2287
     43  O        -29.8680   28.7480   -4.2440 O.2    83  GLN83      -0.2864
     44  CB       -28.2700   30.2210   -6.5510 C.3    83  GLN83       0.0394
     45  CG       -26.8340   30.6910   -6.7270 C.3    83  GLN83       0.0908
     46  CD       -26.0730   30.7360   -5.4200 C.2    83  GLN83       0.2608
     47  OE1      -25.4830   29.7570   -4.9700 O.2    83  GLN83      -0.2717
     48  NE2      -26.0770   31.8740   -4.7620 N.am   83  GLN83      -0.0878
     49  N        -29.1090   25.9240   -2.9530 N.3    86  ASN86      -0.1240
     50  CA       -28.3210   26.5090   -1.8750 C.3    86  ASN86       0.1653
     51  C        -29.1570   27.3090   -0.8990 C.2    86  ASN86       0.2266
     52  O        -28.9650   27.1570    0.2960 O.2    86  ASN86      -0.2867
     53  CB       -27.2400   27.4090   -2.4420 C.3    86  ASN86       0.1155
     54  CG       -25.9620   26.7290   -2.7590 C.2    86  ASN86       0.2627
     55  OD1      -25.6100   25.6620   -2.2400 O.2    86  ASN86      -0.2716
     56  ND2      -25.2300   27.3850   -3.5910 N.am   86  ASN86      -0.0877
     57  N        -24.2720   24.0480    0.8500 N.3   121  GLY121     -0.1225
     58  CA       -23.3130   24.0010   -0.2560 C.3   121  GLY121      0.1811
     59  C        -23.0140   22.5830   -0.6500 C.2   121  GLY121      0.2280
     60  O        -23.1750   22.2250   -1.8020 O.2   121  GLY121     -0.2866
     61  N        -26.2560   20.8940   -2.2630 N.3   124  SER124     -0.1202
     62  CA       -26.4590   21.3530   -3.6430 C.3   124  SER124      0.2020
     63  C        -25.4570   20.7020   -4.5580 C.2   124  SER124      0.2618
     64  O        -25.8690   20.1190   -5.5510 O.2   124  SER124     -0.2717
     65  CB       -26.3660   22.8720   -3.7470 C.3   124  SER124      0.2103
     66  OG       -27.2580   23.5000   -2.8430 O.3   124  SER124     -0.2182
     67  N        -24.1650   20.6960   -4.1560 N.am  125  LEU125     -0.1979
     68  CA       -23.0620   20.1230   -4.9220 C.3   125  LEU125      0.1596
     69  C        -23.3220   18.6700   -5.1960 C.2   125  LEU125      0.2287
     70  O        -23.1410   18.2240   -6.3250 O.2   125  LEU125     -0.2864
     71  CB       -21.7130   20.3110   -4.2130 C.3   125  LEU125      0.0297
     72  CG       -20.5030   19.8510   -4.9900 C.3   125  LEU125      0.0022
     73  CD1      -20.0940   20.8670   -5.9700 C.3   125  LEU125      0.0001
     74  CD2      -19.3660   19.5770   -4.0960 C.3   125  LEU125      0.0001
     75  N        -26.0140   18.6900   -8.1050 N.3   128  VAL128     -0.1231
     76  CA       -25.7360   19.3010   -9.4080 C.3   128  VAL128      0.1692
     77  C        -24.3450   18.8970  -10.0480 C.2   128  VAL128      0.2592
     78  O        -24.1970   19.0120  -11.2670 O.2   128  VAL128     -0.2718
     79  CB       -25.8930   20.8400   -9.2890 C.3   128  VAL128      0.0266
     80  CG1      -24.7790   21.4690   -8.4480 C.3   128  VAL128      0.0020
     81  CG2      -26.0050   21.4980  -10.6780 C.3   128  VAL128      0.0020
     82  N        -23.3810   18.4050   -9.2500 N.am  129  TYR129     -0.1976
     83  CA       -22.0440   18.0480   -9.7090 C.3   129  TYR129      0.1639
     84  C        -22.0330   17.2180  -10.9800 C.2   129  TYR129      0.2290
     85  O        -21.3410   17.6070  -11.9120 O.2   129  TYR129     -0.2864
     86  CB       -21.2650   17.3180   -8.6250 C.3   129  TYR129      0.0560
     87  CG       -19.7710   17.3310   -8.8420 C.ar  129  TYR129     -0.0198
     88  CD1      -18.9880   18.3800   -8.3730 C.ar  129  TYR129     -0.0009
     89  CD2      -19.1330   16.2840   -9.5000 C.ar  129  TYR129     -0.0009
     90  CE1      -17.6060   18.3980   -8.5720 C.ar  129  TYR129      0.0417
     91  CE2      -17.7490   16.2760   -9.6810 C.ar  129  TYR129      0.0417
     92  CZ       -16.9890   17.3380   -9.2160 C.ar  129  TYR129      0.1957
     93  OH       -15.6290   17.3510   -9.3810 O.3   129  TYR129     -0.2866
     94  N        -22.8980   19.2240  -14.0640 N.3   132  ASP132     -0.1239
     95  CA       -21.8320   20.1230  -14.4610 C.3   132  ASP132      0.1674
     96  C        -20.8110   19.3620  -15.2390 C.2   132  ASP132      0.2266
     97  O        -20.3690   19.8640  -16.2580 O.2   132  ASP132     -0.2867
     98  CB       -21.2010   20.8050  -13.2380 C.3   132  ASP132      0.1410
     99  CG       -20.1010   21.7880  -13.5820 C.2   132  ASP132      0.3668
    100  OD1      -20.4090   22.8340  -14.2290 O.co2 132  ASP132     -0.2456
    101  OD2      -18.9290   21.5170  -13.2190 O.co2 132  ASP132     -0.2456
    102  N        -12.2720   17.2500   -3.2320 N.3   178  PRO178     -0.2102
    103  CA       -11.7490   18.6050   -3.0200 C.3   178  PRO178      0.1504
    104  C        -12.8840   19.5710   -3.3780 C.2   178  PRO178      0.2576
    105  O        -12.9790   20.6430   -2.7840 O.2   178  PRO178     -0.2718
    106  CB       -10.5780   18.6870   -4.0030 C.3   178  PRO178      0.0282
    107  CG       -10.8420   17.6310   -5.0110 C.3   178  PRO178      0.0208
    108  CD       -11.5270   16.5460   -4.2950 C.3   178  PRO178      0.0893
    109  N        -13.7740   19.1600   -4.2980 N.am  179  SER179     -0.1953
    110  CA       -14.9230   19.9760   -4.6840 C.3   179  SER179      0.1924
    111  C        -15.8750   20.2630   -3.5070 C.2   179  SER179      0.2314
    112  O        -16.2080   21.4090   -3.2340 O.2   179  SER179     -0.2863
    113  CB       -15.6210   19.3830   -5.9030 C.3   179  SER179      0.2116
    114  OG       -14.7770   19.3550   -7.0370 O.3   179  SER179     -0.2180
    115  N        -14.0110   22.5020   -0.6390 N.3   182  GLY182     -0.1210
    116  CA       -13.9780   23.8880   -1.1010 C.3   182  GLY182      0.1956
    117  C        -15.3260   24.5710   -1.0430 C.2   182  GLY182      0.2611
    118  O        -15.4090   25.7500   -0.6840 O.2   182  GLY182     -0.2717
    119  N        -16.3880   23.8240   -1.3700 N.am  183  ILE183     -0.1979
    120  CA       -17.7020   24.4070   -1.3730 C.3   183  ILE183      0.1595
    121  C        -18.2420   24.5040    0.0320 C.2   183  ILE183      0.2287
    122  O        -19.0510   25.3950    0.2890 O.2   183  ILE183     -0.2864
    123  CB       -18.6730   23.6740   -2.3060 C.3   183  ILE183      0.0276
    124  CG1      -19.9760   24.4620   -2.4970 C.3   183  ILE183      0.0022
    125  CG2      -18.9690   22.2590   -1.8160 C.3   183  ILE183      0.0022
    126  CD1      -19.8390   25.7030   -3.1820 C.3   183  ILE183      0.0001
    127  N        -16.4340   27.6860    1.1730 N.3   186  TYR186     -0.1227
    128  CA       -16.9610   28.8380    0.4690 C.3   186  TYR186      0.1736
    129  C        -18.4080   29.1450    0.8550 C.2   186  TYR186      0.2595
    130  O        -18.6830   30.2710    1.2460 O.2   186  TYR186     -0.2718
    131  CB       -16.8310   28.6890   -1.0540 C.3   186  TYR186      0.0548
    132  CG       -17.4260   29.8620   -1.7980 C.ar  186  TYR186     -0.0200
    133  CD1      -16.7910   31.1030   -1.8060 C.ar  186  TYR186     -0.0009
    134  CD2      -18.6620   29.7570   -2.4270 C.ar  186  TYR186     -0.0009
    135  CE1      -17.3580   32.2000   -2.4470 C.ar  186  TYR186      0.0417
    136  CE2      -19.2290   30.8440   -3.0890 C.ar  186  TYR186      0.0417
    137  CZ       -18.5710   32.0630   -3.0940 C.ar  186  TYR186      0.1957
    138  OH       -19.1100   33.1400   -3.7340 O.3   186  TYR186     -0.2866
    139  N        -19.3150   28.1780    0.7560 N.am  187  ARG187     -0.1980
    140  CA       -20.7030   28.4530    1.1040 C.3   187  ARG187      0.1597
    141  C        -20.8790   28.7170    2.6090 C.2   187  ARG187      0.2287
    142  O        -21.7530   29.5090    2.9930 O.2   187  ARG187     -0.2864
    143  CB       -21.6330   27.3420    0.6310 C.3   187  ARG187      0.0334
    144  CG       -21.7720   27.3080   -0.8680 C.3   187  ARG187      0.0492
    145  CD       -22.2840   28.6130   -1.4330 C.3   187  ARG187      0.2205
    146  NE       -22.2050   28.6030   -2.8900 N.pl3 187  ARG187     -0.0865
    147  CZ       -22.5270   29.6280   -3.6640 C.cat 187  ARG187      0.5346
    148  NH1      -22.9700   30.7530   -3.1310 N.pl3 187  ARG187      0.1354
    149  NH2      -22.4160   29.5340   -4.9770 N.pl3 187  ARG187      0.1354
    150  N        -19.7420   32.2410    2.9150 N.3   190  TYR190     -0.1241
    151  CA       -20.7050   33.0070    2.1440 C.3   190  TYR190      0.1605
    152  C        -21.9890   33.2570    2.9720 C.2   190  TYR190      0.2264
    153  O        -22.2060   34.3690    3.4670 O.2   190  TYR190     -0.2867
    154  CB       -21.0140   32.2370    0.8590 C.3   190  TYR190      0.0534
    155  CG       -22.0120   32.8770   -0.0640 C.ar  190  TYR190     -0.0201
    156  CD1      -21.6360   33.9020   -0.9190 C.ar  190  TYR190     -0.0009
    157  CD2      -23.2960   32.3730   -0.1800 C.ar  190  TYR190     -0.0009
    158  CE1      -22.5320   34.4420   -1.8340 C.ar  190  TYR190      0.0417
    159  CE2      -24.2170   32.9360   -1.0560 C.ar  190  TYR190      0.0417
    160  CZ       -23.8260   33.9580   -1.8970 C.ar  190  TYR190      0.1957
    161  OH       -24.7220   34.4940   -2.7880 O.3   190  TYR190     -0.2866
    162  N        -11.5410   30.2700    0.2270 N.3   228  SER228     -0.1217
    163  CA       -11.8180   28.9860   -0.3910 C.3   228  SER228      0.1889
    164  C        -10.9650   28.7400   -1.6380 C.2   228  SER228      0.2288
    165  O        -11.0550   27.6530   -2.2180 O.2   228  SER228     -0.2866
    166  CB       -13.3030   28.8710   -0.7280 C.3   228  SER228      0.2089
    167  OG       -13.6880   29.8310   -1.6960 O.3   228  SER228     -0.2183
    168  N         -8.4100   25.3840   -2.0340 N.3   231  LEU231     -0.1231
    169  CA        -9.1180   24.1480   -2.3300 C.3   231  LEU231      0.1693
    170  C         -9.5790   24.1290   -3.7760 C.2   231  LEU231      0.2592
    171  O         -9.7190   23.0540   -4.3550 O.2   231  LEU231     -0.2718
    172  CB       -10.2890   23.9440   -1.3730 C.3   231  LEU231      0.0284
    173  CG        -9.8960   23.6170    0.0490 C.3   231  LEU231      0.0019
    174  CD1      -11.0910   23.4610    0.9020 C.3   231  LEU231      0.0001
    175  CD2       -9.0600   22.3610    0.1200 C.3   231  LEU231      0.0001
    176  N         -9.7710   25.3160   -4.3700 N.am  232  ASP232     -0.1974
    177  CA       -10.1330   25.4320   -5.7780 C.3   232  ASP232      0.1709
    178  C         -8.9100   25.1460   -6.6370 C.2   232  ASP232      0.2293
    179  O         -9.0580   24.5820   -7.7180 O.2   232  ASP232     -0.2864
    180  CB       -10.7230   26.8090   -6.1080 C.3   232  ASP232      0.1436
    181  CG       -10.9410   27.0220   -7.5930 C.2   232  ASP232      0.3671
    182  OD1      -11.9250   26.4740   -8.1360 O.co2 232  ASP232     -0.2456
    183  OD2      -10.0990   27.6990   -8.2250 O.co2 232  ASP232     -0.2456
    184  N         -8.5690   21.4690   -6.5370 N.3   235  ARG235     -0.1245
    185  CA        -9.6930   20.9150   -7.2950 C.3   235  ARG235      0.1563
    186  C         -9.4110   20.9500   -8.7790 C.2   235  ARG235      0.2260
    187  O         -9.3920   19.8930   -9.3950 O.2   235  ARG235     -0.2867
    188  CB       -10.9940   21.6700   -6.9760 C.3   235  ARG235      0.0307
    189  CG       -12.2100   21.1770   -7.7560 C.3   235  ARG235      0.0489
    190  CD       -13.3590   22.1600   -7.6910 C.3   235  ARG235      0.2205
    191  NE       -13.0800   23.3870   -8.4380 N.pl3 235  ARG235     -0.0865
    192  CZ       -13.5670   23.6660   -9.6440 C.cat 235  ARG235      0.5346
    193  NH1      -14.3870   22.8100  -10.2520 N.pl3 235  ARG235      0.1354
    194  NH2      -13.2520   24.8070  -10.2470 N.pl3 235  ARG235      0.1354
    195  N        -17.0980   37.4420  -10.1510 N.3   273  ARG273     -0.1245
    196  CA       -17.9540   36.3900   -9.6030 C.3   273  ARG273      0.1563
    197  C        -18.5010   36.8910   -8.2360 C.2   273  ARG273      0.2260
    198  O        -19.6710   36.6560   -7.9010 O.2   273  ARG273     -0.2867
    199  CB       -17.1430   35.0930   -9.4730 C.3   273  ARG273      0.0307
    200  CG       -17.8330   33.9840   -8.7070 C.3   273  ARG273      0.0489
    201  CD       -17.0060   32.7190   -8.6830 C.3   273  ARG273      0.2205
    202  NE       -15.9780   32.6820   -7.6350 N.pl3 273  ARG273     -0.0865
    203  CZ       -14.6690   32.5630   -7.8660 C.cat 273  ARG273      0.5346
    204  NH1      -14.2030   32.5400   -9.1110 N.pl3 273  ARG273      0.1354
    205  NH2      -13.8150   32.4940   -6.8540 N.pl3 273  ARG273      0.1354
    206  N        -21.7000   38.8200   -8.7320 N.3   276  ALA276     -0.1231
    207  CA       -22.8100   37.8990   -8.9860 C.3   276  ALA276      0.1694
    208  C        -23.3260   37.3110   -7.6670 C.2   276  ALA276      0.2592
    209  O        -24.4740   37.5450   -7.3080 O.2   276  ALA276     -0.2718
    210  CB       -22.3840   36.7980   -9.9450 C.3   276  ALA276      0.0304
    211  N        -22.4460   36.6680   -6.9060 N.am  277  GLY277     -0.1957
    212  CA       -22.7950   36.0860   -5.6180 C.3   277  GLY277      0.1869
    213  C        -23.4630   37.0710   -4.7110 C.2   277  GLY277      0.2309
    214  O        -24.5540   36.7910   -4.2340 O.2   277  GLY277     -0.2863
@<TRIPOS>BOND
     1    97    96    2
     2    10    11    1
     3     4     3    2
     4    96    95    1
     5    14    11    1
     6    14    15    1
     7     3     2    1
     8    17    16    1
     9    17    18    2
    10    11    12    1
    11    95    94    1
    12    95    98    1
    13    20    18    1
    14    16    15    1
    15   100    99   ar
    16    18    19    1
    17     5     2    1
    18     5     6    1
    19     7     6    1
    20     7     8    1
    21    99    98    1
    22    99   101   ar
    23     2     1    1
    24     9     8    1
    25    12    21   am
    26    12    13    2
    27    21    22    1
    28    25    22    1
    29    25    26    1
    30    85    84    2
    31    22    23    1
    32    78    77    2
    33    23    24    2
    34    84    83    1
    35    26    27   ar
    36    26    28   ar
    37    81    79    1
    38    27    29   ar
    39    28    30   ar
    40   193   192    1
    41   194   192    1
    42   195   196    1
    43    77    76    1
    44    77    82   am
    45   210   207    1
    46    83    82    1
    47    83    86    1
    48    91    89   ar
    49    91    92   ar
    50   192   191    2
    51   196   199    1
    52   196   197    1
    53    38    37    1
    54    89    87   ar
    55   199   200    1
    56    29    31   ar
    57    76    79    1
    58    76    75    1
    59   187   186    2
    60    93    92    1
    61    79    80    1
    62    92    90   ar
    63    30    31   ar
    64   204   203    1
    65   207   206    1
    66   207   208    1
    67    33    34    1
    68    87    86    1
    69    87    88   ar
    70    31    32    1
    71   186   185    1
    72   200   201    1
    73   201   202    1
    74    37    34    1
    75    37    39    1
    76    90    88   ar
    77   191   190    1
    78   197   198    2
    79   183   181   ar
    80   182   181   ar
    81    34    35    1
    82   203   202    2
    83   203   205    1
    84   189   190    1
    85   189   188    1
    86   179   178    2
    87   208   209    2
    88   208   211   am
    89   181   180    1
    90   185   188    1
    91   185   184    1
    92    40    35   am
    93    40    41    1
    94   114   113    1
    95   211   212    1
    96    35    36    2
    97    45    44    1
    98    45    46    1
    99   178   177    1
   100    44    41    1
   101    70    69    2
   102   180   177    1
   103    41    42    1
   104    73    72    1
   105   113   110    1
   106   177   176    1
   107   212   213    1
   108    64    63    2
   109    42    43    2
   110    46    47    2
   111    46    48   am
   112    69    68    1
   113   107   108    1
   114   107   106    1
   115    72    71    1
   116    72    74    1
   117   149   147    1
   118    68    71    1
   119    68    67    1
   120   213   214    2
   121   110   109    1
   122   110   111    1
   123    63    67   am
   124    63    62    1
   125   176   170   am
   126   171   170    2
   127   109   104   am
   128   108   102    1
   129   106   103    1
   130   170   169    1
   131    65    62    1
   132    65    66    1
   133   138   137    1
   134   147   148    1
   135   147   146    2
   136    62    61    1
   137    56    54   am
   138   111   112    2
   139   104   103    1
   140   104   105    2
   141   102   103    1
   142   126   124    1
   143   137   136   ar
   144   137   135   ar
   145   136   134   ar
   146    49    50    1
   147   146   145    1
   148   161   160    1
   149    54    53    1
   150    54    55    2
   151   124   123    1
   152   135   133   ar
   153    53    50    1
   154   134   132   ar
   155   169   168    1
   156   169   172    1
   157   123   125    1
   158   123   120    1
   159   165   164    2
   160   160   158   ar
   161   160   159   ar
   162    50    51    1
   163   158   156   ar
   164   133   132   ar
   165    60    59    2
   166   132   131    1
   167   167   166    1
   168   164   163    1
   169   145   144    1
   170   120   119    1
   171   120   121    1
   172   172   173    1
   173   119   117   am
   174   116   117    1
   175   116   115    1
   176   159   157   ar
   177   131   128    1
   178   117   118    2
   179   156   155   ar
   180    51    52    2
   181   144   143    1
   182   166   163    1
   183    59    58    1
   184   163   162    1
   185    58    57    1
   186   157   155   ar
   187   155   154    1
   188   121   122    2
   189   173   175    1
   190   173   174    1
   191   128   129    1
   192   128   127    1
   193   143   140    1
   194   139   129   am
   195   139   140    1
   196   129   130    2
   197   154   151    1
   198   140   141    1
   199   151   150    1
   200   151   152    1
   201   141   142    2
   202   152   153    2
