@<TRIPOS>MOLECULE
tmp/6gcnB00.pdb
 140 133 0 0 0
SMALL
GASTEIGER

@<TRIPOS>ATOM
      1  N        -94.9500  117.3200   48.4850 N.3    15  ASP15      -0.1225
      2  CA       -96.2510  117.9750   48.3950 C.3    15  ASP15       0.1805
      3  C        -96.3380  119.0310   47.3000 C.2    15  ASP15       0.2598
      4  O        -97.4280  119.5630   47.0650 O.2    15  ASP15      -0.2718
      5  CB       -96.5960  118.6210   49.7380 C.3    15  ASP15       0.1424
      6  CG       -96.4870  117.6460   50.8920 C.2    15  ASP15       0.3668
      7  OD1      -97.1870  116.6100   50.8610 O.co2  15  ASP15      -0.2456
      8  OD2      -95.6910  117.9060   51.8200 O.co2  15  ASP15      -0.2456
      9  N        -95.2300  119.3580   46.6470 N.am   16  VAL16      -0.1966
     10  CA       -95.2020  120.3240   45.5530 C.3    16  VAL16       0.1727
     11  C        -94.9930  119.5570   44.2600 C.2    16  VAL16       0.2616
     12  O        -94.2320  118.5840   44.2190 O.2    16  VAL16      -0.2715
     13  CB       -94.1040  121.3890   45.7370 C.3    16  VAL16       0.0290
     14  CG1      -94.4730  122.3410   46.8540 C.3    16  VAL16       0.0023
     15  CG2      -92.8080  120.7360   46.0570 C.3    16  VAL16       0.0023
     16  N        -95.6580  120.0010   43.2000 N.am   17  ALA17      -0.1977
     17  CA       -95.6500  119.2760   41.9420 C.3    17  ALA17       0.1597
     18  C        -95.6270  120.2440   40.7700 C.2    17  ALA17       0.2287
     19  O        -96.2920  121.2820   40.7930 O.2    17  ALA17      -0.2864
     20  CB       -96.8780  118.3650   41.8400 C.3    17  ALA17       0.0319
     21  N        -92.9780  121.9270   39.2010 N.3    19  ILE19      -0.1245
     22  CA       -92.0530  123.0520   39.1230 C.3    19  ILE19       0.1561
     23  C        -90.6600  122.5660   39.4940 C.2    19  ILE19       0.2260
     24  O        -90.0320  123.0960   40.4160 O.2    19  ILE19      -0.2867
     25  CB       -92.4950  124.2100   40.0370 C.3    19  ILE19       0.0252
     26  CG1      -92.7910  123.6910   41.4470 C.3    19  ILE19       0.0019
     27  CG2      -93.7130  124.9170   39.4570 C.3    19  ILE19       0.0019
     28  CD1      -93.0890  124.7700   42.4540 C.3    19  ILE19       0.0001
     29  N       -102.1990  134.1110   42.0390 N.3    56  PRO56      -0.2102
     30  CA      -102.6280  133.5260   43.3150 C.3    56  PRO56       0.1504
     31  C       -102.9470  132.0460   43.1790 C.2    56  PRO56       0.2576
     32  O       -103.5830  131.6130   42.2160 O.2    56  PRO56      -0.2718
     33  CB      -103.8780  134.3370   43.6800 C.3    56  PRO56       0.0282
     34  CG      -103.8110  135.5670   42.8390 C.3    56  PRO56       0.0208
     35  CD      -103.1080  135.1760   41.5870 C.3    56  PRO56       0.0893
     36  N       -102.5090  131.2750   44.1700 N.am   57  GLY57      -0.1943
     37  CA      -102.7970  129.8560   44.2240 C.3    57  GLY57       0.2014
     38  C       -101.8540  128.9600   43.4540 C.2    57  GLY57       0.2639
     39  O       -102.1890  127.7910   43.2310 O.2    57  GLY57      -0.2714
     40  N       -100.6780  129.4570   43.0490 N.am   58  VAL58      -0.1963
     41  CA       -99.7190  128.6400   42.3060 C.3    58  VAL58       0.1727
     42  C        -98.7120  127.9390   43.2090 C.2    58  VAL58       0.2617
     43  O        -97.8750  127.1730   42.7090 O.2    58  VAL58      -0.2715
     44  CB       -98.9670  129.4790   41.2510 C.3    58  VAL58       0.0290
     45  CG1      -99.9510  130.0730   40.2610 C.3    58  VAL58       0.0023
     46  CG2      -98.1290  130.5630   41.9080 C.3    58  VAL58       0.0023
     47  N        -98.7480  128.1890   44.5170 N.am   59  GLY59      -0.1940
     48  CA       -97.9100  127.4550   45.4470 C.3    59  GLY59       0.2014
     49  C        -96.7240  128.2170   46.0030 C.2    59  GLY59       0.2639
     50  O        -95.7120  127.6090   46.3640 O.2    59  GLY59      -0.2714
     51  N        -96.8280  129.5450   46.0780 N.am   60  LYS60      -0.1963
     52  CA       -95.7490  130.3450   46.6480 C.3    60  LYS60       0.1728
     53  C        -95.5630  130.0310   48.1300 C.2    60  LYS60       0.2617
     54  O        -94.4850  129.6020   48.5620 O.2    60  LYS60      -0.2715
     55  CB       -96.0450  131.8330   46.4430 C.3    60  LYS60       0.0311
     56  CG       -96.0330  132.2740   44.9900 C.3    60  LYS60       0.0038
     57  CD       -96.3610  133.7590   44.8610 C.3    60  LYS60       0.0206
     58  CE       -97.7910  133.9730   44.3880 C.3    60  LYS60       0.1093
     59  NZ       -98.7770  133.3230   45.2920 N.3    60  LYS60      -0.1314
     60  N        -96.6170  130.2310   48.9280 N.am   61  THR61      -0.1937
     61  CA       -96.5460  129.8910   50.3450 C.3    61  THR61       0.2028
     62  C        -96.2310  128.4120   50.5210 C.2    61  THR61       0.2642
     63  O        -95.4500  128.0300   51.4030 O.2    61  THR61      -0.2714
     64  CB       -97.8590  130.2400   51.0540 C.3    61  THR61       0.1808
     65  OG1      -98.8370  129.2370   50.7660 O.3    61  THR61      -0.2208
     66  CG2      -98.4110  131.6120   50.6210 C.3    61  THR61       0.0379
     67  N        -96.8340  127.5620   49.6850 N.am   62  LEU62      -0.1977
     68  CA       -96.5330  126.1370   49.7330 C.3    62  LEU62       0.1596
     69  C        -95.0540  125.8890   49.4960 C.2    62  LEU62       0.2287
     70  O        -94.4340  125.0840   50.1960 O.2    62  LEU62      -0.2864
     71  CB       -97.3590  125.3880   48.6890 C.3    62  LEU62       0.0297
     72  CG       -97.0680  123.8880   48.5830 C.3    62  LEU62       0.0022
     73  CD1      -97.5170  123.1590   49.8400 C.3    62  LEU62       0.0001
     74  CD2      -97.7180  123.2900   47.3500 C.3    62  LEU62       0.0001
     75  N        -95.8940  136.9370   53.5680 N.3   113  ASP113     -0.1239
     76  CA       -96.8690  136.8860   52.4950 C.3   113  ASP113      0.1674
     77  C        -97.3920  138.2900   52.2160 C.2   113  ASP113      0.2266
     78  O        -97.4370  139.1450   53.1040 O.2   113  ASP113     -0.2867
     79  CB       -98.0210  135.9550   52.8740 C.3   113  ASP113      0.1410
     80  CG       -98.8470  135.5370   51.6840 C.2   113  ASP113      0.3668
     81  OD1      -98.4970  135.9240   50.5490 O.co2 113  ASP113     -0.2456
     82  OD2      -99.8480  134.8170   51.8870 O.co2 113  ASP113     -0.2456
     83  N        -98.5680  138.6210   44.8480 N.3   151  ASN151     -0.1240
     84  CA       -99.2800  138.4360   43.5900 C.3   151  ASN151      0.1653
     85  C        -99.1860  139.6490   42.6780 C.2   151  ASN151      0.2266
     86  O        -99.5700  139.5560   41.5070 O.2   151  ASN151     -0.2867
     87  CB      -100.7590  138.1180   43.8460 C.3   151  ASN151      0.1155
     88  CG      -100.9570  137.0190   44.8770 C.2   151  ASN151      0.2627
     89  OD1     -100.1810  136.0640   44.9480 O.2   151  ASN151     -0.2716
     90  ND2     -102.0010  137.1530   45.6870 N.am  151  ASN151     -0.0877
     91  N        -99.2320  125.5870   36.3290 N.3   175  PRO175     -0.2116
     92  CA       -98.8300  124.2450   35.8990 C.3   175  PRO175      0.1372
     93  C        -99.3800  123.9160   34.5210 C.2   175  PRO175      0.2244
     94  O       -100.5130  124.2640   34.1800 O.2   175  PRO175     -0.2868
     95  CB       -99.4360  123.3370   36.9760 C.3   175  PRO175      0.0268
     96  CG      -100.6300  124.0860   37.4480 C.3   175  PRO175      0.0207
     97  CD      -100.2600  125.5410   37.3840 C.3   175  PRO175      0.0892
     98  N       -100.0950  117.4900   40.4600 N.3   183  ILE183     -0.1245
     99  CA      -100.7610  118.1230   41.5990 C.3   183  ILE183      0.1561
    100  C       -101.9950  117.3230   42.0000 C.2   183  ILE183      0.2260
    101  O       -102.2570  117.1030   43.1950 O.2   183  ILE183     -0.2867
    102  CB      -101.1210  119.5840   41.2670 C.3   183  ILE183      0.0252
    103  CG1      -99.8530  120.4210   41.0870 C.3   183  ILE183      0.0019
    104  CG2     -101.9990  120.1920   42.3650 C.3   183  ILE183      0.0019
    105  CD1     -100.0980  121.7880   40.4630 C.3   183  ILE183      0.0001
    106  N       -100.8440  114.3970   43.9210 N.3   186  VAL186     -0.1231
    107  CA      -100.4200  114.7610   45.2740 C.3   186  VAL186      0.1692
    108  C       -101.6280  114.8790   46.1920 C.2   186  VAL186      0.2592
    109  O       -101.6590  114.3110   47.2900 O.2   186  VAL186     -0.2718
    110  CB       -99.6000  116.0650   45.2510 C.3   186  VAL186      0.0266
    111  CG1      -99.3690  116.5920   46.6620 C.3   186  VAL186      0.0020
    112  CG2      -98.2610  115.8330   44.5750 C.3   186  VAL186      0.0020
    113  N       -102.6460  115.6180   45.7560 N.am  187  HIS187     -0.1976
    114  CA      -103.8080  115.8250   46.6130 C.3   187  HIS187      0.1656
    115  C       -104.7400  114.6230   46.6580 C.2   187  HIS187      0.2291
    116  O       -105.6320  114.5850   47.5140 O.2   187  HIS187     -0.2864
    117  CB      -104.5790  117.0700   46.1830 C.3   187  HIS187      0.0771
    118  CG      -103.8620  118.3420   46.5030 C.ar  187  HIS187      0.0820
    119  ND1     -104.4310  119.5850   46.3330 N.ar  187  HIS187     -0.2267
    120  CD2     -102.6160  118.5600   46.9840 C.ar  187  HIS187      0.1154
    121  CE1     -103.5690  120.5130   46.7060 C.ar  187  HIS187      0.1986
    122  NE2     -102.4580  119.9180   47.1010 N.ar  187  HIS187     -0.2212
    123  N       -102.6680  125.0610   41.1260 N.3   211  GLY211     -0.1210
    124  CA      -102.7120  123.9780   42.0950 C.3   211  GLY211      0.1956
    125  C       -103.8520  124.1260   43.0810 C.2   211  GLY211      0.2611
    126  O       -104.4890  123.1410   43.4650 O.2   211  GLY211     -0.2717
    127  N       -104.1270  125.3610   43.5040 N.am  212  ALA212     -0.1979
    128  CA      -105.2380  125.6020   44.4180 C.3   212  ALA212      0.1597
    129  C       -106.5700  125.2100   43.7900 C.2   212  ALA212      0.2287
    130  O       -107.4330  124.6360   44.4620 O.2   212  ALA212     -0.2864
    131  CB      -105.2580  127.0710   44.8380 C.3   212  ALA212      0.0319
    132  N       -106.8640  121.4970   43.9570 N.3   215  GLU215     -0.1245
    133  CA      -107.2050  121.1710   45.3350 C.3   215  GLU215      0.1567
    134  C       -108.6970  121.3460   45.5790 C.2   215  GLU215      0.2260
    135  O       -109.3560  120.4720   46.1540 O.2   215  GLU215     -0.2867
    136  CB      -106.4170  122.0660   46.2870 C.3   215  GLU215      0.0388
    137  CG      -106.5190  121.6550   47.7460 C.3   215  GLU215      0.1160
    138  CD      -105.5920  122.4470   48.6430 C.2   215  GLU215      0.3649
    139  OE1     -105.4080  123.6530   48.3820 O.co2 215  GLU215     -0.2457
    140  OE2     -105.0470  121.8670   49.6050 O.co2 215  GLU215     -0.2457
@<TRIPOS>BOND
     1    94    93    2
     2    93    92    1
     3    92    91    1
     4    92    95    1
     5    91    97    1
     6    95    96    1
     7    97    96    1
     8    22    21    1
     9    22    23    1
    10    22    25    1
    11    27    25    1
    12    23    24    2
    13    25    26    1
    14    45    44    1
    15    98    99    1
    16   105   103    1
    17    18    19    2
    18    18    17    1
    19   103   102    1
    20   123   124    1
    21    44    46    1
    22    44    41    1
    23   102    99    1
    24   102   104    1
    25    26    28    1
    26    86    85    2
    27    35    29    1
    28    35    34    1
    29    99   100    1
    30    20    17    1
    31    17    16    1
    32   100   101    2
    33    29    30    1
    34   124   125    1
    35    32    31    2
    36    41    40    1
    37    41    42    1
    38    85    84    1
    39    43    42    2
    40    34    33    1
    41    40    38   am
    42   125   126    2
    43   125   127   am
    44    31    30    1
    45    31    36   am
    46    16    11   am
    47    42    47   am
    48    39    38    2
    49    30    33    1
    50    38    37    1
    51   127   128    1
    52    84    87    1
    53    84    83    1
    54   129   128    1
    55   129   130    2
    56    87    88    1
    57   106   107    1
    58   132   133    1
    59    36    37    1
    60    12    11    2
    61    11    10    1
    62    58    57    1
    63    58    59    1
    64   128   131    1
    65    47    48    1
    66   112   110    1
    67    57    56    1
    68    88    89    2
    69    88    90   am
    70    56    55    1
    71   110   107    1
    72   110   111    1
    73   107   108    1
    74   133   134    1
    75   133   136    1
    76    48    49    1
    77    10    13    1
    78    10     9    1
    79   134   135    2
    80    13    15    1
    81    13    14    1
    82   113   108   am
    83   113   114    1
    84    49    51   am
    85    49    50    2
    86    51    52    1
    87   117   118    1
    88   117   114    1
    89   108   109    2
    90   136   137    1
    91   119   118   ar
    92   119   121   ar
    93    55    52    1
    94   118   120   ar
    95   114   115    1
    96     9     3   am
    97    52    53    1
    98   115   116    2
    99   121   122   ar
   100   120   122   ar
   101     4     3    2
   102     3     2    1
   103    74    72    1
   104   137   138    1
   105    53    54    2
   106    53    60   am
   107   139   138   ar
   108     2     1    1
   109     2     5    1
   110    72    71    1
   111    72    73    1
   112   138   140   ar
   113    71    68    1
   114    60    61    1
   115    69    68    1
   116    69    70    2
   117    67    68    1
   118    67    62   am
   119     5     6    1
   120    61    62    1
   121    61    64    1
   122    62    63    2
   123    81    80   ar
   124    66    64    1
   125    65    64    1
   126     7     6   ar
   127     6     8   ar
   128    80    82   ar
   129    80    79    1
   130    77    76    1
   131    77    78    2
   132    76    79    1
   133    76    75    1
