@<TRIPOS>MOLECULE
tmp/6gcsO00.pdb
 216 207 0 0 0
SMALL
GASTEIGER

@<TRIPOS>ATOM
      1  N        249.7250  251.1160  286.7830 N.3    15  LYS15      -0.1245
      2  CA       250.4440  252.3580  286.5440 C.3    15  LYS15       0.1561
      3  C        251.5220  252.1870  285.4800 C.2    15  LYS15       0.2260
      4  O        251.8670  253.1530  284.7910 O.2    15  LYS15      -0.2867
      5  CB       251.0280  252.8480  287.8690 C.3    15  LYS15       0.0271
      6  CG       251.6130  254.2380  287.8470 C.3    15  LYS15       0.0035
      7  CD       252.0730  254.6430  289.2270 C.3    15  LYS15       0.0206
      8  CE       252.6040  256.0580  289.2160 C.3    15  LYS15       0.1093
      9  NZ       253.8560  256.1520  288.4170 N.3    15  LYS15      -0.1314
     10  N        249.6720  252.6260  282.1770 N.3    18  LEU18      -0.1231
     11  CA       249.4010  254.0420  281.9870 C.3    18  LEU18       0.1693
     12  C        250.6720  254.7920  281.6150 C.2    18  LEU18       0.2591
     13  O        250.6250  255.7360  280.8200 O.2    18  LEU18      -0.2718
     14  CB       248.7680  254.6090  283.2550 C.3    18  LEU18       0.0284
     15  CG       248.0160  255.9420  283.2430 C.3    18  LEU18       0.0019
     16  CD1      248.9030  257.1740  283.3550 C.3    18  LEU18       0.0001
     17  CD2      247.1800  256.0030  281.9830 C.3    18  LEU18       0.0001
     18  N        251.8090  254.3830  282.1880 N.am   19  GLN19      -0.1979
     19  CA       253.1130  254.9230  281.8070 C.3    19  GLN19       0.1601
     20  C        253.3940  254.7270  280.3240 C.2    19  GLN19       0.2287
     21  O        253.7460  255.6820  279.6190 O.2    19  GLN19      -0.2864
     22  CB       254.2030  254.2500  282.6300 C.3    19  GLN19       0.0394
     23  CG       255.5920  254.4990  282.1180 C.3    19  GLN19       0.0908
     24  CD       256.6030  253.6160  282.7970 C.2    19  GLN19       0.2608
     25  OE1      256.2580  252.8200  283.6690 O.2    19  GLN19      -0.2717
     26  NE2      257.8560  253.7190  282.3780 N.am   19  GLN19      -0.0878
     27  N        250.9010  256.9150  278.1790 N.3    22  THR22      -0.1203
     28  CA       251.3340  258.3060  278.1180 C.3    22  THR22       0.1994
     29  C        252.6100  258.4640  277.3140 C.2    22  THR22       0.2617
     30  O        252.8230  259.5120  276.7000 O.2    22  THR22      -0.2717
     31  CB       251.5660  258.8660  279.5130 C.3    22  THR22       0.1784
     32  OG1      252.5010  258.0300  280.2030 O.3    22  THR22      -0.2211
     33  CG2      250.2730  258.9640  280.2860 C.3    22  THR22       0.0376
     34  N        253.4600  257.4400  277.2960 N.am   23  LEU23      -0.1979
     35  CA       254.6900  257.5170  276.5220 C.3    23  LEU23       0.1596
     36  C        254.3930  257.5570  275.0270 C.2    23  LEU23       0.2287
     37  O        254.9370  258.3930  274.2920 O.2    23  LEU23      -0.2864
     38  CB       255.5740  256.3260  276.8630 C.3    23  LEU23       0.0297
     39  CG       257.0210  256.4500  276.4290 C.3    23  LEU23       0.0022
     40  CD1      257.6570  257.5160  277.2880 C.3    23  LEU23       0.0001
     41  CD2      257.7370  255.1290  276.5810 C.3    23  LEU23       0.0001
     42  N        251.5570  258.4580  273.7410 N.3    25  LEU25      -0.1245
     43  CA       250.9110  259.7490  273.5440 C.3    25  LEU25       0.1561
     44  C        251.9370  260.8540  273.3650 C.2    25  LEU25       0.2260
     45  O        251.7770  261.7180  272.4970 O.2    25  LEU25      -0.2867
     46  CB       250.0070  260.0700  274.7270 C.3    25  LEU25       0.0270
     47  CG       249.2300  261.3660  274.5240 C.3    25  LEU25       0.0019
     48  CD1      248.2770  261.1880  273.3680 C.3    25  LEU25       0.0001
     49  CD2      248.4950  261.7800  275.7720 C.3    25  LEU25       0.0001
     50  N        252.3950  263.2900  270.1750 N.3    29  PHE29      -0.1241
     51  CA       252.2740  264.7090  270.4710 C.3    29  PHE29       0.1605
     52  C        253.5550  265.4430  270.1230 C.2    29  PHE29       0.2264
     53  O        253.5310  266.6480  269.8600 O.2    29  PHE29      -0.2867
     54  CB       251.9540  264.8820  271.9510 C.3    29  PHE29       0.0534
     55  CG       251.3650  266.2050  272.3030 C.ar   29  PHE29      -0.0203
     56  CD1      250.0100  266.4050  272.1840 C.ar   29  PHE29      -0.0042
     57  CD2      252.1530  267.2410  272.7550 C.ar   29  PHE29      -0.0042
     58  CE1      249.4390  267.6050  272.5110 C.ar   29  PHE29      -0.0003
     59  CE2      251.5890  268.4540  273.0850 C.ar   29  PHE29      -0.0003
     60  CZ       250.2290  268.6350  272.9600 C.ar   29  PHE29      -0.0000
     61  N        258.8470  273.0310  274.9130 N.3    52  LYS52      -0.1231
     62  CA       257.7010  273.3910  275.7340 C.3    52  LYS52       0.1693
     63  C        256.7800  272.2020  275.9870 C.2    52  LYS52       0.2591
     64  O        256.1730  272.1170  277.0590 O.2    52  LYS52      -0.2718
     65  CB       256.9440  274.5500  275.1010 C.3    52  LYS52       0.0285
     66  CG       255.9250  275.1440  276.0320 C.3    52  LYS52       0.0035
     67  CD       255.3580  276.3820  275.4540 C.3    52  LYS52       0.0206
     68  CE       256.3610  277.5100  275.5260 C.3    52  LYS52       0.1093
     69  NZ       256.6130  277.9000  276.9340 N.3    52  LYS52      -0.1314
     70  N        256.6850  271.2680  275.0380 N.am   53  ILE53      -0.1980
     71  CA       255.9510  270.0270  275.2820 C.3    53  ILE53       0.1595
     72  C        256.6150  269.2260  276.3920 C.2    53  ILE53       0.2287
     73  O        255.9430  268.6880  277.2920 O.2    53  ILE53      -0.2864
     74  CB       255.8490  269.2190  273.9790 C.3    53  ILE53       0.0276
     75  CG1      254.8900  269.8910  273.0160 C.3    53  ILE53       0.0022
     76  CG2      255.4020  267.8090  274.2350 C.3    53  ILE53       0.0022
     77  CD1      254.9470  269.2930  271.6520 C.3    53  ILE53       0.0001
     78  N        255.7260  270.8260  279.5750 N.3    56  GLU56      -0.1231
     79  CA       254.3680  270.5350  280.0100 C.3    56  GLU56       0.1699
     80  C        254.2650  269.1510  280.6230 C.2    56  GLU56       0.2592
     81  O        253.5170  268.9530  281.5870 O.2    56  GLU56      -0.2718
     82  CB       253.3930  270.6750  278.8460 C.3    56  GLU56       0.0402
     83  CG       253.1410  272.1060  278.4340 C.3    56  GLU56       0.1161
     84  CD       252.4010  272.8920  279.4990 C.2    56  GLU56       0.3649
     85  OE1      251.5800  272.2940  280.2270 O.co2  56  GLU56      -0.2457
     86  OE2      252.6400  274.1120  279.6100 O.co2  56  GLU56      -0.2457
     87  N        255.0170  268.1860  280.1060 N.am   57  PHE57      -0.1976
     88  CA       254.9270  266.8880  280.7650 C.3    57  PHE57       0.1639
     89  C        255.7670  266.8270  282.0280 C.2    57  PHE57       0.2290
     90  O        255.4140  266.0960  282.9580 O.2    57  PHE57      -0.2864
     91  CB       255.2990  265.7420  279.8370 C.3    57  PHE57       0.0560
     92  CG       254.2140  265.3680  278.8760 C.ar   57  PHE57      -0.0200
     93  CD1      253.0090  266.0430  278.8570 C.ar   57  PHE57      -0.0042
     94  CD2      254.3560  264.2660  278.0680 C.ar   57  PHE57      -0.0042
     95  CE1      252.0220  265.6820  277.9820 C.ar   57  PHE57      -0.0003
     96  CE2      253.3530  263.8950  277.2050 C.ar   57  PHE57      -0.0003
     97  CZ       252.1890  264.6010  277.1640 C.ar   57  PHE57      -0.0000
     98  N        254.0110  267.5300  285.3700 N.3    60  HIS60      -0.1226
     99  CA       253.2560  266.5100  286.0760 C.3    60  HIS60       0.1752
    100  C        254.0270  265.2090  286.1280 C.2    60  HIS60       0.2595
    101  O        253.4610  264.1200  286.0040 O.2    60  HIS60      -0.2718
    102  CB       251.8930  266.3220  285.4300 C.3    60  HIS60       0.0759
    103  CG       251.0520  267.5530  285.4790 C.ar   60  HIS60       0.0818
    104  ND1      251.0640  268.5000  284.4780 N.ar   60  HIS60      -0.2268
    105  CD2      250.2120  268.0220  286.4310 C.ar   60  HIS60       0.1154
    106  CE1      250.2410  269.4830  284.7960 C.ar   60  HIS60       0.1986
    107  NE2      249.7110  269.2170  285.9760 N.ar   60  HIS60      -0.2212
    108  N        255.3450  265.3160  286.2940 N.am   61  ARG61      -0.1980
    109  CA       256.1700  264.1400  286.5410 C.3    61  ARG61       0.1597
    110  C        255.8210  263.4820  287.8650 C.2    61  ARG61       0.2287
    111  O        255.6830  262.2580  287.9450 O.2    61  ARG61      -0.2864
    112  CB       257.6450  264.5350  286.5200 C.3    61  ARG61       0.0334
    113  CG       258.6020  263.4660  287.0260 C.3    61  ARG61       0.0492
    114  CD       258.6150  262.2270  286.1600 C.3    61  ARG61       0.2205
    115  NE       259.0680  262.4900  284.8000 N.pl3  61  ARG61      -0.0865
    116  CZ       260.3420  262.4870  284.4290 C.cat  61  ARG61       0.5346
    117  NH1      261.2910  262.2310  285.3170 N.pl3  61  ARG61       0.1354
    118  NH2      260.6690  262.7350  283.1710 N.pl3  61  ARG61       0.1354
    119  N        253.2210  263.3990  289.9550 N.3    63  VAL63      -0.1245
    120  CA       251.8450  263.2300  290.3920 C.3    63  VAL63       0.1561
    121  C        251.6450  261.7710  290.7620 C.2    63  VAL63       0.2260
    122  O        251.9590  260.8720  289.9750 O.2    63  VAL63      -0.2867
    123  CB       250.8660  263.6650  289.2970 C.3    63  VAL63       0.0252
    124  CG1      249.4370  263.5280  289.7860 C.3    63  VAL63       0.0019
    125  CG2      251.1740  265.0830  288.8730 C.3    63  VAL63       0.0019
    126  N        246.1520  260.5990  287.1750 N.3    69  GLN69      -0.1245
    127  CA       246.8670  260.4500  285.9220 C.3    69  GLN69       0.1566
    128  C        245.9630  259.9940  284.7890 C.2    69  GLN69       0.2260
    129  O        246.2800  260.2570  283.6290 O.2    69  GLN69      -0.2867
    130  CB       248.0090  259.4650  286.1380 C.3    69  GLN69       0.0367
    131  CG       249.0530  259.9990  287.0940 C.3    69  GLN69       0.0905
    132  CD       250.0330  258.9440  287.5470 C.2    69  GLN69       0.2608
    133  OE1      249.9130  257.7770  287.1850 O.2    69  GLN69      -0.2717
    134  NE2      250.9960  259.3440  288.3670 N.am   69  GLN69      -0.0878
    135  N        244.4300  263.2220  283.6030 N.3    72  LEU72      -0.1231
    136  CA       245.5180  263.9530  282.9640 C.3    72  LEU72       0.1693
    137  C        245.8560  263.3600  281.6060 C.2    72  LEU72       0.2592
    138  O        246.1380  264.1000  280.6560 O.2    72  LEU72      -0.2718
    139  CB       246.7430  263.9930  283.8580 C.3    72  LEU72       0.0284
    140  CG       246.8130  265.2670  284.6890 C.3    72  LEU72       0.0019
    141  CD1      245.8140  265.2860  285.8200 C.3    72  LEU72       0.0001
    142  CD2      248.2120  265.4240  285.2100 C.3    72  LEU72       0.0001
    143  N        245.7780  262.0370  281.4810 N.am   73  TYR73      -0.1976
    144  CA       245.9700  261.4060  280.1860 C.3    73  TYR73       0.1639
    145  C        244.8580  261.7790  279.2250 C.2    73  TYR73       0.2290
    146  O        245.1000  261.9680  278.0280 O.2    73  TYR73      -0.2864
    147  CB       246.0370  259.8950  280.3440 C.3    73  TYR73       0.0560
    148  CG       246.1080  259.1980  279.0220 C.ar   73  TYR73      -0.0198
    149  CD1      247.2640  259.2450  278.2630 C.ar   73  TYR73      -0.0009
    150  CD2      245.0180  258.5030  278.5210 C.ar   73  TYR73      -0.0009
    151  CE1      247.3370  258.6150  277.0490 C.ar   73  TYR73       0.0417
    152  CE2      245.0800  257.8780  277.3070 C.ar   73  TYR73       0.0417
    153  CZ       246.2410  257.9380  276.5750 C.ar   73  TYR73       0.1957
    154  OH       246.3070  257.3070  275.3590 O.3    73  TYR73      -0.2866
    155  N        243.0950  264.5980  279.2930 N.3    75  LYS75      -0.1231
    156  CA       243.3410  265.9790  278.8960 C.3    75  LYS75       0.1693
    157  C        244.4460  266.0650  277.8600 C.2    75  LYS75       0.2592
    158  O        244.3270  266.8100  276.8820 O.2    75  LYS75      -0.2718
    159  CB       243.7000  266.8310  280.1120 C.3    75  LYS75       0.0285
    160  CG       242.5690  267.1040  281.0760 C.3    75  LYS75       0.0035
    161  CD       241.5920  268.1100  280.5210 C.3    75  LYS75       0.0206
    162  CE       240.4780  268.3640  281.5150 C.3    75  LYS75       0.1093
    163  NZ       240.9770  269.0210  282.7480 N.3    75  LYS75      -0.1314
    164  N        245.5080  265.2810  278.0370 N.am   76  GLY76      -0.1957
    165  CA       246.6010  265.3210  277.0840 C.3    76  GLY76       0.1869
    166  C        246.2000  264.7990  275.7190 C.2    76  GLY76       0.2309
    167  O        246.4000  265.4710  274.7020 O.2    76  GLY76      -0.2863
    168  N        243.6170  267.2110  274.0910 N.3    79  GLU79      -0.1245
    169  CA       244.1510  268.4060  273.4660 C.3    79  GLU79       0.1567
    170  C        245.0370  268.0730  272.2830 C.2    79  GLU79       0.2260
    171  O        245.1410  268.8840  271.3630 O.2    79  GLU79      -0.2867
    172  CB       244.8840  269.2480  274.4980 C.3    79  GLU79       0.0388
    173  CG       243.9140  269.8300  275.4980 C.3    79  GLU79       0.1160
    174  CD       244.5890  270.6370  276.5690 C.2    79  GLU79       0.3649
    175  OE1      245.8340  270.6490  276.6050 O.co2  79  GLU79      -0.2457
    176  OE2      243.8810  271.2700  277.3760 O.co2  79  GLU79      -0.2457
    177  N        244.3780  269.5410  268.6640 N.3    83  CYS83      -0.1235
    178  CA       245.4670  270.1840  267.9490 C.3    83  CYS83       0.1677
    179  C        245.8240  269.5230  266.6320 C.2    83  CYS83       0.2270
    180  O        246.3950  270.1920  265.7700 O.2    83  CYS83      -0.2867
    181  CB       246.7340  270.2350  268.8090 C.3    83  CYS83       0.0956
    182  SG       246.7070  271.4230  270.1550 S.3    83  CYS83      -0.0801
    183  N        245.6270  279.1360  270.0140 N.3    93  PHE93      -0.1241
    184  CA       246.7900  278.2790  270.1830 C.3    93  PHE93       0.1605
    185  C        247.9240  278.9580  270.9190 C.2    93  PHE93       0.2264
    186  O        248.7080  278.2780  271.5860 O.2    93  PHE93      -0.2867
    187  CB       247.2790  277.8060  268.8180 C.3    93  PHE93       0.0534
    188  CG       248.4300  276.8700  268.8730 C.ar   93  PHE93      -0.0203
    189  CD1      248.2630  275.5780  269.3220 C.ar   93  PHE93      -0.0042
    190  CD2      249.6730  277.2720  268.4400 C.ar   93  PHE93      -0.0042
    191  CE1      249.3200  274.7080  269.3490 C.ar   93  PHE93      -0.0003
    192  CE2      250.7320  276.4070  268.4620 C.ar   93  PHE93      -0.0003
    193  CZ       250.5580  275.1240  268.9210 C.ar   93  PHE93      -0.0000
    194  N        249.3860  278.7210  275.0310 N.3    96  TYR96      -0.1227
    195  CA       250.4340  277.9290  275.6460 C.3    96  TYR96       0.1736
    196  C        251.7930  278.5980  275.6390 C.2    96  TYR96       0.2595
    197  O        252.7210  278.0610  276.2410 O.2    96  TYR96      -0.2718
    198  CB       250.5740  276.5780  274.9500 C.3    96  TYR96       0.0548
    199  CG       249.4730  275.6410  275.2920 C.ar   96  TYR96      -0.0200
    200  CD1      249.4340  275.0400  276.5330 C.ar   96  TYR96      -0.0009
    201  CD2      248.4860  275.3400  274.3790 C.ar   96  TYR96      -0.0009
    202  CE1      248.4340  274.1830  276.8650 C.ar   96  TYR96       0.0417
    203  CE2      247.4830  274.4750  274.6990 C.ar   96  TYR96       0.0417
    204  CZ       247.4630  273.9020  275.9430 C.ar   96  TYR96       0.1957
    205  OH       246.4590  273.0390  276.2730 O.3    96  TYR96      -0.2866
    206  N        251.9440  279.7450  274.9950 N.am   97  PHE97      -0.1976
    207  CA       253.2680  280.2290  274.6220 C.3    97  PHE97       0.1639
    208  C        253.5150  281.6300  275.1510 C.2    97  PHE97       0.2290
    209  O        253.2780  282.6200  274.4480 O.2    97  PHE97      -0.2864
    210  CB       253.4230  280.1870  273.1080 C.3    97  PHE97       0.0560
    211  CG       253.3750  278.8050  272.5470 C.ar   97  PHE97      -0.0200
    212  CD1      254.5180  278.0460  272.4590 C.ar   97  PHE97      -0.0042
    213  CD2      252.1770  278.2480  272.1410 C.ar   97  PHE97      -0.0042
    214  CE1      254.4770  276.7630  271.9560 C.ar   97  PHE97      -0.0003
    215  CE2      252.1320  276.9670  271.6400 C.ar   97  PHE97      -0.0003
    216  CZ       253.2840  276.2270  271.5440 C.ar   97  PHE97      -0.0000
@<TRIPOS>BOND
     1   180   179    2
     2   179   178    1
     3   178   177    1
     4   178   181    1
     5   190   192   ar
     6   190   188   ar
     7   192   193   ar
     8   181   182    1
     9   187   188    1
    10   187   184    1
    11   188   189   ar
    12   193   191   ar
    13   189   191   ar
    14    53    52    2
    15   183   184    1
    16    52    51    1
    17    50    51    1
    18   184   185    1
    19    51    54    1
    20   185   186    2
    21   171   170    2
    22   216   215   ar
    23   216   214   ar
    24   215   213   ar
    25    77    75    1
    26    54    55    1
    27   214   212   ar
    28   213   211   ar
    29    56    55   ar
    30    56    58   ar
    31   170   169    1
    32    55    57   ar
    33   212   211   ar
    34    45    44    2
    35    58    60   ar
    36   211   210    1
    37    57    59   ar
    38    60    59   ar
    39    75    74    1
    40   210   207    1
    41    44    43    1
    42    48    47    1
    43   169   168    1
    44   169   172    1
    45    43    42    1
    46    43    46    1
    47    74    76    1
    48    74    71    1
    49    37    36    2
    50   201   203   ar
    51   201   199   ar
    52   209   208    2
    53   172   173    1
    54    47    46    1
    55    47    49    1
    56   207   206    1
    57   207   208    1
    58   203   204   ar
    59   167   166    2
    60    61    62    1
    61   198   199    1
    62   198   195    1
    63   206   196   am
    64    36    35    1
    65   194   195    1
    66    70    71    1
    67    70    63   am
    68    65    62    1
    69    65    66    1
    70    71    72    1
    71   199   200   ar
    72   154   153    1
    73    67    68    1
    74    67    66    1
    75   173   174    1
    76    68    69    1
    77   196   195    1
    78   196   197    2
    79   166   165    1
    80    62    63    1
    81   204   205    1
    82   204   202   ar
    83    63    64    2
    84    72    73    2
    85    39    41    1
    86    39    38    1
    87    39    40    1
    88    35    38    1
    89    35    34    1
    90   200   202   ar
    91   174   175   ar
    92   174   176   ar
    93   153   151   ar
    94   153   152   ar
    95    30    29    2
    96   158   157    2
    97   151   149   ar
    98   165   164    1
    99    97    96   ar
   100    97    95   ar
   101    96    94   ar
   102    34    29   am
   103   152   150   ar
   104    29    28    1
   105   157   164   am
   106   157   156    1
   107    95    93   ar
   108   146   145    2
   109    94    92   ar
   110    28    27    1
   111    28    31    1
   112   149   148   ar
   113    83    82    1
   114    83    84    1
   115   150   148   ar
   116    82    79    1
   117    93    92   ar
   118    92    91    1
   119   156   155    1
   120   156   159    1
   121   148   147    1
   122   145   144    1
   123    84    86   ar
   124    84    85   ar
   125    31    32    1
   126    31    33    1
   127    78    79    1
   128    21    20    2
   129    91    88    1
   130    79    80    1
   131    87    80   am
   132    87    88    1
   133   159   160    1
   134   144   147    1
   135   144   143    1
   136    20    19    1
   137   161   160    1
   138   161   162    1
   139    80    81    2
   140   138   137    2
   141    88    89    1
   142    13    12    2
   143   143   137   am
   144   162   163    1
   145   137   136    1
   146    12    11    1
   147    12    18   am
   148    19    18    1
   149    19    22    1
   150    17    15    1
   151    11    10    1
   152    11    14    1
   153    89    90    2
   154    23    22    1
   155    23    24    1
   156    26    24   am
   157    24    25    2
   158   136   135    1
   159   136   139    1
   160   118   116    1
   161    15    14    1
   162    15    16    1
   163   129   128    2
   164   139   140    1
   165   116   115    2
   166   116   117    1
   167   104   106   ar
   168   104   103   ar
   169   140   142    1
   170   140   141    1
   171   128   127    1
   172     4     3    2
   173   106   107   ar
   174   115   114    1
   175    98    99    1
   176   102   103    1
   177   102    99    1
   178   103   105   ar
   179     3     2    1
   180   127   130    1
   181   127   126    1
   182   107   105   ar
   183   101   100    2
   184    99   100    1
   185   100   108   am
   186   130   131    1
   187   114   113    1
   188   108   109    1
   189   112   109    1
   190   112   113    1
   191   109   110    1
   192     2     1    1
   193     2     5    1
   194   131   132    1
   195   133   132    2
   196   132   134   am
   197     6     5    1
   198     6     7    1
   199   110   111    2
   200     9     8    1
   201   125   123    1
   202     8     7    1
   203   123   124    1
   204   123   120    1
   205   119   120    1
   206   122   121    2
   207   120   121    1
