@<TRIPOS>MOLECULE
tmp/6gcsU00.pdb
 92 91 0 0 0
SMALL
GASTEIGER

@<TRIPOS>ATOM
      1  N        229.8480  245.1000  204.8760 N.3    16  TYR16      -0.1228
      2  CA       229.2060  246.3210  205.3470 C.3    16  TYR16       0.1721
      3  C        227.8730  246.4460  204.6220 C.2    16  TYR16       0.2437
      4  O        227.8460  246.6000  203.3980 O.2    16  TYR16      -0.2733
      5  CB       230.0840  247.5450  205.0920 C.3    16  TYR16       0.0547
      6  CG       229.3640  248.8100  205.4160 C.ar   16  TYR16      -0.0200
      7  CD1      229.1270  249.1670  206.7330 C.ar   16  TYR16      -0.0009
      8  CD2      228.9150  249.6560  204.4320 C.ar   16  TYR16      -0.0009
      9  CE1      228.4150  250.3300  207.0510 C.ar   16  TYR16       0.0417
     10  CE2      228.2080  250.8260  204.7190 C.ar   16  TYR16       0.0417
     11  CZ       227.9690  251.1280  206.0590 C.ar   16  TYR16       0.1957
     12  OH       227.2520  252.2780  206.3160 O.3    16  TYR16      -0.2866
     13  N        226.7790  246.3860  205.3720 N.am   17  PRO17      -0.2718
     14  CA       225.4660  246.1540  204.7890 C.3    17  PRO17       0.1535
     15  C        224.9360  247.3930  204.0790 C.2    17  PRO17       0.2598
     16  O        224.9490  248.4890  204.6420 O.2    17  PRO17      -0.2715
     17  CB       224.5810  245.7900  205.9640 C.3    17  PRO17       0.0310
     18  CG       225.1890  246.5440  207.1530 C.3    17  PRO17       0.0237
     19  CD       226.6710  246.3710  206.8950 C.3    17  PRO17       0.0939
     20  N        224.4560  247.2160  202.8480 N.am   18  LEU18      -0.1978
     21  CA       223.8500  248.3030  202.0830 C.3    18  LEU18       0.1596
     22  C        222.6000  247.7780  201.3830 C.2    18  LEU18       0.2287
     23  O        222.1520  246.6520  201.6180 O.2    18  LEU18      -0.2864
     24  CB       224.8490  248.9040  201.0860 C.3    18  LEU18       0.0297
     25  CG       225.9940  249.7230  201.6810 C.3    18  LEU18       0.0022
     26  CD1      226.9430  250.1050  200.5700 C.3    18  LEU18       0.0001
     27  CD2      225.5010  250.9740  202.3610 C.3    18  LEU18       0.0001
     28  N        216.4780  232.0930  227.3750 N.3    70  LYS70      -0.1231
     29  CA       215.4900  233.0120  226.8070 C.3    70  LYS70       0.1693
     30  C        216.0930  234.2870  226.2050 C.2    70  LYS70       0.2592
     31  O        215.3820  235.1040  225.6120 O.2    70  LYS70      -0.2718
     32  CB       214.4370  233.3240  227.8810 C.3    70  LYS70       0.0285
     33  CG       213.0960  233.8640  227.3770 C.3    70  LYS70       0.0035
     34  CD       212.4290  232.8500  226.4590 C.3    70  LYS70       0.0206
     35  CE       211.0920  233.3400  225.9130 C.3    70  LYS70       0.1093
     36  NZ       210.0250  233.4010  226.9510 N.3    70  LYS70      -0.1314
     37  N        217.4100  234.4500  226.2780 N.am   71  PHE71      -0.1976
     38  CA       218.0630  235.3930  225.3860 C.3    71  PHE71       0.1639
     39  C        218.2550  234.8120  223.9970 C.2    71  PHE71       0.2290
     40  O        218.7510  235.5180  223.1120 O.2    71  PHE71      -0.2864
     41  CB       219.4230  235.8140  225.9240 C.3    71  PHE71       0.0560
     42  CG       219.3790  236.5730  227.2050 C.ar   71  PHE71      -0.0200
     43  CD1      218.9920  237.9000  227.2270 C.ar   71  PHE71      -0.0042
     44  CD2      219.7960  235.9780  228.3800 C.ar   71  PHE71      -0.0042
     45  CE1      218.9790  238.6090  228.4110 C.ar   71  PHE71      -0.0003
     46  CE2      219.7880  236.6820  229.5680 C.ar   71  PHE71      -0.0003
     47  CZ       219.3780  238.0000  229.5820 C.ar   71  PHE71      -0.0000
     48  N        215.9410  234.2540  221.9990 N.3    73  ARG73      -0.1231
     49  CA       215.1400  235.2360  221.2770 C.3    73  ARG73       0.1694
     50  C        216.0120  236.2410  220.5390 C.2    73  ARG73       0.2591
     51  O        215.8900  236.3980  219.3170 O.2    73  ARG73      -0.2718
     52  CB       214.2080  235.9400  222.2740 C.3    73  ARG73       0.0321
     53  CG       213.2780  236.9900  221.6800 C.3    73  ARG73       0.0489
     54  CD       212.2410  237.4850  222.7000 C.3    73  ARG73       0.2205
     55  NE       212.7870  238.2710  223.8020 N.pl3  73  ARG73      -0.0865
     56  CZ       212.9610  239.5850  223.7600 C.cat  73  ARG73       0.5346
     57  NH1      212.6250  240.2690  222.6780 N.pl3  73  ARG73       0.1354
     58  NH2      213.4520  240.2210  224.8080 N.pl3  73  ARG73       0.1354
     59  N        216.9460  236.8610  221.2730 N.am   74  VAL74      -0.1980
     60  CA       217.9490  237.7450  220.6830 C.3    74  VAL74       0.1595
     61  C        218.7390  237.0140  219.6130 C.2    74  VAL74       0.2287
     62  O        218.8560  237.4860  218.4730 O.2    74  VAL74      -0.2864
     63  CB       218.8830  238.2870  221.7740 C.3    74  VAL74       0.0276
     64  CG1      220.0140  239.0720  221.1500 C.3    74  VAL74       0.0022
     65  CG2      218.1080  239.1350  222.7440 C.3    74  VAL74       0.0022
     66  N        216.7510  236.5000  216.5760 N.3    77  MET77      -0.1230
     67  CA       216.7820  237.6910  215.7380 C.3    77  MET77       0.1702
     68  C        218.0170  237.7110  214.8560 C.2    77  MET77       0.2592
     69  O        217.9110  237.8820  213.6340 O.2    77  MET77      -0.2718
     70  CB       216.7210  238.9420  216.6050 C.3    77  MET77       0.0401
     71  CG       216.9470  240.2130  215.8240 C.3    77  MET77       0.0596
     72  SD       215.7790  240.4600  214.4820 S.3    77  MET77      -0.1393
     73  CE       216.7210  241.5560  213.4260 C.3    77  MET77       0.0692
     74  N        219.1880  237.4400  215.4440 N.am   78  LEU78      -0.1980
     75  CA       220.3860  237.3690  214.6210 C.3    78  LEU78       0.1596
     76  C        220.3420  236.1520  213.7210 C.2    78  LEU78       0.2287
     77  O        220.8030  236.2180  212.5740 O.2    78  LEU78      -0.2864
     78  CB       221.6380  237.3590  215.4890 C.3    78  LEU78       0.0297
     79  CG       221.8630  238.6750  216.2260 C.3    78  LEU78       0.0022
     80  CD1      223.1160  238.6060  217.0720 C.3    78  LEU78       0.0001
     81  CD2      221.9310  239.8260  215.2490 C.3    78  LEU78       0.0001
     82  N        217.7220  235.2000  212.2980 N.3    80  PHE80      -0.1241
     83  CA       217.0540  235.7020  211.1140 C.3    80  PHE80       0.1605
     84  C        218.0260  236.4990  210.2620 C.2    80  PHE80       0.2264
     85  O        218.2490  236.1730  209.0880 O.2    80  PHE80      -0.2867
     86  CB       215.8610  236.5590  211.5120 C.3    80  PHE80       0.0534
     87  CG       215.0640  237.0390  210.3520 C.ar   80  PHE80      -0.0203
     88  CD1      214.2030  236.1820  209.7000 C.ar   80  PHE80      -0.0042
     89  CD2      215.1810  238.3430  209.9050 C.ar   80  PHE80      -0.0042
     90  CE1      213.4640  236.6160  208.6260 C.ar   80  PHE80      -0.0003
     91  CE2      214.4460  238.7860  208.8290 C.ar   80  PHE80      -0.0003
     92  CZ       213.5840  237.9210  208.1890 C.ar   80  PHE80      -0.0000
@<TRIPOS>BOND
     1    26    25    1
     2    24    25    1
     3    24    21    1
     4    22    23    2
     5    22    21    1
     6    25    27    1
     7    21    20    1
     8    20    15   am
     9     4     3    2
    10    15    16    2
    11    15    14    1
    12     8    10   ar
    13     8     6   ar
    14     3     2    1
    15     3    13   am
    16    10    11   ar
    17    14    13    1
    18    14    17    1
    19     1     2    1
    20     5     2    1
    21     5     6    1
    22    13    19    1
    23     6     7   ar
    24    17    18    1
    25    11    12    1
    26    11     9   ar
    27     7     9   ar
    28    19    18    1
    29    92    90   ar
    30    92    91   ar
    31    90    88   ar
    32    91    89   ar
    33    85    84    2
    34    88    87   ar
    35    89    87   ar
    36    84    83    1
    37    87    86    1
    38    83    86    1
    39    83    82    1
    40    77    76    2
    41    73    72    1
    42    69    68    2
    43    76    75    1
    44    72    71    1
    45    75    74    1
    46    75    78    1
    47    68    74   am
    48    68    67    1
    49    81    79    1
    50    78    79    1
    51    67    66    1
    52    67    70    1
    53    71    70    1
    54    79    80    1
    55    62    61    2
    56    51    50    2
    57    61    60    1
    58    50    59   am
    59    50    49    1
    60    60    59    1
    61    60    63    1
    62    64    63    1
    63    49    48    1
    64    49    52    1
    65    53    52    1
    66    53    54    1
    67    63    65    1
    68    57    56    1
    69    54    55    1
    70    40    39    2
    71    56    55    2
    72    56    58    1
    73    39    38    1
    74    38    41    1
    75    38    37    1
    76    31    30    2
    77    35    34    1
    78    35    36    1
    79    41    42    1
    80    30    37   am
    81    30    29    1
    82    34    33    1
    83    29    28    1
    84    29    32    1
    85    42    43   ar
    86    42    44   ar
    87    43    45   ar
    88    33    32    1
    89    44    46   ar
    90    45    47   ar
    91    46    47   ar
