@<TRIPOS>MOLECULE
tmp/6gcsB00.pdb
 187 179 0 0 0
SMALL
GASTEIGER

@<TRIPOS>ATOM
      1  N        182.0970  285.6310  342.1000 N.3    54  GLY54      -0.1210
      2  CA       182.7290  286.9420  342.1160 C.3    54  GLY54       0.1956
      3  C        182.0320  287.9230  341.1930 C.2    54  GLY54       0.2612
      4  O        181.8340  287.6510  340.0040 O.2    54  GLY54      -0.2717
      5  N        181.6730  289.0810  341.7340 N.am   55  ARG55      -0.1965
      6  CA       180.9140  290.0740  340.9940 C.3    55  ARG55       0.1729
      7  C        181.7810  290.9860  340.1480 C.2    55  ARG55       0.2617
      8  O        181.2660  291.9740  339.6150 O.2    55  ARG55      -0.2715
      9  CB       180.0970  290.9300  341.9510 C.3    55  ARG55       0.0348
     10  CG       178.9820  290.2070  342.6260 C.3    55  ARG55       0.0492
     11  CD       178.2900  291.1440  343.5760 C.3    55  ARG55       0.2205
     12  NE       177.1640  290.5120  344.2360 N.pl3  55  ARG55      -0.0865
     13  CZ       177.2550  289.8360  345.3710 C.cat  55  ARG55       0.5346
     14  NH1      178.4290  289.7130  345.9710 N.pl3  55  ARG55       0.1354
     15  NH2      176.1740  289.2840  345.9040 N.pl3  55  ARG55       0.1354
     16  N        183.0810  290.7140  340.0450 N.am   56  GLY56      -0.1940
     17  CA       183.9470  291.5990  339.2860 C.3    56  GLY56       0.2014
     18  C        183.6900  291.5500  337.7970 C.2    56  GLY56       0.2639
     19  O        183.7440  292.5800  337.1200 O.2    56  GLY56      -0.2714
     20  N        183.3560  290.3770  337.2770 N.am   57  GLY57      -0.1939
     21  CA       183.2240  290.1990  335.8500 C.3    57  GLY57       0.2014
     22  C        183.7060  288.8320  335.4330 C.2    57  GLY57       0.2638
     23  O        183.3010  288.3120  334.3920 O.2    57  GLY57      -0.2714
     24  N        184.5730  288.2370  336.2500 N.am   58  ALA58      -0.1977
     25  CA       185.0000  286.8710  335.9850 C.3    58  ALA58       0.1597
     26  C        183.8900  285.8770  336.2750 C.2    58  ALA58       0.2287
     27  O        183.8350  284.8150  335.6460 O.2    58  ALA58      -0.2864
     28  CB       186.2370  286.5310  336.8140 C.3    58  ALA58       0.0319
     29  N        183.6540  284.4140  339.2540 N.3    60  PHE60      -0.1241
     30  CA       184.4850  283.3300  339.7370 C.3    60  PHE60       0.1605
     31  C        184.0740  282.9340  341.1470 C.2    60  PHE60       0.2264
     32  O        183.6640  283.7930  341.9320 O.2    60  PHE60      -0.2867
     33  CB       185.9500  283.7600  339.7300 C.3    60  PHE60       0.0534
     34  CG       186.9090  282.6340  339.8900 C.ar   60  PHE60      -0.0203
     35  CD1      187.2010  281.8150  338.8160 C.ar   60  PHE60      -0.0042
     36  CD2      187.5140  282.3880  341.1040 C.ar   60  PHE60      -0.0042
     37  CE1      188.0860  280.7740  338.9480 C.ar   60  PHE60      -0.0003
     38  CE2      188.3990  281.3430  341.2480 C.ar   60  PHE60      -0.0003
     39  CZ       188.6870  280.5360  340.1670 C.ar   60  PHE60      -0.0000
     40  N        184.4670  282.5890  344.7640 N.3    62  SER62      -0.1217
     41  CA       185.3770  283.4460  345.5180 C.3    62  SER62       0.1889
     42  C        186.2360  282.6630  346.4970 C.2    62  SER62       0.2288
     43  O        187.3720  283.0670  346.7840 O.2    62  SER62      -0.2866
     44  CB       184.5770  284.5080  346.2630 C.3    62  SER62       0.2089
     45  OG       183.8480  285.3110  345.3530 O.3    62  SER62      -0.2183
     46  N        189.4550  281.3800  344.6930 N.3    65  LYS65      -0.1231
     47  CA       190.4630  282.4270  344.5920 C.3    65  LYS65       0.1693
     48  C        191.0810  282.7210  345.9470 C.2    65  LYS65       0.2592
     49  O        192.2900  282.9520  346.0540 O.2    65  LYS65      -0.2718
     50  CB       189.8440  283.6950  344.0140 C.3    65  LYS65       0.0285
     51  CG       190.8350  284.8180  343.8050 C.3    65  LYS65       0.0035
     52  CD       190.1410  286.0620  343.3110 C.3    65  LYS65       0.0206
     53  CE       189.7130  285.8980  341.8690 C.3    65  LYS65       0.1093
     54  NZ       189.1120  287.1360  341.3190 N.3    65  LYS65      -0.1314
     55  N        190.2750  282.6850  346.9990 N.am   66  TRP66      -0.1976
     56  CA       190.7920  283.0780  348.2990 C.3    66  TRP66       0.1640
     57  C        191.6430  281.9900  348.9280 C.2    66  TRP66       0.2290
     58  O        192.6410  282.2940  349.5870 O.2    66  TRP66      -0.2864
     59  CB       189.6320  283.4870  349.1920 C.3    66  TRP66       0.0576
     60  CG       189.1220  284.8120  348.7700 C.ar   66  TRP66       0.0006
     61  CD1      189.6800  285.6320  347.8390 C.ar   66  TRP66       0.0946
     62  CD2      187.9670  285.4930  349.2610 C.ar   66  TRP66       0.0152
     63  NE1      188.9440  286.7710  347.7100 N.ar   66  TRP66      -0.2442
     64  CE2      187.8870  286.7170  348.5760 C.ar   66  TRP66       0.0810
     65  CE3      186.9950  285.1900  350.2120 C.ar   66  TRP66       0.0012
     66  CZ2      186.8750  287.6340  348.8070 C.ar   66  TRP66       0.0191
     67  CZ3      185.9910  286.1030  350.4410 C.ar   66  TRP66       0.0001
     68  CH2      185.9380  287.3110  349.7410 C.ar   66  TRP66       0.0015
     69  N        189.4510  296.3510  344.4940 N.3    86  ASN86      -0.1240
     70  CA       189.0770  296.9590  343.2210 C.3    86  ASN86       0.1653
     71  C        187.8120  297.7730  343.4520 C.2    86  ASN86       0.2266
     72  O        186.7020  297.3830  343.0860 O.2    86  ASN86      -0.2867
     73  CB       188.8630  295.8700  342.1750 C.3    86  ASN86       0.1155
     74  CG       188.6590  296.4140  340.7710 C.2    86  ASN86       0.2627
     75  OD1      188.6190  297.6220  340.5450 O.2    86  ASN86      -0.2716
     76  ND2      188.5420  295.5070  339.8090 N.am   86  ASN86      -0.0877
     77  N        187.4550  300.6670  342.0970 N.3    88  ASP88      -0.1225
     78  CA       187.1280  301.3080  340.8410 C.3    88  ASP88       0.1805
     79  C        186.0430  300.4990  340.1590 C.2    88  ASP88       0.2598
     80  O        186.1080  299.2690  340.1040 O.2    88  ASP88      -0.2718
     81  CB       188.3580  301.4070  339.9460 C.3    88  ASP88       0.1424
     82  CG       188.1340  302.2880  338.7250 C.2    88  ASP88       0.3668
     83  OD1      187.0270  302.8390  338.5370 O.co2  88  ASP88      -0.2456
     84  OD2      189.0900  302.4280  337.9380 O.co2  88  ASP88      -0.2456
     85  N        185.0360  301.1990  339.6590 N.am   89  GLU89      -0.1965
     86  CA       184.0690  300.6310  338.7400 C.3    89  GLU89       0.1733
     87  C        184.0140  301.5620  337.5480 C.2    89  GLU89       0.2617
     88  O        183.6580  302.7340  337.6900 O.2    89  GLU89      -0.2715
     89  CB       182.7040  300.4640  339.3950 C.3    89  GLU89       0.0429
     90  CG       182.7110  299.4020  340.4790 C.3    89  GLU89       0.1163
     91  CD       181.3940  299.3180  341.1970 C.2    89  GLU89       0.3649
     92  OE1      180.5350  300.1710  340.9040 O.co2  89  GLU89      -0.2457
     93  OE2      181.2290  298.4220  342.0520 O.co2  89  GLU89      -0.2457
     94  N        184.4090  301.0560  336.3900 N.am   90  GLY90      -0.1940
     95  CA       184.5860  301.9210  335.2500 C.3    90  GLY90       0.2014
     96  C        183.7730  301.5190  334.0440 C.2    90  GLY90       0.2638
     97  O        183.8450  302.1800  333.0060 O.2    90  GLY90      -0.2714
     98  N        183.0160  300.4340  334.1490 N.am   91  GLU91      -0.1977
     99  CA       182.1400  300.0830  333.0530 C.3    91  GLU91       0.1602
    100  C        180.9930  301.0760  332.9570 C.2    91  GLU91       0.2287
    101  O        180.5960  301.6790  333.9530 O.2    91  GLU91      -0.2864
    102  CB       181.5660  298.6850  333.2100 C.3    91  GLU91       0.0415
    103  CG       182.5480  297.5810  332.9540 C.3    91  GLU91       0.1163
    104  CD       181.8910  296.2310  332.9060 C.2    91  GLU91       0.3649
    105  OE1      180.6820  296.1600  333.2070 O.co2  91  GLU91      -0.2457
    106  OE2      182.5680  295.2480  332.5520 O.co2  91  GLU91      -0.2457
    107  N        189.6650  303.0170  332.9800 N.3   174  TYR174     -0.1241
    108  CA       188.9100  301.7740  333.0990 C.3   174  TYR174      0.1605
    109  C        189.8140  300.5550  332.9980 C.2   174  TYR174      0.2264
    110  O        189.5040  299.5030  333.5680 O.2   174  TYR174     -0.2867
    111  CB       187.8070  301.7270  332.0400 C.3   174  TYR174      0.0534
    112  CG       187.2030  300.3670  331.8630 C.ar  174  TYR174     -0.0201
    113  CD1      186.4380  299.7980  332.8590 C.ar  174  TYR174     -0.0009
    114  CD2      187.4230  299.6410  330.7040 C.ar  174  TYR174     -0.0009
    115  CE1      185.9120  298.5470  332.7110 C.ar  174  TYR174      0.0417
    116  CE2      186.8890  298.3870  330.5440 C.ar  174  TYR174      0.0417
    117  CZ       186.1300  297.8470  331.5500 C.ar  174  TYR174      0.1957
    118  OH       185.5930  296.5930  331.3980 O.3   174  TYR174     -0.2866
    119  N        190.6730  299.2300  336.1540 N.3   177  GLY177     -0.1210
    120  CA       189.6810  298.3290  336.7030 C.3   177  GLY177      0.1956
    121  C        190.0140  296.8660  336.5110 C.2   177  GLY177      0.2612
    122  O        189.4950  296.0230  337.2480 O.2   177  GLY177     -0.2717
    123  N        190.8320  296.5410  335.5160 N.am  178  GLU178     -0.1965
    124  CA       191.4300  295.2190  335.4590 C.3   178  GLU178      0.1733
    125  C        192.4590  295.0890  336.5780 C.2   178  GLU178      0.2616
    126  O        193.1260  296.0570  336.9490 O.2   178  GLU178     -0.2715
    127  CB       192.0760  294.9860  334.0940 C.3   178  GLU178      0.0429
    128  CG       192.4880  293.5520  333.7800 C.3   178  GLU178      0.1163
    129  CD       193.8510  293.1870  334.3290 C.2   178  GLU178      0.3649
    130  OE1      194.6920  294.0940  334.4970 O.co2 178  GLU178     -0.2457
    131  OE2      194.0690  292.0030  334.6440 O.co2 178  GLU178     -0.2457
    132  N        192.5940  293.8660  337.0960 N.am  179  GLU179     -0.1977
    133  CA       193.3440  293.6270  338.3250 C.3   179  GLU179      0.1602
    134  C        194.8480  293.8360  338.1570 C.2   179  GLU179      0.2287
    135  O        195.5120  294.3530  339.0620 O.2   179  GLU179     -0.2864
    136  CB       193.0440  292.2160  338.8280 C.3   179  GLU179      0.0415
    137  CG       193.2620  291.1260  337.7990 C.3   179  GLU179      0.1163
    138  CD       192.9890  289.7530  338.3450 C.2   179  GLU179      0.3649
    139  OE1      192.6720  289.6480  339.5450 O.co2 179  GLU179     -0.2457
    140  OE2      193.0800  288.7770  337.5750 O.co2 179  GLU179     -0.2457
    141  N        193.2410  290.5470  344.5160 N.3   212  VAL212     -0.1231
    142  CA       192.4160  291.6690  344.1060 C.3   212  VAL212      0.1692
    143  C        190.9680  291.2260  344.1760 C.2   212  VAL212      0.2593
    144  O        190.5940  290.2200  343.5660 O.2   212  VAL212     -0.2718
    145  CB       192.7600  292.1360  342.6830 C.3   212  VAL212      0.0266
    146  CG1      191.7690  293.1740  342.2260 C.3   212  VAL212      0.0020
    147  CG2      194.1620  292.6870  342.6390 C.3   212  VAL212      0.0020
    148  N        190.1560  291.9610  344.9250 N.am  213  THR213     -0.1939
    149  CA       188.7600  291.5890  345.0990 C.3   213  THR213      0.2028
    150  C        187.8470  292.7400  344.7180 C.2   213  THR213      0.2642
    151  O        188.1760  293.9010  344.9440 O.2   213  THR213     -0.2714
    152  CB       188.4460  291.2020  346.5310 C.3   213  THR213      0.1808
    153  OG1      188.7500  292.3090  347.3880 O.3   213  THR213     -0.2208
    154  CG2      189.2520  290.0030  346.9530 C.3   213  THR213      0.0379
    155  N        186.6800  292.4020  344.1680 N.am  214  ASN214     -0.1971
    156  CA       185.6490  293.4040  343.9320 C.3   214  ASN214      0.1688
    157  C        185.1540  293.9720  345.2560 C.2   214  ASN214      0.2292
    158  O        185.1780  293.3080  346.2930 O.2   214  ASN214     -0.2864
    159  CB       184.4760  292.7990  343.1550 C.3   214  ASN214      0.1181
    160  CG       183.4650  293.8420  342.6920 C.2   214  ASN214      0.2629
    161  OD1      183.6250  295.0400  342.9210 O.2   214  ASN214     -0.2716
    162  ND2      182.4060  293.3830  342.0570 N.am  214  ASN214     -0.0877
    163  N        181.9950  291.9920  346.2960 N.3   217  THR217     -0.1218
    164  CA       182.1740  290.6510  346.8240 C.3   217  THR217      0.1862
    165  C        182.8590  290.6550  348.1770 C.2   217  THR217      0.2287
    166  O        182.8630  289.6240  348.8530 O.2   217  THR217     -0.2866
    167  CB       182.9640  289.7750  345.8540 C.3   217  THR217      0.1770
    168  OG1      182.8660  288.4100  346.2720 O.3   217  THR217     -0.2211
    169  CG2      184.4160  290.1550  345.8610 C.3   217  THR217      0.0375
    170  N        191.6780  290.9850  329.5510 N.3   396  ALA396     -0.1231
    171  CA       190.4260  290.7510  328.8590 C.3   396  ALA396      0.1694
    172  C        189.7310  292.0280  328.4240 C.2   396  ALA396      0.2591
    173  O        188.5410  291.9730  328.1130 O.2   396  ALA396     -0.2718
    174  CB       189.4930  289.9150  329.7320 C.3   396  ALA396      0.0304
    175  N        190.4260  293.1650  328.3910 N.am  397  LEU397     -0.1980
    176  CA       189.8140  294.3780  327.8670 C.3   397  LEU397      0.1596
    177  C        189.5660  294.2620  326.3760 C.2   397  LEU397      0.2287
    178  O        188.5670  294.7790  325.8680 O.2   397  LEU397     -0.2864
    179  CB       190.6900  295.5880  328.1710 C.3   397  LEU397      0.0297
    180  CG       190.1160  296.9770  327.8850 C.3   397  LEU397      0.0022
    181  CD1      190.5470  297.9120  328.9850 C.3   397  LEU397      0.0001
    182  CD2      190.6000  297.5390  326.5550 C.3   397  LEU397      0.0001
    183  N        186.6380  292.2080  325.9620 N.3   400  ALA400     -0.1245
    184  CA       185.5210  293.0640  326.3240 C.3   400  ALA400      0.1562
    185  C        185.1500  294.0140  325.1970 C.2   400  ALA400      0.2260
    186  O        183.9810  294.3830  325.0580 O.2   400  ALA400     -0.2867
    187  CB       185.8760  293.8470  327.5840 C.3   400  ALA400      0.0290
@<TRIPOS>BOND
     1   186   185    2
     2   185   184    1
     3   178   177    2
     4   183   184    1
     5   184   187    1
     6   177   176    1
     7   182   180    1
     8   176   179    1
     9   176   175    1
    10   180   179    1
    11   180   181    1
    12   173   172    2
    13   175   172   am
    14   172   171    1
    15   171   170    1
    16   171   174    1
    17   116   114   ar
    18   116   117   ar
    19   114   112   ar
    20   118   117    1
    21   117   115   ar
    22   112   111    1
    23   112   113   ar
    24   111   108    1
    25   106   104   ar
    26   115   113   ar
    27   104   103    1
    28   104   105   ar
    29   103   102    1
    30   100    99    1
    31   100   101    2
    32   107   108    1
    33   109   108    1
    34   109   110    2
    35    97    96    2
    36    99   102    1
    37    99    98    1
    38   128   127    1
    39   128   129    1
    40    96    98   am
    41    96    95    1
    42   127   124    1
    43   129   130   ar
    44   129   131   ar
    45    23    22    2
    46    95    94    1
    47    22    21    1
    48    22    24   am
    49   124   123    1
    50   124   125    1
    51   123   121   am
    52    27    26    2
    53    21    20    1
    54    25    24    1
    55    25    26    1
    56    25    28    1
    57   119   120    1
    58    94    87   am
    59   121   120    1
    60   121   122    2
    61   125   126    2
    62   125   132   am
    63   132   133    1
    64    19    18    2
    65    20    18   am
    66    87    88    2
    67    87    86    1
    68   140   138   ar
    69    18    17    1
    70   137   138    1
    71   137   136    1
    72    84    82   ar
    73   134   133    1
    74   134   135    2
    75   133   136    1
    76   138   139   ar
    77    83    82   ar
    78    82    81    1
    79    86    89    1
    80    86    85    1
    81    35    37   ar
    82    35    34   ar
    83    37    39   ar
    84    29    30    1
    85    17    16    1
    86    89    90    1
    87     8     7    2
    88    85    79   am
    89    33    30    1
    90    33    34    1
    91    30    31    1
    92    76    74   am
    93    34    36   ar
    94    81    78    1
    95     4     3    2
    96    16     7   am
    97    80    79    2
    98     7     6    1
    99    79    78    1
   100    39    38   ar
   101    90    91    1
   102    75    74    2
   103    74    73    1
   104    78    77    1
   105    92    91   ar
   106     6     5    1
   107     6     9    1
   108    36    38   ar
   109    31    32    2
   110     3     5   am
   111     3     2    1
   112    91    93   ar
   113    54    53    1
   114    53    52    1
   115     9    10    1
   116   162   160   am
   117     1     2    1
   118    73    70    1
   119   146   145    1
   120    10    11    1
   121   147   145    1
   122   145   142    1
   123   160   161    2
   124   160   159    1
   125    72    71    2
   126   159   156    1
   127    70    71    1
   128    70    69    1
   129    52    51    1
   130   144   143    2
   131    11    12    1
   132    51    50    1
   133   156   155    1
   134   156   157    1
   135    50    47    1
   136   142   143    1
   137   142   141    1
   138   155   150   am
   139   143   148   am
   140    12    13    2
   141    47    46    1
   142    47    48    1
   143   150   151    2
   144   150   149    1
   145    40    41    1
   146   148   149    1
   147   149   152    1
   148   157   158    2
   149    45    44    1
   150    13    15    1
   151    13    14    1
   152    41    44    1
   153    41    42    1
   154   167   169    1
   155   167   168    1
   156   167   164    1
   157    48    49    2
   158    48    55   am
   159   163   164    1
   160    42    43    2
   161   152   154    1
   162   152   153    1
   163   164   165    1
   164    55    56    1
   165    63    61   ar
   166    63    64   ar
   167    61    60   ar
   168   165   166    2
   169    56    57    1
   170    56    59    1
   171    64    66   ar
   172    64    62   ar
   173    60    59    1
   174    60    62   ar
   175    66    68   ar
   176    57    58    2
   177    62    65   ar
   178    68    67   ar
   179    65    67   ar
