@<TRIPOS>MOLECULE
tmp/6gctC00.pdb
 115 107 0 0 0
SMALL
GASTEIGER

@<TRIPOS>ATOM
      1  N        100.9680  153.5670  132.5170 N.3   294  SER294     -0.1217
      2  CA       101.1010  152.4160  131.6160 C.3   294  SER294      0.1889
      3  C        101.7260  151.2200  132.3230 C.2   294  SER294      0.2288
      4  O        102.7170  150.6470  131.8740 O.2   294  SER294     -0.2866
      5  CB       101.8810  152.7810  130.3550 C.3   294  SER294      0.2089
      6  OG       103.2080  153.1430  130.6620 O.3   294  SER294     -0.2183
      7  N        100.0490  147.9730  134.7730 N.3   296  SER296     -0.1217
      8  CA        99.0930  147.3190  135.6480 C.3   296  SER296      0.1889
      9  C         99.7450  146.8420  136.9320 C.2   296  SER296      0.2288
     10  O         99.0460  146.6320  137.9250 O.2   296  SER296     -0.2866
     11  CB        98.4410  146.1450  134.9370 C.3   296  SER296      0.2089
     12  OG        99.3930  145.1270  134.7110 O.3   296  SER296     -0.2183
     13  N         95.4920  139.2920  130.6770 N.3   330  MET330     -0.1245
     14  CA        95.9580  140.4780  129.9790 C.3   330  MET330      0.1570
     15  C         95.3180  140.4960  128.6060 C.2   330  MET330      0.2261
     16  O         95.9110  140.0630  127.6210 O.2   330  MET330     -0.2867
     17  CB        97.3550  140.4740  129.9020 C.3   330  MET330      0.0387
     18  CG        98.0150  140.5490  131.2270 C.3   330  MET330      0.0595
     19  SD        99.7550  140.4170  130.9400 S.3   330  MET330     -0.1393
     20  CE        99.9820  141.9300  130.0350 C.3   330  MET330      0.0692
     21  N         97.2090  143.1750  125.9190 N.3   333  ALA333     -0.1245
     22  CA        98.2690  142.7040  125.0470 C.3   333  ALA333      0.1562
     23  C         97.7210  141.7490  124.0050 C.2   333  ALA333      0.2260
     24  O         98.1850  141.7400  122.8610 O.2   333  ALA333     -0.2867
     25  CB        99.3620  142.0320  125.8670 C.3   333  ALA333      0.0290
     26  N         96.8540  143.3880  121.1640 N.3   336  PHE336     -0.1241
     27  CA        97.9470  144.1170  120.5520 C.3   336  PHE336      0.1605
     28  C         98.9060  143.1880  119.8320 C.2   336  PHE336      0.2264
     29  O         99.4820  143.5640  118.8090 O.2   336  PHE336     -0.2867
     30  CB        98.6520  144.9370  121.6140 C.3   336  PHE336      0.0534
     31  CG        99.8730  145.5910  121.1330 C.ar  336  PHE336     -0.0203
     32  CD1       99.8100  146.5010  120.1100 C.ar  336  PHE336     -0.0042
     33  CD2      101.0790  145.3470  121.7440 C.ar  336  PHE336     -0.0042
     34  CE1      100.9420  147.1190  119.6630 C.ar  336  PHE336     -0.0003
     35  CE2      102.2140  145.9700  121.3170 C.ar  336  PHE336     -0.0003
     36  CZ       102.1500  146.8560  120.2700 C.ar  336  PHE336     -0.0000
     37  N        104.4200  138.2110  129.0740 N.3   371  ALA371     -0.1231
     38  CA       104.9900  139.4470  129.5860 C.3   371  ALA371      0.1694
     39  C        103.8940  140.3540  130.1140 C.2   371  ALA371      0.2592
     40  O        102.7390  140.2630  129.7000 O.2   371  ALA371     -0.2718
     41  CB       105.7820  140.1640  128.4990 C.3   371  ALA371      0.0304
     42  N        104.2630  141.2230  131.0490 N.am  372  ALA372     -0.1966
     43  CA       103.2680  141.9040  131.8580 C.3   372  ALA372      0.1728
     44  C        103.8810  143.1220  132.5170 C.2   372  ALA372      0.2617
     45  O        105.0760  143.3910  132.3900 O.2   372  ALA372     -0.2715
     46  CB       102.7060  140.9740  132.9310 C.3   372  ALA372      0.0334
     47  N        103.0250  143.8690  133.2080 N.am  373  GLY373     -0.1940
     48  CA       103.4390  144.8180  134.2180 C.3   373  GLY373      0.2014
     49  C        104.0970  146.0620  133.6770 C.2   373  GLY373      0.2639
     50  O        103.5200  147.1470  133.7050 O.2   373  GLY373     -0.2714
     51  N        105.3050  145.9010  133.1600 N.am  374  ILE374     -0.1963
     52  CA       106.1090  147.0180  132.6890 C.3   374  ILE374      0.1712
     53  C        105.5320  147.5460  131.3830 C.2   374  ILE374      0.2458
     54  O        104.9350  146.7850  130.6140 O.2   374  ILE374     -0.2730
     55  CB       107.5780  146.5930  132.5410 C.3   374  ILE374      0.0289
     56  CG1      107.6920  145.3490  131.6620 C.3   374  ILE374      0.0022
     57  CG2      108.1880  146.3230  133.8970 C.3   374  ILE374      0.0023
     58  CD1      109.1120  144.9760  131.3260 C.3   374  ILE374      0.0001
     59  N        105.6400  148.8390  131.1200 N.am  375  PRO375     -0.2716
     60  CA       105.2790  149.3490  129.8000 C.3   375  PRO375      0.1536
     61  C        106.2450  148.8550  128.7480 C.2   375  PRO375      0.2598
     62  O        107.4210  148.6090  129.0280 O.2   375  PRO375     -0.2715
     63  CB       105.3850  150.8630  129.9640 C.3   375  PRO375      0.0310
     64  CG       106.3080  151.0520  131.1030 C.3   375  PRO375      0.0237
     65  CD       106.0440  149.9160  132.0330 C.3   375  PRO375      0.0939
     66  N        105.7170  148.7180  127.5260 N.am  376  ALA376     -0.1964
     67  CA       106.4110  148.1320  126.3710 C.3   376  ALA376      0.1728
     68  C        106.9530  146.7410  126.6840 C.2   376  ALA376      0.2617
     69  O        108.0160  146.3440  126.2060 O.2   376  ALA376     -0.2715
     70  CB       107.5220  149.0450  125.8430 C.3   376  ALA376      0.0334
     71  N        106.2200  145.9910  127.5050 N.am  377  GLY377     -0.1940
     72  CA       106.5760  144.6120  127.7370 C.3   377  GLY377      0.2014
     73  C        106.0740  143.6800  126.6700 C.2   377  GLY377      0.2639
     74  O        106.6780  142.6300  126.4450 O.2   377  GLY377     -0.2714
     75  N        105.0010  144.0570  125.9800 N.am  378  GLY378     -0.1954
     76  CA       104.4920  143.2250  124.9120 C.3   378  GLY378      0.1869
     77  C        105.3590  143.2010  123.6730 C.2   378  GLY378      0.2309
     78  O        105.1420  142.3520  122.8040 O.2   378  GLY378     -0.2863
     79  N        104.1580  152.5860  119.9870 N.3   403  ASP403     -0.1239
     80  CA       103.7180  151.8380  121.1570 C.3   403  ASP403      0.1674
     81  C        103.3550  152.7450  122.3180 C.2   403  ASP403      0.2266
     82  O        102.5720  152.3340  123.1820 O.2   403  ASP403     -0.2867
     83  CB       104.7890  150.8670  121.6340 C.3   403  ASP403      0.1410
     84  CG       104.2150  149.7590  122.4950 C.2   403  ASP403      0.3668
     85  OD1      102.9810  149.6120  122.5050 O.co2 403  ASP403     -0.2456
     86  OD2      104.9780  149.0730  123.2050 O.co2 403  ASP403     -0.2456
     87  N         99.9890  151.0610  123.8830 N.3   407  ASP407     -0.1239
     88  CA       100.0920  150.2710  125.1010 C.3   407  ASP407      0.1674
     89  C         99.3850  150.9430  126.2660 C.2   407  ASP407      0.2266
     90  O         98.8480  150.2610  127.1420 O.2   407  ASP407     -0.2867
     91  CB       101.5560  149.9250  125.4090 C.3   407  ASP407      0.1410
     92  CG       102.3310  151.0190  126.1520 C.2   407  ASP407      0.3668
     93  OD1      102.0070  152.2280  126.1010 O.co2 407  ASP407     -0.2456
     94  OD2      103.3010  150.6310  126.8390 O.co2 407  ASP407     -0.2456
     95  N         95.9960  149.9210  125.8490 N.3   410  CYS410     -0.1221
     96  CA        95.6990  148.5340  126.1590 C.3   410  CYS410      0.1808
     97  C         95.8830  148.2290  127.6290 C.2   410  CYS410      0.2601
     98  O         95.3670  147.2160  128.1120 O.2   410  CYS410     -0.2717
     99  CB        96.5770  147.5880  125.3450 C.3   410  CYS410      0.0970
    100  SG        98.2230  147.3220  125.9690 S.3   410  CYS410     -0.0800
    101  N         96.6200  149.0790  128.3370 N.am  411  THR411     -0.1953
    102  CA        96.7970  148.8870  129.7660 C.3   411  THR411      0.1897
    103  C         95.4850  149.1080  130.5000 C.2   411  THR411      0.2313
    104  O         95.1890  148.4170  131.4780 O.2   411  THR411     -0.2863
    105  CB        97.8820  149.8360  130.2720 C.3   411  THR411      0.1794
    106  OG1       99.0560  149.6700  129.4730 O.3   411  THR411     -0.2208
    107  CG2       98.2510  149.5320  131.7000 C.3   411  THR411      0.0378
    108  N         93.4040  146.0930  130.0170 N.3   414  ASN414     -0.1240
    109  CA        94.0540  145.0560  130.8070 C.3   414  ASN414      0.1653
    110  C         93.5570  145.0830  132.2430 C.2   414  ASN414      0.2266
    111  O         93.1150  144.0620  132.7780 O.2   414  ASN414     -0.2867
    112  CB        95.5620  145.2870  130.7370 C.3   414  ASN414      0.1155
    113  CG        96.3930  144.0770  131.0980 C.2   414  ASN414      0.2627
    114  OD1       97.5520  144.0050  130.7030 O.2   414  ASN414     -0.2716
    115  ND2       95.8520  143.1610  131.8850 N.am  414  ASN414     -0.0877
@<TRIPOS>BOND
     1    29    28    2
     2    34    32   ar
     3    34    36   ar
     4    28    27    1
     5    79    80    1
     6    32    31   ar
     7    36    35   ar
     8    27    26    1
     9    27    30    1
    10    31    30    1
    11    31    33   ar
    12    80    83    1
    13    80    81    1
    14    35    33   ar
    15    83    84    1
    16    81    82    2
    17    84    85   ar
    18    84    86   ar
    19    78    77    2
    20    24    23    2
    21    77    76    1
    22    87    88    1
    23    23    22    1
    24    76    75    1
    25    22    25    1
    26    22    21    1
    27    88    91    1
    28    88    89    1
    29    99   100    1
    30    99    96    1
    31    91    92    1
    32    70    67    1
    33    95    96    1
    34    75    73   am
    35    93    92   ar
    36    92    94   ar
    37    96    97    1
    38    69    68    2
    39    89    90    2
    40    67    68    1
    41    67    66    1
    42    74    73    2
    43    73    72    1
    44    68    71   am
    45    71    72    1
    46    66    61   am
    47    16    15    2
    48    97    98    2
    49    97   101   am
    50   101   102    1
    51    41    38    1
    52    15    14    1
    53    61    62    2
    54    61    60    1
    55    37    38    1
    56   106   105    1
    57    38    39    1
    58    40    39    2
    59   102   105    1
    60   102   103    1
    61    60    63    1
    62    60    59    1
    63    17    14    1
    64    17    18    1
    65    63    64    1
    66    14    13    1
    67   108   109    1
    68    20    19    1
    69    39    42   am
    70   105   107    1
    71     5     6    1
    72     5     2    1
    73   103   104    2
    74    54    53    2
    75   114   113    2
    76   112   109    1
    77   112   113    1
    78   109   110    1
    79    19    18    1
    80    42    43    1
    81   113   115   am
    82    64    65    1
    83    59    53   am
    84    59    65    1
    85    58    56    1
    86    53    52    1
    87     2     3    1
    88     2     1    1
    89    56    55    1
    90    43    44    1
    91    43    46    1
    92     4     3    2
    93   110   111    2
    94    45    44    2
    95    44    47   am
    96    55    52    1
    97    55    57    1
    98    52    51    1
    99    51    49   am
   100    47    48    1
   101    49    50    2
   102    49    48    1
   103    12    11    1
   104     7     8    1
   105    11     8    1
   106     8     9    1
   107     9    10    2
