@<TRIPOS>MOLECULE
tmp/6gd7A01.pdb
 132 127 0 0 0
SMALL
GASTEIGER

@<TRIPOS>ATOM
      1  N         11.6790    9.1320   -9.6360 N.3     3  PHE3       -0.1227
      2  CA        11.4250   10.3360  -10.4520 C.3     3  PHE3        0.1736
      3  C         10.2490   10.1810  -11.4270 C.2     3  PHE3        0.2595
      4  O         10.1090    9.1510  -12.0840 O.2     3  PHE3       -0.2718
      5  CB        12.6790   10.7330  -11.2520 C.3     3  PHE3        0.0547
      6  CG        12.4360   11.8320  -12.2510 C.ar    3  PHE3       -0.0202
      7  CD1       12.4430   13.1690  -11.8490 C.ar    3  PHE3       -0.0042
      8  CD2       12.1820   11.5380  -13.5940 C.ar    3  PHE3       -0.0042
      9  CE1       12.2020   14.1850  -12.7590 C.ar    3  PHE3       -0.0003
     10  CE2       11.9390   12.5570  -14.5130 C.ar    3  PHE3       -0.0003
     11  CZ        11.9510   13.8810  -14.0940 C.ar    3  PHE3       -0.0000
     12  N          9.4250   11.2240  -11.5230 N.am    4  LYS4       -0.1966
     13  CA         8.4250   11.3390  -12.5790 C.3     4  LYS4        0.1728
     14  C          8.4100   12.7690  -13.1120 C.2     4  LYS4        0.2616
     15  O          8.4720   13.7230  -12.3320 O.2     4  LYS4       -0.2715
     16  CB         7.0410   10.9220  -12.0600 C.3     4  LYS4        0.0311
     17  CG         6.1110   10.4300  -13.1650 C.3     4  LYS4        0.0038
     18  CD         4.8310    9.7850  -12.6390 C.3     4  LYS4        0.0206
     19  CE         3.6860   10.7800  -12.5100 C.3     4  LYS4        0.1093
     20  NZ         3.9250   11.8090  -11.4600 N.3     4  LYS4       -0.1314
     21  N          8.3370   12.9130  -14.4350 N.am    5  ALA5       -0.1963
     22  CA         8.3900   14.2230  -15.0900 C.3     5  ALA5        0.1728
     23  C          7.3340   15.1550  -14.5280 C.2     5  ALA5        0.2617
     24  O          6.1750   14.7600  -14.3280 O.2     5  ALA5       -0.2715
     25  CB         8.2250   14.0920  -16.6020 C.3     5  ALA5        0.0334
     26  N          7.7570   16.3800  -14.2420 N.am    6  GLY6       -0.1940
     27  CA         6.8940   17.3990  -13.6720 C.3     6  GLY6        0.2014
     28  C          6.8350   18.5940  -14.5910 C.2     6  GLY6        0.2640
     29  O          6.7620   18.4400  -15.8050 O.2     6  GLY6       -0.2714
     30  N          6.8670   19.7810  -13.9950 N.am    7  SER7       -0.1935
     31  CA         6.8170   21.0440  -14.6960 C.3     7  SER7        0.2055
     32  C          8.1880   21.6910  -14.7500 C.2     7  SER7        0.2643
     33  O          8.7040   22.1310  -13.7180 O.2     7  SER7       -0.2714
     34  CB         5.8570   21.9880  -13.9780 C.3     7  SER7        0.2130
     35  OG         5.9190   23.2920  -14.5140 O.3     7  SER7       -0.2179
     36  N          8.7720   21.7800  -15.9480 N.am    8  ALA8       -0.1963
     37  CA        10.0210   22.5380  -16.1200 C.3     8  ALA8        0.1728
     38  C          9.8710   24.0270  -15.7760 C.2     8  ALA8        0.2616
     39  O         10.8200   24.6570  -15.2800 O.2     8  ALA8       -0.2715
     40  CB        10.5720   22.3680  -17.5290 C.3     8  ALA8        0.0334
     41  N          8.6850   24.5820  -16.0310 N.am    9  LYS9       -0.1963
     42  CA         8.3870   25.9800  -15.7210 C.3     9  LYS9        0.1728
     43  C          8.5520   26.2270  -14.2150 C.2     9  LYS9        0.2616
     44  O          9.2580   27.1550  -13.8120 O.2     9  LYS9       -0.2715
     45  CB         6.9710   26.3500  -16.1660 C.3     9  LYS9        0.0311
     46  CG         6.6730   27.8410  -16.0970 C.3     9  LYS9        0.0038
     47  CD         5.2140   28.1690  -16.4130 C.3     9  LYS9        0.0206
     48  CE         4.8670   27.8750  -17.8580 C.3     9  LYS9        0.1093
     49  NZ         3.5020   28.3470  -18.2030 N.3     9  LYS9       -0.1314
     50  N          7.9160   25.3870  -13.4020 N.am   10  LYS10      -0.1977
     51  CA         8.0730   25.4680  -11.9370 C.3    10  LYS10       0.1596
     52  C          9.5070   25.1510  -11.5060 C.2    10  LYS10       0.2287
     53  O         10.0460   25.7960  -10.6300 O.2    10  LYS10      -0.2864
     54  CB         7.0850   24.5430  -11.2220 C.3    10  LYS10       0.0298
     55  CG         5.6440   25.0190  -11.2920 C.3    10  LYS10       0.0038
     56  CD         4.6990   24.0100  -10.6650 C.3    10  LYS10       0.0206
     57  CE         3.3520   24.6390  -10.3680 C.3    10  LYS10       0.1093
     58  NZ         2.3230   23.6010  -10.0980 N.3    10  LYS10      -0.1314
     59  N         12.3050   25.6700  -13.0890 N.3    12  ALA12      -0.1245
     60  CA        13.2020   26.8170  -13.3430 C.3    12  ALA12       0.1562
     61  C         13.1620   27.8540  -12.2210 C.2    12  ALA12       0.2260
     62  O         14.1900   28.4080  -11.8480 O.2    12  ALA12      -0.2867
     63  CB        12.8490   27.4930  -14.6560 C.3    12  ALA12       0.0290
     64  N         24.5900   26.4970  -18.0950 N.3    26  GLU26      -0.1245
     65  CA        25.0250   26.6660  -19.4870 C.3    26  GLU26       0.1567
     66  C         26.4980   26.3050  -19.6660 C.2    26  GLU26       0.2260
     67  O         27.3260   26.6140  -18.8030 O.2    26  GLU26      -0.2867
     68  CB        24.8010   28.1120  -19.9580 C.3    26  GLU26       0.0388
     69  CG        23.3440   28.4890  -20.1870 C.3    26  GLU26       0.1160
     70  CD        22.7460   29.2620  -19.0310 C.2    26  GLU26       0.3649
     71  OE1       21.6180   29.7800  -19.1790 O.co2  26  GLU26      -0.2457
     72  OE2       23.4060   29.3590  -17.9760 O.co2  26  GLU26      -0.2457
     73  N         18.1460   10.7440  -13.1420 N.3    66  GLU66      -0.1245
     74  CA        17.0600   11.5210  -12.5280 C.3    66  GLU66       0.1567
     75  C         16.5870   10.9260  -11.1900 C.2    66  GLU66       0.2260
     76  O         16.1190   11.6690  -10.3240 O.2    66  GLU66      -0.2867
     77  CB        15.9070   11.7240  -13.5200 C.3    66  GLU66       0.0388
     78  CG        16.3120   12.6050  -14.7020 C.3    66  GLU66       0.1160
     79  CD        15.1710   12.9630  -15.6410 C.2    66  GLU66       0.3649
     80  OE1       14.6540   12.0450  -16.3250 O.co2  66  GLU66      -0.2457
     81  OE2       14.8050   14.1670  -15.7120 O.co2  66  GLU66      -0.2457
     82  N         13.1910   17.9430  -13.7150 N.3   101  THR101     -0.1203
     83  CA        12.6540   18.0510  -15.0780 C.3   101  THR101      0.1994
     84  C         13.2680   19.2620  -15.7910 C.2   101  THR101      0.2617
     85  O         13.7260   19.1520  -16.9340 O.2   101  THR101     -0.2717
     86  CB        11.1120   18.1430  -15.0580 C.3   101  THR101      0.1784
     87  OG1       10.5820   16.9670  -14.4390 O.3   101  THR101     -0.2211
     88  CG2       10.5290   18.2800  -16.4750 C.3   101  THR101      0.0376
     89  N         13.3030   20.4020  -15.1050 N.am  102  TYR102     -0.1975
     90  CA        13.9630   21.5850  -15.6500 C.3   102  TYR102      0.1639
     91  C         15.4580   21.3180  -15.8670 C.2   102  TYR102      0.2290
     92  O         15.9960   21.6300  -16.9290 O.2   102  TYR102     -0.2864
     93  CB        13.7690   22.8260  -14.7480 C.3   102  TYR102      0.0560
     94  CG        14.7800   23.9150  -15.0260 C.ar  102  TYR102     -0.0198
     95  CD1       14.6540   24.7530  -16.1360 C.ar  102  TYR102     -0.0009
     96  CD2       15.9000   24.0810  -14.2110 C.ar  102  TYR102     -0.0009
     97  CE1       15.5930   25.7430  -16.4090 C.ar  102  TYR102      0.0417
     98  CE2       16.8490   25.0530  -14.4950 C.ar  102  TYR102      0.0417
     99  CZ        16.6950   25.8840  -15.5890 C.ar  102  TYR102      0.1957
    100  OH        17.6390   26.8600  -15.8620 O.3   102  TYR102     -0.2866
    101  N         17.3100   18.5720  -16.2220 N.3   104  LYS104     -0.1231
    102  CA        17.6090   17.6370  -17.3110 C.3   104  LYS104      0.1693
    103  C         17.6200   18.3470  -18.6730 C.2   104  LYS104      0.2592
    104  O         18.5030   18.1020  -19.5100 O.2   104  LYS104     -0.2718
    105  CB        16.5960   16.4900  -17.3070 C.3   104  LYS104      0.0285
    106  CG        16.8520   15.3850  -18.3200 C.3   104  LYS104      0.0035
    107  CD        17.9690   14.4650  -17.8880 C.3   104  LYS104      0.0206
    108  CE        18.1470   13.3380  -18.8980 C.3   104  LYS104      0.1093
    109  NZ        18.6340   13.8450  -20.2110 N.3   104  LYS104     -0.1314
    110  N         16.6360   19.2140  -18.8930 N.am  105  LYS105     -0.1966
    111  CA        16.5350   19.9640  -20.1480 C.3   105  LYS105      0.1728
    112  C         17.5670   21.0880  -20.2250 C.2   105  LYS105      0.2616
    113  O         18.2490   21.2380  -21.2390 O.2   105  LYS105     -0.2715
    114  CB        15.1270   20.5290  -20.3190 C.3   105  LYS105      0.0311
    115  CG        14.9010   21.3980  -21.5560 C.3   105  LYS105      0.0038
    116  CD        15.2750   20.6830  -22.8510 C.3   105  LYS105      0.0206
    117  CE        15.1000   21.5770  -24.0620 C.3   105  LYS105      0.1093
    118  NZ        15.4680   20.8130  -25.2910 N.3   105  LYS105     -0.1314
    119  N         17.6790   21.8750  -19.1550 N.am  106  ALA106     -0.1977
    120  CA        18.5410   23.0660  -19.1520 C.3   106  ALA106      0.1597
    121  C         20.0370   22.7580  -19.2310 C.2   106  ALA106      0.2287
    122  O         20.8050   23.5960  -19.6870 O.2   106  ALA106     -0.2864
    123  CB        18.2510   23.9280  -17.9330 C.3   106  ALA106      0.0319
    124  N         21.3440   20.1900  -20.9830 N.3   108  GLU108     -0.1245
    125  CA        21.6580   19.4930  -22.2400 C.3   108  GLU108      0.1567
    126  C         22.7250   20.2050  -23.0310 C.2   108  GLU108      0.2260
    127  O         22.7790   21.4340  -23.0450 O.2   108  GLU108     -0.2867
    128  CB        20.4220   19.3770  -23.1290 C.3   108  GLU108      0.0388
    129  CG        19.6230   18.1360  -22.8720 C.3   108  GLU108      0.1160
    130  CD        18.3020   18.1400  -23.6190 C.2   108  GLU108      0.3649
    131  OE1       18.0830   19.0280  -24.4830 O.co2 108  GLU108     -0.2457
    132  OE2       17.4840   17.2550  -23.3100 O.co2 108  GLU108     -0.2457
@<TRIPOS>BOND
     1   118   117    1
     2   131   130   ar
     3   117   116    1
     4   130   132   ar
     5   130   129    1
     6   128   129    1
     7   128   125    1
     8   127   126    2
     9   126   125    1
    10   116   115    1
    11   125   124    1
    12   115   114    1
    13   113   112    2
    14   114   111    1
    15   112   111    1
    16   112   119   am
    17   109   108    1
    18    69    68    1
    19    69    70    1
    20   111   110    1
    21    68    65    1
    22   122   121    2
    23    66    65    1
    24    66    67    2
    25   104   103    2
    26    65    64    1
    27   121   120    1
    28    71    70   ar
    29   119   120    1
    30   120   123    1
    31    70    72   ar
    32   108   107    1
    33   110   103   am
    34   103   102    1
    35   106   107    1
    36   106   105    1
    37    49    48    1
    38    48    47    1
    39    40    37    1
    40   102   105    1
    41   102   101    1
    42    85    84    2
    43    92    91    2
    44    25    22    1
    45    88    86    1
    46    47    46    1
    47    97    95   ar
    48    97    99   ar
    49    80    79   ar
    50    45    46    1
    51    45    42    1
    52    95    94   ar
    53    37    36    1
    54    37    38    1
    55    41    38   am
    56    41    42    1
    57    36    32   am
    58    91    90    1
    59   100    99    1
    60    29    28    2
    61    84    89   am
    62    84    83    1
    63    38    39    2
    64    42    43    1
    65    81    79   ar
    66    90    89    1
    67    90    93    1
    68    79    78    1
    69    99    98   ar
    70    22    23    1
    71    22    21    1
    72    83    86    1
    73    83    82    1
    74    86    87    1
    75    94    93    1
    76    94    96   ar
    77    32    31    1
    78    32    33    2
    79    78    77    1
    80    31    30    1
    81    31    34    1
    82    63    60    1
    83    28    30   am
    84    28    27    1
    85    23    24    2
    86    23    26   am
    87    35    34    1
    88    10    11   ar
    89    10     8   ar
    90    98    96   ar
    91    21    14   am
    92    26    27    1
    93    43    44    2
    94    43    50   am
    95    11     9   ar
    96     8     6   ar
    97    77    74    1
    98    50    51    1
    99    60    59    1
   100    60    61    1
   101    17    18    1
   102    17    16    1
   103    73    74    1
   104    14    13    1
   105    14    15    2
   106     9     7   ar
   107    18    19    1
   108    13    16    1
   109    13    12    1
   110    74    75    1
   111    19    20    1
   112     6     7   ar
   113     6     5    1
   114    61    62    2
   115     4     3    2
   116    51    52    1
   117    51    54    1
   118    12     3   am
   119    52    53    2
   120     3     2    1
   121    55    54    1
   122    55    56    1
   123     5     2    1
   124    75    76    2
   125    56    57    1
   126     2     1    1
   127    57    58    1
