@<TRIPOS>MOLECULE
tmp/6gd8A02.pdb
 113 109 0 0 0
SMALL
GASTEIGER

@<TRIPOS>ATOM
      1  N         73.5040   57.8100  -39.3340 N.3    18  ARG18      -0.1245
      2  CA        72.5070   56.8980  -39.9190 C.3    18  ARG18       0.1563
      3  C         72.9620   56.0050  -41.0800 C.2    18  ARG18       0.2260
      4  O         72.3450   54.9680  -41.3020 O.2    18  ARG18      -0.2867
      5  CB        71.2730   57.6930  -40.3690 C.3    18  ARG18       0.0307
      6  CG        70.6420   58.5810  -39.3140 C.3    18  ARG18       0.0489
      7  CD        70.0620   57.7750  -38.1620 C.3    18  ARG18       0.2205
      8  NE        69.0650   58.5500  -37.4300 N.pl3  18  ARG18      -0.0865
      9  CZ        69.3300   59.4900  -36.5170 C.cat  18  ARG18       0.5346
     10  NH1       70.5880   59.8230  -36.2210 N.pl3  18  ARG18       0.1354
     11  NH2       68.3280   60.1290  -35.9190 N.pl3  18  ARG18       0.1354
     12  N         62.5030   58.3070  -47.2130 N.3    74  THR74      -0.1203
     13  CA        61.3160   58.4090  -46.3480 C.3    74  THR74       0.1994
     14  C         60.9360   57.0410  -45.7700 C.2    74  THR74       0.2617
     15  O         60.5530   56.9440  -44.6020 O.2    74  THR74      -0.2717
     16  CB        60.0970   58.9910  -47.1000 C.3    74  THR74       0.1784
     17  OG1       60.4650   60.2190  -47.7460 O.3    74  THR74      -0.2211
     18  CG2       58.9290   59.2590  -46.1510 C.3    74  THR74       0.0376
     19  N         61.0460   56.0000  -46.5980 N.am   75  ASN75      -0.1974
     20  CA        60.7090   54.6220  -46.2310 C.3    75  ASN75       0.1688
     21  C         61.2190   53.6940  -47.3590 C.2    75  ASN75       0.2292
     22  O         60.5140   53.4900  -48.3460 O.2    75  ASN75      -0.2864
     23  CB        59.1860   54.4900  -46.0450 C.3    75  ASN75       0.1181
     24  CG        58.7540   53.1180  -45.5350 C.2    75  ASN75       0.2629
     25  OD1       59.5480   52.1810  -45.4290 O.2    75  ASN75      -0.2716
     26  ND2       57.4690   53.0010  -45.2200 N.am   75  ASN75      -0.0877
     27  N         61.7540   50.3610  -47.6500 N.3    77  LYS77      -0.1231
     28  CA        61.0420   49.1010  -47.8810 C.3    77  LYS77       0.1693
     29  C         59.7190   49.2940  -48.6360 C.2    77  LYS77       0.2591
     30  O         59.2830   48.3940  -49.3480 O.2    77  LYS77      -0.2718
     31  CB        60.8090   48.3650  -46.5590 C.3    77  LYS77       0.0285
     32  CG        62.1100   47.7920  -45.9520 C.3    77  LYS77       0.0035
     33  CD        61.8360   46.6940  -44.9050 C.3    77  LYS77       0.0206
     34  CE        62.7040   45.4230  -45.0350 C.3    77  LYS77       0.1093
     35  NZ        64.1620   45.6950  -45.1590 N.3    77  LYS77      -0.1314
     36  N         59.0890   50.4540  -48.4680 N.am   78  LYS78      -0.1980
     37  CA        57.8720   50.7930  -49.2170 C.3    78  LYS78       0.1596
     38  C         58.1950   51.1480  -50.6670 C.2    78  LYS78       0.2287
     39  O         57.4650   50.7470  -51.5760 O.2    78  LYS78      -0.2864
     40  CB        57.1230   51.9450  -48.5540 C.3    78  LYS78       0.0298
     41  CG        55.8570   52.3610  -49.2750 C.3    78  LYS78       0.0038
     42  CD        55.2010   53.5130  -48.5430 C.3    78  LYS78       0.0206
     43  CE        54.0990   54.1790  -49.3670 C.3    78  LYS78       0.1093
     44  NZ        54.5950   54.8600  -50.5980 N.3    78  LYS78      -0.1314
     45  N         60.0900   47.2390  -52.3000 N.3    81  PRO81      -0.2102
     46  CA        59.7460   46.0340  -51.5380 C.3    81  PRO81       0.1504
     47  C         60.7650   44.9100  -51.7400 C.2    81  PRO81       0.2576
     48  O         61.1420   44.6130  -52.8740 O.2    81  PRO81      -0.2718
     49  CB        58.3770   45.6400  -52.1070 C.3    81  PRO81       0.0282
     50  CG        57.8030   46.9140  -52.6180 C.3    81  PRO81       0.0208
     51  CD        58.9800   47.6490  -53.1840 C.3    81  PRO81       0.0893
     52  N         61.2130   44.3170  -50.6360 N.am   82  GLY82      -0.1957
     53  CA        62.2220   43.2580  -50.6620 C.3    82  GLY82       0.1869
     54  C         63.6700   43.7280  -50.6830 C.2    82  GLY82       0.2309
     55  O         64.5760   42.9060  -50.8580 O.2    82  GLY82      -0.2863
     56  N         68.4110   47.5210  -44.3130 N.3    86  ALA86      -0.1231
     57  CA        67.7290   47.5970  -43.0180 C.3    86  ALA86       0.1694
     58  C         67.8020   49.0290  -42.4850 C.2    86  ALA86       0.2592
     59  O         68.6640   49.3680  -41.6660 O.2    86  ALA86      -0.2718
     60  CB        68.3380   46.6140  -42.0250 C.3    86  ALA86       0.0304
     61  N         66.9000   49.8660  -42.9920 N.am   87  PHE87      -0.1962
     62  CA        66.7700   51.2550  -42.5600 C.3    87  PHE87       0.1771
     63  C         65.2970   51.6440  -42.6200 C.2    87  PHE87       0.2620
     64  O         64.6460   51.4480  -43.6460 O.2    87  PHE87      -0.2715
     65  CB        67.6050   52.1740  -43.4590 C.3    87  PHE87       0.0574
     66  CG        67.6920   53.5940  -42.9620 C.ar   87  PHE87      -0.0200
     67  CD1       68.4260   53.8980  -41.8240 C.ar   87  PHE87      -0.0042
     68  CD2       67.0450   54.6290  -43.6370 C.ar   87  PHE87      -0.0042
     69  CE1       68.5100   55.1950  -41.3590 C.ar   87  PHE87      -0.0003
     70  CE2       67.1280   55.9420  -43.1720 C.ar   87  PHE87      -0.0003
     71  CZ        67.8600   56.2230  -42.0310 C.ar   87  PHE87      -0.0000
     72  N         64.7810   52.1770  -41.5170 N.am   88  GLY88      -0.1940
     73  CA        63.3790   52.5650  -41.4170 C.3    88  GLY88       0.2014
     74  C         63.0100   53.8210  -42.1760 C.2    88  GLY88       0.2639
     75  O         61.8970   53.9260  -42.6940 O.2    88  GLY88      -0.2714
     76  N         63.9290   54.7830  -42.2100 N.am   89  GLY89      -0.1939
     77  CA        63.7610   56.0280  -42.9770 C.3    89  GLY89       0.2014
     78  C         64.0100   57.2850  -42.1670 C.2    89  GLY89       0.2639
     79  O         64.1520   57.2260  -40.9510 O.2    89  GLY89      -0.2714
     80  N         64.0820   58.4180  -42.8620 N.am   90  LEU90      -0.1963
     81  CA        64.0470   59.7490  -42.2470 C.3    90  LEU90       0.1728
     82  C         62.7010   60.3710  -42.5910 C.2    90  LEU90       0.2616
     83  O         62.4510   60.6880  -43.7550 O.2    90  LEU90      -0.2715
     84  CB        65.1700   60.6390  -42.7860 C.3    90  LEU90       0.0311
     85  CG        66.6100   60.2940  -42.4130 C.3    90  LEU90       0.0022
     86  CD1       67.5640   61.2470  -43.1140 C.3    90  LEU90       0.0001
     87  CD2       66.8050   60.3400  -40.9050 C.3    90  LEU90       0.0001
     88  N         61.8440   60.5500  -41.5900 N.am   91  LYS91      -0.1963
     89  CA        60.4810   61.0370  -41.8160 C.3    91  LYS91       0.1728
     90  C         60.3970   62.5360  -42.1090 C.2    91  LYS91       0.2616
     91  O         59.5820   62.9480  -42.9360 O.2    91  LYS91      -0.2715
     92  CB        59.5740   60.6660  -40.6410 C.3    91  LYS91       0.0311
     93  CG        59.4540   59.1660  -40.4200 C.3    91  LYS91       0.0038
     94  CD        59.0380   58.3730  -41.6540 C.3    91  LYS91       0.0206
     95  CE        58.6430   56.9510  -41.2610 C.3    91  LYS91       0.1093
     96  NZ        58.5090   55.9880  -42.3760 N.3    91  LYS91      -0.1314
     97  N         61.2270   63.3400  -41.4500 N.am   92  LYS92      -0.1977
     98  CA        61.2270   64.7900  -41.6780 C.3    92  LYS92       0.1596
     99  C         61.8300   65.1370  -43.0320 C.2    92  LYS92       0.2287
    100  O         62.9160   64.6680  -43.3620 O.2    92  LYS92      -0.2864
    101  CB        61.9970   65.5180  -40.5710 C.3    92  LYS92       0.0298
    102  CG        61.3370   65.4170  -39.2100 C.3    92  LYS92       0.0038
    103  CD        62.0570   66.3010  -38.2010 C.3    92  LYS92       0.0206
    104  CE        61.4500   66.1840  -36.8200 C.3    92  LYS92       0.1093
    105  NZ        62.0590   67.1670  -35.8850 N.3    92  LYS92      -0.1314
    106  N         65.3070   67.0440  -42.9170 N.3    95  ASP95      -0.1239
    107  CA        66.4790   66.1730  -42.7130 C.3    95  ASP95       0.1674
    108  C         66.9170   65.4720  -43.9960 C.2    95  ASP95       0.2266
    109  O         68.1150   65.3330  -44.2420 O.2    95  ASP95      -0.2867
    110  CB        66.2010   65.1380  -41.6150 C.3    95  ASP95       0.1410
    111  CG        66.0210   65.7770  -40.2370 C.2    95  ASP95       0.3668
    112  OD1       66.5740   66.8850  -39.9930 O.co2  95  ASP95      -0.2456
    113  OD2       65.3300   65.1600  -39.3970 O.co2  95  ASP95      -0.2456
@<TRIPOS>BOND
     1    51    50    1
     2    51    45    1
     3    48    47    2
     4    50    49    1
     5    45    46    1
     6    49    46    1
     7    47    46    1
     8    47    52   am
     9    39    38    2
    10    55    54    2
    11    54    53    1
    12    38    37    1
    13    53    52    1
    14    44    43    1
    15    43    42    1
    16    30    29    2
    17    41    40    1
    18    41    42    1
    19    37    40    1
    20    37    36    1
    21    29    36   am
    22    29    28    1
    23    22    21    2
    24    28    27    1
    25    28    31    1
    26    17    16    1
    27    21    20    1
    28    12    13    1
    29    16    13    1
    30    16    18    1
    31    19    20    1
    32    19    14   am
    33    31    32    1
    34    13    14    1
    35    20    23    1
    36    23    24    1
    37    32    33    1
    38    14    15    2
    39    24    25    2
    40    24    26   am
    41    35    34    1
    42    34    33    1
    43    56    57    1
    44   109   108    2
    45   108   107    1
    46    83    82    2
    47    64    63    2
    48    68    70   ar
    49    68    66   ar
    50    65    66    1
    51    65    62    1
    52   100    99    2
    53    70    71   ar
    54    86    85    1
    55    99    98    1
    56    57    58    1
    57    57    60    1
    58    61    62    1
    59    61    58   am
    60    77    76    1
    61    77    78    1
    62    66    67   ar
    63    91    90    2
    64   106   107    1
    65    80    81    1
    66    80    78   am
    67    84    85    1
    68    84    81    1
    69   107   110    1
    70    75    74    2
    71    63    62    1
    72    63    72   am
    73    82    81    1
    74    82    88   am
    75    58    59    2
    76    85    87    1
    77    96    95    1
    78    76    74   am
    79    74    73    1
    80    78    79    2
    81    90    89    1
    82    90    97   am
    83    71    69   ar
    84    67    69   ar
    85    89    88    1
    86    89    92    1
    87    98    97    1
    88    98   101    1
    89    94    95    1
    90    94    93    1
    91   110   111    1
    92    72    73    1
    93     4     3    2
    94     3     2    1
    95    92    93    1
    96   101   102    1
    97     5     2    1
    98     5     6    1
    99   111   112   ar
   100   111   113   ar
   101     2     1    1
   102     6     7    1
   103   102   103    1
   104   103   104    1
   105     7     8    1
   106     8     9    2
   107   104   105    1
   108     9    10    1
   109     9    11    1
