@<TRIPOS>MOLECULE
tmp/6gd8A01.pdb
 117 110 0 0 0
SMALL
GASTEIGER

@<TRIPOS>ATOM
      1  N         71.0910   72.6290  -45.3530 N.3     7  SER7       -0.1217
      2  CA        72.3920   72.6680  -44.6880 C.3     7  SER7        0.1889
      3  C         73.2080   71.4170  -45.0040 C.2     7  SER7        0.2288
      4  O         72.8000   70.3100  -44.6550 O.2     7  SER7       -0.2866
      5  CB        72.2130   72.7860  -43.1720 C.3     7  SER7        0.2089
      6  OG        73.4640   72.8600  -42.5160 O.3     7  SER7       -0.2183
      7  N         76.1330   70.8630  -43.6250 N.3     9  LYS9       -0.1231
      8  CA        76.7560   70.4840  -42.3480 C.3     9  LYS9        0.1693
      9  C         75.8590   69.5610  -41.5250 C.2     9  LYS9        0.2591
     10  O         76.3380   68.5650  -40.9660 O.2     9  LYS9       -0.2718
     11  CB        77.1280   71.7300  -41.5390 C.3     9  LYS9        0.0285
     12  CG        78.2100   72.5790  -42.1960 C.3     9  LYS9        0.0035
     13  CD        78.7980   73.5860  -41.2240 C.3     9  LYS9        0.0206
     14  CE        79.6140   74.6470  -41.9500 C.3     9  LYS9        0.1093
     15  NZ        80.1440   75.6590  -41.0020 N.3     9  LYS9       -0.1314
     16  N         74.5660   69.8880  -41.4580 N.am   10  LYS10      -0.1980
     17  CA        73.5850   68.9970  -40.8390 C.3    10  LYS10       0.1596
     18  C         73.4140   67.6230  -41.4930 C.2    10  LYS10       0.2287
     19  O         73.2370   66.6530  -40.7710 O.2    10  LYS10      -0.2864
     20  CB        72.2170   69.6660  -40.6680 C.3    10  LYS10       0.0298
     21  CG        71.2640   68.9490  -39.7240 C.3    10  LYS10       0.0038
     22  CD        70.0620   69.7720  -39.3560 C.3    10  LYS10       0.0206
     23  CE        69.0600   68.8900  -38.6390 C.3    10  LYS10       0.1093
     24  NZ        67.8470   69.6510  -38.2540 N.3    10  LYS10      -0.1314
     25  N         75.7320   66.0100  -43.2070 N.3    12  ALA12      -0.1231
     26  CA        76.9640   65.2950  -42.8840 C.3    12  ALA12       0.1694
     27  C         76.8380   64.5300  -41.5550 C.2    12  ALA12       0.2593
     28  O         77.2960   63.3890  -41.4420 O.2    12  ALA12      -0.2718
     29  CB        78.1450   66.2560  -42.8230 C.3    12  ALA12       0.0304
     30  N         76.2020   65.1580  -40.5640 N.am   13  THR13      -0.1939
     31  CA        76.0090   64.5350  -39.2530 C.3    13  THR13       0.2028
     32  C         74.9350   63.4470  -39.3090 C.2    13  THR13       0.2642
     33  O         75.0520   62.4240  -38.6280 O.2    13  THR13      -0.2714
     34  CB        75.6380   65.5640  -38.1590 C.3    13  THR13       0.1808
     35  OG1       74.3730   66.1650  -38.4520 O.3    13  THR13      -0.2208
     36  CG2       76.7040   66.6510  -38.0370 C.3    13  THR13       0.0379
     37  N         73.8910   63.6800  -40.1080 N.am   14  LEU14      -0.1977
     38  CA        72.8470   62.6770  -40.3490 C.3    14  LEU14       0.1596
     39  C         73.3890   61.4660  -41.1080 C.2    14  LEU14       0.2287
     40  O         73.0000   60.3360  -40.8160 O.2    14  LEU14      -0.2864
     41  CB        71.6650   63.2830  -41.1140 C.3    14  LEU14       0.0297
     42  CG        70.8290   64.3170  -40.3540 C.3    14  LEU14       0.0022
     43  CD1       69.9850   65.1480  -41.3170 C.3    14  LEU14       0.0001
     44  CD2       69.9500   63.6490  -39.2990 C.3    14  LEU14       0.0001
     45  N         76.6060   60.3560  -41.0720 N.3    16  LYS16      -0.1231
     46  CA        77.5250   59.6340  -40.1790 C.3    16  LYS16       0.1693
     47  C         76.8080   58.8610  -39.0730 C.2    16  LYS16       0.2593
     48  O         77.2610   57.7900  -38.6840 O.2    16  LYS16      -0.2718
     49  CB        78.5790   60.5830  -39.6010 C.3    16  LYS16       0.0285
     50  CG        79.5510   61.0360  -40.6970 C.3    16  LYS16       0.0035
     51  CD        80.6240   62.0060  -40.2770 C.3    16  LYS16       0.0206
     52  CE        81.8110   61.8460  -41.2240 C.3    16  LYS16       0.1093
     53  NZ        82.8680   62.8560  -41.0170 N.3    16  LYS16      -0.1314
     54  N         75.6960   59.4050  -38.5820 N.am   17  THR17      -0.1939
     55  CA        74.8980   58.7520  -37.5390 C.3    17  THR17       0.2028
     56  C         73.9160   57.6990  -38.0660 C.2    17  THR17       0.2642
     57  O         73.5370   56.7980  -37.3160 O.2    17  THR17      -0.2714
     58  CB        74.1050   59.7790  -36.7100 C.3    17  THR17       0.1808
     59  OG1       73.3210   60.6010  -37.5850 O.3    17  THR17      -0.2208
     60  CG2       75.0500   60.6450  -35.8920 C.3    17  THR17       0.0379
     61  N         73.5040   57.8100  -39.3340 N.am   18  ARG18      -0.1977
     62  CA        72.5070   56.8980  -39.9190 C.3    18  ARG18       0.1597
     63  C         72.9620   56.0050  -41.0800 C.2    18  ARG18       0.2287
     64  O         72.3450   54.9680  -41.3020 O.2    18  ARG18      -0.2864
     65  CB        71.2730   57.6930  -40.3690 C.3    18  ARG18       0.0334
     66  CG        70.6420   58.5810  -39.3140 C.3    18  ARG18       0.0492
     67  CD        70.0620   57.7750  -38.1620 C.3    18  ARG18       0.2205
     68  NE        69.0650   58.5500  -37.4300 N.pl3  18  ARG18      -0.0865
     69  CZ        69.3300   59.4900  -36.5170 C.cat  18  ARG18       0.5346
     70  NH1       70.5880   59.8230  -36.2210 N.pl3  18  ARG18       0.1354
     71  NH2       68.3280   60.1290  -35.9190 N.pl3  18  ARG18       0.1354
     72  N         76.7770   55.8880  -42.5620 N.3    20  LEU20      -0.1245
     73  CA        78.2080   55.5520  -42.6480 C.3    20  LEU20       0.1561
     74  C         78.5640   54.1290  -42.2020 C.2    20  LEU20       0.2260
     75  O         79.5010   53.5390  -42.7380 O.2    20  LEU20      -0.2867
     76  CB        79.0430   56.5680  -41.8610 C.3    20  LEU20       0.0270
     77  CG        80.5690   56.3950  -41.7890 C.3    20  LEU20       0.0019
     78  CD1       81.1810   56.4220  -43.1820 C.3    20  LEU20       0.0001
     79  CD2       81.2000   57.4280  -40.8670 C.3    20  LEU20       0.0001
     80  N         61.2270   63.3400  -41.4500 N.3    92  LYS92      -0.1245
     81  CA        61.2270   64.7900  -41.6780 C.3    92  LYS92       0.1561
     82  C         61.8300   65.1370  -43.0320 C.2    92  LYS92       0.2260
     83  O         62.9160   64.6680  -43.3620 O.2    92  LYS92      -0.2867
     84  CB        61.9970   65.5180  -40.5710 C.3    92  LYS92       0.0271
     85  CG        61.3370   65.4170  -39.2100 C.3    92  LYS92       0.0035
     86  CD        62.0570   66.3010  -38.2010 C.3    92  LYS92       0.0206
     87  CE        61.4500   66.1840  -36.8200 C.3    92  LYS92       0.1093
     88  NZ        62.0590   67.1670  -35.8850 N.3    92  LYS92      -0.1314
     89  N         62.9050   68.1110  -44.0130 N.3    94  LYS94      -0.1231
     90  CA        64.0730   68.9680  -43.7810 C.3    94  LYS94       0.1693
     91  C         65.3660   68.1530  -43.6500 C.2    94  LYS94       0.2592
     92  O         66.3940   68.5250  -44.2140 O.2    94  LYS94      -0.2718
     93  CB        63.8690   69.8400  -42.5300 C.3    94  LYS94       0.0285
     94  CG        64.9080   70.9470  -42.3690 C.3    94  LYS94       0.0035
     95  CD        65.2260   71.2720  -40.9190 C.3    94  LYS94       0.0206
     96  CE        66.4390   72.1920  -40.8480 C.3    94  LYS94       0.1093
     97  NZ        66.7200   72.7130  -39.4810 N.3    94  LYS94      -0.1314
     98  N         65.3070   67.0440  -42.9170 N.am   95  ASP95      -0.1974
     99  CA        66.4790   66.1730  -42.7130 C.3    95  ASP95       0.1709
    100  C         66.9170   65.4720  -43.9960 C.2    95  ASP95       0.2293
    101  O         68.1150   65.3330  -44.2420 O.2    95  ASP95      -0.2864
    102  CB        66.2010   65.1380  -41.6150 C.3    95  ASP95       0.1436
    103  CG        66.0210   65.7770  -40.2370 C.2    95  ASP95       0.3671
    104  OD1       66.5740   66.8850  -39.9930 O.co2  95  ASP95      -0.2456
    105  OD2       65.3300   65.1600  -39.3970 O.co2  95  ASP95      -0.2456
    106  N         74.1830   67.4180  -48.6010 N.3   102  TYR102     -0.1241
    107  CA        75.5070   66.8870  -48.2470 C.3   102  TYR102      0.1605
    108  C         75.9590   65.8210  -49.2360 C.2   102  TYR102      0.2264
    109  O         77.0820   65.8780  -49.7530 O.2   102  TYR102     -0.2867
    110  CB        75.5240   66.2830  -46.8340 C.3   102  TYR102      0.0534
    111  CG        76.7580   65.4350  -46.5750 C.ar  102  TYR102     -0.0201
    112  CD1       78.0140   66.0250  -46.4170 C.ar  102  TYR102     -0.0009
    113  CD2       76.6780   64.0370  -46.5300 C.ar  102  TYR102     -0.0009
    114  CE1       79.1480   65.2520  -46.2020 C.ar  102  TYR102      0.0417
    115  CE2       77.8080   63.2580  -46.3190 C.ar  102  TYR102      0.0417
    116  CZ        79.0390   63.8680  -46.1540 C.ar  102  TYR102      0.1957
    117  OH        80.1580   63.0940  -45.9410 O.3   102  TYR102     -0.2866
@<TRIPOS>BOND
     1   109   108    2
     2   108   107    1
     3   106   107    1
     4   107   110    1
     5   110   111    1
     6   111   113   ar
     7   111   112   ar
     8   113   115   ar
     9   112   114   ar
    10   115   116   ar
    11   114   116   ar
    12   116   117    1
    13     1     2    1
    14     3     2    1
    15     3     4    2
    16     2     5    1
    17   101   100    2
    18    92    91    2
    19    89    90    1
    20   100    99    1
    21    90    91    1
    22    90    93    1
    23    91    98   am
    24     7     8    1
    25    83    82    2
    26    25    26    1
    27    78    77    1
    28     5     6    1
    29    82    81    1
    30    98    99    1
    31    26    29    1
    32    26    27    1
    33    75    74    2
    34    99   102    1
    35    73    72    1
    36    73    74    1
    37    73    76    1
    38    93    94    1
    39    94    95    1
    40     8    11    1
    41     8     9    1
    42    12    11    1
    43    12    13    1
    44    14    13    1
    45    14    15    1
    46    76    77    1
    47    77    79    1
    48    81    80    1
    49    81    84    1
    50   102   103    1
    51    27    28    2
    52    27    30   am
    53     9    16   am
    54     9    10    2
    55    18    17    1
    56    18    19    2
    57    16    17    1
    58    43    42    1
    59    64    63    2
    60    52    53    1
    61    52    51    1
    62    41    42    1
    63    41    38    1
    64    39    40    2
    65    39    38    1
    66    63    62    1
    67    45    46    1
    68    95    96    1
    69    96    97    1
    70    17    20    1
    71    50    51    1
    72    50    49    1
    73    20    21    1
    74    84    85    1
    75    30    31    1
    76    65    62    1
    77    65    66    1
    78    42    44    1
    79    38    37    1
    80   103   104   ar
    81   103   105   ar
    82    46    49    1
    83    46    47    1
    84    37    32   am
    85    62    61    1
    86    21    22    1
    87    22    23    1
    88    61    56   am
    89    66    67    1
    90    32    31    1
    91    32    33    2
    92    31    34    1
    93    85    86    1
    94    47    48    2
    95    47    54   am
    96    23    24    1
    97    54    55    1
    98    35    34    1
    99    86    87    1
   100    67    68    1
   101    34    36    1
   102    56    55    1
   103    56    57    2
   104    59    58    1
   105    55    58    1
   106    68    69    2
   107    87    88    1
   108    58    60    1
   109    69    70    1
   110    69    71    1
