@<TRIPOS>MOLECULE
tmp/6gd9A01.pdb
 90 87 0 0 0
SMALL
GASTEIGER

@<TRIPOS>ATOM
      1  N        -32.2570  -13.6950    6.3170 N.3    16  LYS16      -0.1231
      2  CA       -33.1230  -13.9090    7.4820 C.3    16  LYS16       0.1693
      3  C        -32.7910  -12.9590    8.6310 C.2    16  LYS16       0.2592
      4  O        -33.6800  -12.3300    9.2030 O.2    16  LYS16      -0.2718
      5  CB       -33.0330  -15.3570    7.9710 C.3    16  LYS16       0.0285
      6  CG       -33.7880  -16.3490    7.1010 C.3    16  LYS16       0.0035
      7  CD       -33.6880  -17.7730    7.6330 C.3    16  LYS16       0.0206
      8  CE       -32.2760  -18.3340    7.4920 C.3    16  LYS16       0.1093
      9  NZ       -32.1980  -19.8120    7.6760 N.3    16  LYS16      -0.1314
     10  N        -31.5070  -12.8550    8.9550 N.am   17  THR17      -0.1953
     11  CA       -31.0590  -12.0650   10.1010 C.3    17  THR17       0.1897
     12  C        -31.0450  -10.5540    9.8380 C.2    17  THR17       0.2313
     13  O        -31.2090   -9.7640   10.7700 O.2    17  THR17      -0.2863
     14  CB       -29.6530  -12.5090   10.5550 C.3    17  THR17       0.1794
     15  OG1      -28.7430  -12.4360    9.4520 O.3    17  THR17      -0.2208
     16  CG2      -29.6870  -13.9350   11.0700 C.3    17  THR17       0.0378
     17  N        -35.1330  -10.0610    6.2480 N.3    20  LEU20      -0.1231
     18  CA       -36.4680  -10.6610    6.2990 C.3    20  LEU20       0.1693
     19  C        -37.4690   -9.8720    7.1520 C.2    20  LEU20       0.2591
     20  O        -38.6730   -9.9490    6.9170 O.2    20  LEU20      -0.2718
     21  CB       -36.3700  -12.1130    6.7840 C.3    20  LEU20       0.0284
     22  CG       -37.6390  -12.9680    6.7680 C.3    20  LEU20       0.0019
     23  CD1      -38.3140  -12.9430    5.4060 C.3    20  LEU20       0.0001
     24  CD2      -37.3060  -14.3940    7.1750 C.3    20  LEU20       0.0001
     25  N        -36.9730   -9.1150    8.1280 N.am   21  GLN21      -0.1979
     26  CA       -37.8280   -8.2600    8.9510 C.3    21  GLN21       0.1601
     27  C        -38.6500   -7.2650    8.1230 C.2    21  GLN21       0.2287
     28  O        -39.8110   -7.0080    8.4400 O.2    21  GLN21      -0.2864
     29  CB       -36.9850   -7.4970    9.9780 C.3    21  GLN21       0.0394
     30  CG       -37.7980   -6.6090   10.9100 C.3    21  GLN21       0.0908
     31  CD       -36.9400   -5.8200   11.8760 C.2    21  GLN21       0.2608
     32  OE1      -35.8050   -6.1950   12.1710 O.2    21  GLN21      -0.2717
     33  NE2      -37.4870   -4.7230   12.3850 N.am   21  GLN21      -0.0878
     34  N        -39.7440   -9.4790    1.6790 N.3    24  THR24      -0.1218
     35  CA       -40.0310  -10.8210    1.1730 C.3    24  THR24       0.1862
     36  C        -39.5080  -10.9180   -0.2630 C.2    24  THR24       0.2287
     37  O        -39.2670   -9.8930   -0.9030 O.2    24  THR24      -0.2866
     38  CB       -41.5420  -11.1330    1.2140 C.3    24  THR24       0.1770
     39  OG1      -42.2530  -10.2490    0.3360 O.3    24  THR24      -0.2211
     40  CG2      -42.0830  -10.9790    2.6330 C.3    24  THR24       0.0375
     41  N        -40.5110  -13.8220   -2.7600 N.3    26  GLU26      -0.1245
     42  CA       -41.2750  -14.6170   -3.7270 C.3    26  GLU26       0.1567
     43  C        -42.1870  -13.7370   -4.5710 C.2    26  GLU26       0.2260
     44  O        -42.5110  -12.6110   -4.1880 O.2    26  GLU26      -0.2867
     45  CB       -42.1270  -15.6850   -3.0260 C.3    26  GLU26       0.0388
     46  CG       -41.3520  -16.6710   -2.1640 C.3    26  GLU26       0.1160
     47  CD       -40.4150  -17.5600   -2.9640 C.2    26  GLU26       0.3649
     48  OE1      -39.1910  -17.5320   -2.6960 O.co2  26  GLU26      -0.2457
     49  OE2      -40.8980  -18.2820   -3.8640 O.co2  26  GLU26      -0.2457
     50  N        -45.5360  -12.3890   -5.7980 N.3    28  GLY28      -0.1210
     51  CA       -46.7940  -12.2030   -5.0810 C.3    28  GLY28       0.1956
     52  C        -46.6370  -12.1280   -3.5710 C.2    28  GLY28       0.2612
     53  O        -47.6260  -12.1720   -2.8390 O.2    28  GLY28      -0.2717
     54  N        -45.3990  -12.0040   -3.0980 N.am   29  GLY29      -0.1942
     55  CA       -45.1310  -11.9250   -1.6690 C.3    29  GLY29       0.1998
     56  C        -45.6050  -10.6030   -1.0950 C.2    29  GLY29       0.2481
     57  O        -45.6540   -9.5960   -1.8060 O.2    29  GLY29      -0.2729
     58  N        -45.9510  -10.5910    0.2010 N.am   30  PRO30      -0.2715
     59  CA       -46.5010   -9.3910    0.8170 C.3    30  PRO30       0.1536
     60  C        -45.4520   -8.3150    1.0290 C.2    30  PRO30       0.2599
     61  O        -44.2850   -8.6300    1.2810 O.2    30  PRO30      -0.2715
     62  CB       -47.0010   -9.8970    2.1690 C.3    30  PRO30       0.0310
     63  CG       -46.0890  -11.0270    2.4930 C.3    30  PRO30       0.0237
     64  CD       -45.7780  -11.6820    1.1780 C.3    30  PRO30       0.0939
     65  N        -45.8690   -7.0560    0.9180 N.am   31  HIS31      -0.1960
     66  CA       -45.0360   -5.9380    1.3380 C.3    31  HIS31       0.1787
     67  C        -45.0410   -5.9450    2.8570 C.2    31  HIS31       0.2620
     68  O        -46.0240   -6.3550    3.4750 O.2    31  HIS31      -0.2715
     69  CB       -45.5800   -4.6020    0.8270 C.3    31  HIS31       0.0785
     70  CG       -45.7350   -4.5370   -0.6610 C.ar   31  HIS31       0.0821
     71  ND1      -44.6870   -4.7480   -1.5290 N.ar   31  HIS31      -0.2267
     72  CD2      -46.8160   -4.2760   -1.4340 C.ar   31  HIS31       0.1154
     73  CE1      -45.1150   -4.6280   -2.7720 C.ar   31  HIS31       0.1986
     74  NE2      -46.4030   -4.3390   -2.7420 N.ar   31  HIS31      -0.2212
     75  N        -43.9390   -5.5190    3.4570 N.am   32  LYS32      -0.1963
     76  CA       -43.8650   -5.3510    4.9020 C.3    32  LYS32       0.1728
     77  C        -43.5230   -3.8740    5.1270 C.2    32  LYS32       0.2616
     78  O        -44.1110   -3.0250    4.4570 O.2    32  LYS32      -0.2715
     79  CB       -42.8540   -6.3360    5.5010 C.3    32  LYS32       0.0311
     80  CG       -42.9610   -7.7400    4.9010 C.3    32  LYS32       0.0038
     81  CD       -42.9550   -8.8550    5.9370 C.3    32  LYS32       0.0206
     82  CE       -41.6560   -8.9200    6.7070 C.3    32  LYS32       0.1093
     83  NZ       -41.5380  -10.2030    7.4500 N.3    32  LYS32      -0.1314
     84  N        -42.6100   -3.5420    6.0410 N.am   33  VAL33      -0.1977
     85  CA       -42.1340   -2.1590    6.1340 C.3    33  VAL33       0.1596
     86  C        -41.5300   -1.7600    4.7870 C.2    33  VAL33       0.2287
     87  O        -41.8050   -0.6740    4.2750 O.2    33  VAL33      -0.2864
     88  CB       -41.0980   -1.9590    7.2650 C.3    33  VAL33       0.0276
     89  CG1      -40.3580   -0.6360    7.1110 C.3    33  VAL33       0.0022
     90  CG2      -41.7730   -2.0130    8.6280 C.3    33  VAL33       0.0022
@<TRIPOS>BOND
     1    50    51    1
     2    51    52    1
     3    43    44    2
     4    43    42    1
     5    49    47   ar
     6    42    45    1
     7    42    41    1
     8    52    54   am
     9    52    53    2
    10    54    55    1
    11    45    46    1
    12    47    48   ar
    13    47    46    1
    14    73    74   ar
    15    73    71   ar
    16    74    72   ar
    17    57    56    2
    18    55    56    1
    19    71    70   ar
    20    72    70   ar
    21    56    58   am
    22    37    36    2
    23    70    69    1
    24    36    35    1
    25    58    59    1
    26    58    64    1
    27    39    38    1
    28    59    60    1
    29    59    62    1
    30    69    66    1
    31    65    60   am
    32    65    66    1
    33    60    61    2
    34    35    38    1
    35    35    34    1
    36    64    63    1
    37    38    40    1
    38    66    67    1
    39    62    63    1
    40    67    75   am
    41    67    68    2
    42    75    76    1
    43    87    86    2
    44    78    77    2
    45    86    85    1
    46    80    79    1
    47    80    81    1
    48    76    77    1
    49    76    79    1
    50    77    84   am
    51    23    22    1
    52    81    82    1
    53    84    85    1
    54    85    88    1
    55    17    18    1
    56    18    21    1
    57    18    19    1
    58     1     2    1
    59    82    83    1
    60    22    21    1
    61    22    24    1
    62    20    19    2
    63     6     7    1
    64     6     5    1
    65    89    88    1
    66    19    25   am
    67    88    90    1
    68     2     5    1
    69     2     3    1
    70     8     7    1
    71     8     9    1
    72    27    28    2
    73    27    26    1
    74    25    26    1
    75     3    10   am
    76     3     4    2
    77    26    29    1
    78    10    11    1
    79    15    14    1
    80    12    11    1
    81    12    13    2
    82    29    30    1
    83    11    14    1
    84    14    16    1
    85    30    31    1
    86    31    32    2
    87    31    33   am
