@<TRIPOS>MOLECULE
tmp/6gdgA00.pdb
 186 174 0 0 0
SMALL
GASTEIGER

@<TRIPOS>ATOM
      1  N         77.5800   50.2870   78.6080 N.3    57  ALA57      -0.1245
      2  CA        78.9730   49.8210   78.4820 C.3    57  ALA57       0.1562
      3  C         79.3000   48.7210   79.4970 C.2    57  ALA57       0.2260
      4  O         80.0560   47.7980   79.1860 O.2    57  ALA57      -0.2867
      5  CB        79.9530   50.9750   78.6330 C.3    57  ALA57       0.0290
      6  N         78.3390   45.1700   78.2460 N.3    60  ILE60      -0.1245
      7  CA        79.2310   44.5630   77.2450 C.3    60  ILE60       0.1561
      8  C         80.4100   43.8330   77.9110 C.2    60  ILE60       0.2260
      9  O         80.8560   42.7980   77.4120 O.2    60  ILE60      -0.2867
     10  CB        79.7590   45.6120   76.2260 C.3    60  ILE60       0.0252
     11  CG1       78.6030   46.3350   75.5070 C.3    60  ILE60       0.0019
     12  CG2       80.6770   44.9650   75.1930 C.3    60  ILE60       0.0019
     13  CD1       77.6870   45.4500   74.6810 C.3    60  ILE60       0.0001
     14  N         76.6040   47.8050   72.1230 N.3    75  ALA75      -0.1245
     15  CA        78.0120   48.1920   71.9400 C.3    75  ALA75       0.1562
     16  C         78.1900   49.3590   70.9640 C.2    75  ALA75       0.2260
     17  O         79.0380   50.2280   71.1820 O.2    75  ALA75      -0.2867
     18  CB        78.8340   46.9960   71.4790 C.3    75  ALA75       0.0290
     19  N         76.6730   52.5670   72.6930 N.3    78  VAL78      -0.1231
     20  CA        77.7180   53.0490   73.6090 C.3    78  VAL78       0.1692
     21  C         78.7710   53.8520   72.8390 C.2    78  VAL78       0.2591
     22  O         79.1960   54.9150   73.2960 O.2    78  VAL78      -0.2718
     23  CB        78.3870   51.8810   74.3820 C.3    78  VAL78       0.0266
     24  CG1       79.6900   52.3070   75.0570 C.3    78  VAL78       0.0020
     25  CG2       77.4280   51.3240   75.4230 C.3    78  VAL78       0.0020
     26  N         79.1840   53.3330   71.6830 N.am   79  LEU79      -0.1980
     27  CA        80.1500   54.0180   70.8160 C.3    79  LEU79       0.1596
     28  C         79.5960   55.3480   70.2970 C.2    79  LEU79       0.2287
     29  O         80.2960   56.3560   70.3420 O.2    79  LEU79      -0.2864
     30  CB        80.5860   53.1160   69.6490 C.3    79  LEU79       0.0297
     31  CG        81.8700   53.5210   68.9050 C.3    79  LEU79       0.0022
     32  CD1       82.6540   52.2960   68.4550 C.3    79  LEU79       0.0001
     33  CD2       81.5840   54.4270   67.7140 C.3    79  LEU79       0.0001
     34  N         79.3720   58.0330   73.2860 N.3    82  THR82      -0.1203
     35  CA        80.7380   58.4290   73.6430 C.3    82  THR82       0.1994
     36  C         81.4050   59.2370   72.5210 C.2    82  THR82       0.2617
     37  O         82.2210   60.1200   72.7940 O.2    82  THR82      -0.2717
     38  CB        81.6140   57.2050   73.9730 C.3    82  THR82       0.1784
     39  OG1       81.5130   56.2390   72.9200 O.3    82  THR82      -0.2211
     40  CG2       81.1840   56.5740   75.2910 C.3    82  THR82       0.0376
     41  N         81.0620   58.9230   71.2710 N.am   83  GLN83      -0.1979
     42  CA        81.5570   59.6600   70.0990 C.3    83  GLN83       0.1601
     43  C         80.9990   61.0860   70.0050 C.2    83  GLN83       0.2287
     44  O         81.6870   61.9820   69.5110 O.2    83  GLN83      -0.2864
     45  CB        81.2370   58.8950   68.8090 C.3    83  GLN83       0.0394
     46  CG        81.9920   59.3690   67.5800 C.3    83  GLN83       0.0908
     47  CD        81.6870   58.5440   66.3420 C.2    83  GLN83       0.2608
     48  OE1       81.1720   57.4270   66.4230 O.2    83  GLN83      -0.2717
     49  NE2       82.0100   59.0950   65.1820 N.am   83  GLN83      -0.0878
     50  N         83.1800   63.4750   71.8840 N.3    86  ILE86      -0.1245
     51  CA        84.4250   63.8170   71.1760 C.3    86  ILE86       0.1561
     52  C         84.1810   64.8390   70.0540 C.2    86  ILE86       0.2260
     53  O         84.9910   65.7490   69.8620 O.2    86  ILE86      -0.2867
     54  CB        85.1320   62.5670   70.5830 C.3    86  ILE86       0.0252
     55  CG1       85.4580   61.5380   71.6780 C.3    86  ILE86       0.0019
     56  CG2       86.4200   62.9680   69.8610 C.3    86  ILE86       0.0019
     57  CD1       85.7780   60.1570   71.1420 C.3    86  ILE86       0.0001
     58  N         82.6250   42.9820   73.3360 N.3   145  PHE145     -0.1227
     59  CA        82.8730   44.1350   72.4590 C.3   145  PHE145      0.1736
     60  C         83.6830   43.7620   71.2200 C.2   145  PHE145      0.2595
     61  O         83.3020   44.1000   70.0970 O.2   145  PHE145     -0.2718
     62  CB        83.6190   45.2390   73.2150 C.3   145  PHE145      0.0547
     63  CG        83.9460   46.4300   72.3590 C.ar  145  PHE145     -0.0202
     64  CD1       82.9720   47.2520   71.8620 C.ar  145  PHE145     -0.0042
     65  CD2       85.2260   46.6470   71.9830 C.ar  145  PHE145     -0.0042
     66  CE1       83.3510   48.3350   70.9960 C.ar  145  PHE145     -0.0003
     67  CE2       85.5960   47.7460   71.1600 C.ar  145  PHE145     -0.0003
     68  CZ        84.6420   48.5800   70.7040 C.ar  145  PHE145     -0.0000
     69  N         84.8030   43.0750   71.4430 N.am  146  GLU146     -0.1979
     70  CA        85.7430   42.7140   70.3730 C.3   146  GLU146      0.1602
     71  C         85.1690   41.7510   69.3270 C.2   146  GLU146      0.2287
     72  O         85.5770   41.7900   68.1640 O.2   146  GLU146     -0.2864
     73  CB        87.0170   42.1090   70.9710 C.3   146  GLU146      0.0415
     74  CG        87.8460   43.1310   71.7030 C.3   146  GLU146      0.1163
     75  CD        89.2270   42.5940   72.1080 C.2   146  GLU146      0.3649
     76  OE1       89.4170   41.3850   72.2280 O.co2 146  GLU146     -0.2457
     77  OE2       90.1520   43.4790   72.3170 O.co2 146  GLU146     -0.2457
     78  N         87.5390   44.8970   64.3430 N.3   151  MET151     -0.1245
     79  CA        88.7240   45.7050   64.6540 C.3   151  MET151      0.1570
     80  C         89.2290   46.5240   63.4610 C.2   151  MET151      0.2261
     81  O         89.9400   47.5110   63.6540 O.2   151  MET151     -0.2867
     82  CB        89.8510   44.8150   65.1940 C.3   151  MET151      0.0387
     83  CG        89.4990   44.0320   66.4550 C.3   151  MET151      0.0595
     84  SD        89.0980   45.0570   67.8850 S.3   151  MET151     -0.1393
     85  CE        90.7160   45.6920   68.3140 C.3   151  MET151      0.0692
     86  N         87.3770   49.7100   63.8430 N.3   154  MET154     -0.1245
     87  CA        87.9080   50.4580   64.9910 C.3   154  MET154      0.1570
     88  C         89.2300   51.1940   64.7310 C.2   154  MET154      0.2261
     89  O         89.4840   52.2200   65.3620 O.2   154  MET154     -0.2867
     90  CB        88.0670   49.5420   66.2170 C.3   154  MET154      0.0387
     91  CG        86.7570   49.0840   66.8530 C.3   154  MET154      0.0595
     92  SD        85.6700   50.4010   67.4470 S.3   154  MET154     -0.1393
     93  CE        86.7490   51.3120   68.5490 C.3   154  MET154      0.0692
     94  N         87.1940   54.3150   62.4820 N.3   158  ASN158     -0.1240
     95  CA        86.7950   54.8830   63.7780 C.3   158  ASN158      0.1653
     96  C         87.9150   55.6970   64.4330 C.2   158  ASN158      0.2266
     97  O         87.7330   56.8830   64.7030 O.2   158  ASN158     -0.2867
     98  CB        86.3100   53.7840   64.7330 C.3   158  ASN158      0.1155
     99  CG        85.5000   54.3290   65.8970 C.2   158  ASN158      0.2627
    100  OD1       85.8410   54.1130   67.0600 O.2   158  ASN158     -0.2716
    101  ND2       84.4190   55.0360   65.5880 N.am  158  ASN158     -0.0877
    102  N         87.0630   59.5100   64.2130 N.3   162  CYS162     -0.1221
    103  CA        86.3850   59.8280   65.4820 C.3   162  CYS162      0.1808
    104  C         87.3030   60.2050   66.6520 C.2   162  CYS162      0.2601
    105  O         86.8070   60.6890   67.6710 O.2   162  CYS162     -0.2717
    106  CB        85.5010   58.6540   65.9150 C.3   162  CYS162      0.0970
    107  SG        84.6100   57.8540   64.5630 S.3   162  CYS162     -0.0800
    108  N         88.6130   59.9700   66.5250 N.am  163  VAL163     -0.1979
    109  CA        89.5780   60.2400   67.6110 C.3   163  VAL163      0.1595
    110  C         90.8190   60.9940   67.1150 C.2   163  VAL163      0.2287
    111  O         91.1240   62.0790   67.6160 O.2   163  VAL163     -0.2864
    112  CB        90.0180   58.9360   68.3290 C.3   163  VAL163      0.0276
    113  CG1       90.8260   59.2490   69.5860 C.3   163  VAL163      0.0022
    114  CG2       88.8090   58.0810   68.6910 C.3   163  VAL163      0.0022
    115  N         91.5730   59.0620   75.5420 N.3   211  TRP211     -0.1241
    116  CA        91.1440   58.2460   74.3940 C.3   211  TRP211      0.1605
    117  C         92.2150   57.3480   73.7800 C.2   211  TRP211      0.2264
    118  O         91.9230   56.2020   73.4310 O.2   211  TRP211     -0.2867
    119  CB        90.5380   59.1340   73.3060 C.3   211  TRP211      0.0550
    120  CG        89.2690   59.7580   73.7430 C.ar  211  TRP211      0.0003
    121  CD1       89.0750   61.0590   74.0690 C.ar  211  TRP211      0.0946
    122  CD2       88.0150   59.0990   73.9400 C.ar  211  TRP211      0.0152
    123  NE1       87.7720   61.2670   74.4430 N.ar  211  TRP211     -0.2442
    124  CE2       87.0960   60.0770   74.3750 C.ar  211  TRP211      0.0810
    125  CE3       87.5760   57.7770   73.7840 C.ar  211  TRP211      0.0012
    126  CZ2       85.7590   59.7790   74.6580 C.ar  211  TRP211      0.0191
    127  CZ3       86.2440   57.4780   74.0640 C.ar  211  TRP211      0.0001
    128  CH2       85.3530   58.4780   74.4970 C.ar  211  TRP211      0.0015
    129  N         93.0880   53.3060   74.8720 N.3   214  LEU214     -0.1231
    130  CA        92.1810   52.2680   74.3660 C.3   214  LEU214      0.1693
    131  C         92.4140   51.9700   72.8850 C.2   214  LEU214      0.2592
    132  O         92.4530   50.8050   72.4840 O.2   214  LEU214     -0.2718
    133  CB        90.7160   52.6710   74.5920 C.3   214  LEU214      0.0284
    134  CG        89.6190   51.7090   74.1120 C.3   214  LEU214      0.0019
    135  CD1       89.7520   50.3360   74.7540 C.3   214  LEU214      0.0001
    136  CD2       88.2460   52.2970   74.3930 C.3   214  LEU214      0.0001
    137  N         92.5610   53.0230   72.0830 N.am  215  HIS215     -0.1976
    138  CA        92.7080   52.8760   70.6310 C.3   215  HIS215      0.1656
    139  C         94.0920   52.3760   70.1850 C.2   215  HIS215      0.2291
    140  O         94.1930   51.7260   69.1440 O.2   215  HIS215     -0.2864
    141  CB        92.3240   54.1740   69.9110 C.3   215  HIS215      0.0771
    142  CG        90.8490   54.4370   69.9020 C.ar  215  HIS215      0.0820
    143  ND1       90.0670   54.2480   68.7830 N.ar  215  HIS215     -0.2267
    144  CD2       90.0090   54.8500   70.8810 C.ar  215  HIS215      0.1154
    145  CE1       88.8120   54.5450   69.0690 C.ar  215  HIS215      0.1986
    146  NE2       88.7500   54.9130   70.3360 N.ar  215  HIS215     -0.2212
    147  N         93.7730   48.7520   70.5270 N.3   218  ASN218     -0.1240
    148  CA        93.0600   48.2940   69.3240 C.3   218  ASN218      0.1653
    149  C         93.9720   48.2610   68.0900 C.2   218  ASN218      0.2266
    150  O         93.8600   47.3540   67.2630 O.2   218  ASN218     -0.2867
    151  CB        91.8300   49.1690   69.0410 C.3   218  ASN218      0.1155
    152  CG        90.7610   49.0590   70.1190 C.2   218  ASN218      0.2627
    153  OD1       90.9240   48.3500   71.1140 O.2   218  ASN218     -0.2716
    154  ND2       89.6560   49.7690   69.9220 N.am  218  ASN218     -0.0877
    155  N         92.4150   46.2770   80.0410 N.3   235  MET235     -0.1245
    156  CA        91.3120   46.7200   79.1750 C.3   235  MET235      0.1570
    157  C         90.3210   47.5880   79.9500 C.2   235  MET235      0.2261
    158  O         89.8480   48.5990   79.4310 O.2   235  MET235     -0.2867
    159  CB        90.5750   45.5260   78.5480 C.3   235  MET235      0.0387
    160  CG        91.3370   44.8200   77.4340 C.3   235  MET235      0.0595
    161  SD        91.5720   45.8070   75.9380 S.3   235  MET235     -0.1393
    162  CE        89.8930   45.9660   75.3310 C.3   235  MET235      0.0692
    163  N         89.1170   51.4230   79.2180 N.3   239  ILE239     -0.1245
    164  CA        87.6860   51.7360   79.0720 C.3   239  ILE239      0.1561
    165  C         87.2420   52.8050   80.0800 C.2   239  ILE239      0.2260
    166  O         86.4710   53.7000   79.7300 O.2   239  ILE239     -0.2867
    167  CB        86.8080   50.4640   79.2150 C.3   239  ILE239      0.0252
    168  CG1       87.1050   49.4710   78.0820 C.3   239  ILE239      0.0019
    169  CG2       85.3190   50.8030   79.1890 C.3   239  ILE239      0.0019
    170  CD1       86.8290   48.0290   78.4490 C.3   239  ILE239      0.0001
    171  N         88.9930   56.2020   79.1410 N.3   242  SER242     -0.1202
    172  CA        88.2750   56.7900   78.0030 C.3   242  SER242      0.2020
    173  C         86.9710   57.4700   78.4460 C.2   242  SER242      0.2618
    174  O         86.6240   58.5370   77.9340 O.2   242  SER242     -0.2717
    175  CB        87.9900   55.7310   76.9310 C.3   242  SER242      0.2103
    176  OG        87.1340   54.7130   77.4170 O.3   242  SER242     -0.2182
    177  N         86.2610   56.8490   79.3910 N.am  243  HIS243     -0.1975
    178  CA        85.0590   57.4480   79.9960 C.3   243  HIS243      0.1656
    179  C         85.3780   58.6220   80.9340 C.2   243  HIS243      0.2291
    180  O         84.5320   59.4950   81.1350 O.2   243  HIS243     -0.2864
    181  CB        84.2460   56.4020   80.7690 C.3   243  HIS243      0.0771
    182  CG        83.7000   55.2990   79.9160 C.ar  243  HIS243      0.0820
    183  ND1       83.5410   54.0120   80.3820 N.ar  243  HIS243     -0.2267
    184  CD2       83.2860   55.2860   78.6260 C.ar  243  HIS243      0.1154
    185  CE1       83.0440   53.2550   79.4200 C.ar  243  HIS243      0.1986
    186  NE2       82.8830   54.0030   78.3430 N.ar  243  HIS243     -0.2212
@<TRIPOS>BOND
     1    94    95    1
     2    80    81    2
     3    80    79    1
     4    95    96    1
     5    95    98    1
     6    86    87    1
     7   102   103    1
     8    78    79    1
     9    96    97    2
    10   107   106    1
    11    79    82    1
    12    88    87    1
    13    88    89    2
    14    98    99    1
    15    87    90    1
    16    49    47   am
    17    82    83    1
    18   103   106    1
    19   103   104    1
    20   101    99   am
    21    99   100    2
    22    90    91    1
    23    47    48    2
    24    47    46    1
    25    83    84    1
    26   108   104   am
    27   108   109    1
    28   104   105    2
    29    91    92    1
    30   110   109    1
    31   110   111    2
    32   150   149    2
    33    92    93    1
    34    46    45    1
    35   109   112    1
    36    33    31    1
    37    84    85    1
    38   149   148    1
    39    72    71    2
    40   112   114    1
    41   112   113    1
    42    32    31    1
    43   143   145   ar
    44   143   142   ar
    45    45    42    1
    46    31    30    1
    47   151   148    1
    48   151   152    1
    49   145   146   ar
    50   140   139    2
    51   148   147    1
    52    71    70    1
    53    44    43    2
    54    30    27    1
    55    56    54    1
    56    53    52    2
    57   142   141    1
    58   142   144   ar
    59   141   138    1
    60   154   152   am
    61    43    42    1
    62    52    51    1
    63    61    60    2
    64    42    41    1
    65   152   153    2
    66   139   138    1
    67    28    29    2
    68    28    27    1
    69   146   144   ar
    70    70    73    1
    71    70    69    1
    72    54    51    1
    73    54    55    1
    74   138   137    1
    75    68    66   ar
    76    68    67   ar
    77    27    26    1
    78    16    17    2
    79    16    15    1
    80    73    74    1
    81    66    64   ar
    82    57    55    1
    83    67    65   ar
    84    51    50    1
    85    60    69   am
    86    60    59    1
    87    41    36   am
    88    18    15    1
    89    26    21   am
    90    74    75    1
    91    64    63   ar
    92    15    14    1
    93    65    63   ar
    94   137   131   am
    95    75    76   ar
    96    75    77   ar
    97    63    62    1
    98    59    62    1
    99    59    58    1
   100   132   131    2
   101    36    37    2
   102    36    35    1
   103    19    20    1
   104    21    22    2
   105    21    20    1
   106   131   130    1
   107    39    38    1
   108    34    35    1
   109   119   120    1
   110   119   116    1
   111   118   117    2
   112    20    23    1
   113    35    38    1
   114   120   122   ar
   115   120   121   ar
   116   117   116    1
   117   125   122   ar
   118   125   127   ar
   119   122   124   ar
   120    38    40    1
   121   127   128   ar
   122   121   123   ar
   123   134   136    1
   124   134   133    1
   125   134   135    1
   126   130   133    1
   127   130   129    1
   128   124   123   ar
   129   124   126   ar
   130    23    24    1
   131    23    25    1
   132   116   115    1
   133   128   126   ar
   134    13    11    1
   135    12    10    1
   136   162   161    1
   137    11    10    1
   138   161   160    1
   139    10     7    1
   140   175   176    1
   141   175   172    1
   142     7     8    1
   143     7     6    1
   144     9     8    2
   145   160   159    1
   146   174   173    2
   147   172   173    1
   148   172   171    1
   149   168   170    1
   150   168   167    1
   151   186   184   ar
   152   186   185   ar
   153   173   177   am
   154     2     1    1
   155     2     5    1
   156     2     3    1
   157   159   156    1
   158   184   182   ar
   159   164   167    1
   160   164   163    1
   161   164   165    1
   162   156   157    1
   163   156   155    1
   164     4     3    2
   165   169   167    1
   166   177   178    1
   167   185   183   ar
   168   158   157    2
   169   166   165    2
   170   182   183   ar
   171   182   181    1
   172   178   181    1
   173   178   179    1
   174   179   180    2
