@<TRIPOS>MOLECULE
tmp/6gdmA00.pdb
 225 210 0 0 0
SMALL
GASTEIGER

@<TRIPOS>ATOM
      1  N         14.3370   14.8500   46.7950 N.3    24  ILE24      -0.1245
      2  CA        14.0470   14.2820   45.4830 C.3    24  ILE24       0.1561
      3  C         12.8370   15.0000   44.8720 C.2    24  ILE24       0.2260
      4  O         12.9200   15.5550   43.7980 O.2    24  ILE24      -0.2867
      5  CB        13.7860   12.7660   45.5610 C.3    24  ILE24       0.0252
      6  CG1       15.0910   11.9710   45.6590 C.3    24  ILE24       0.0019
      7  CG2       12.9390   12.3000   44.3820 C.3    24  ILE24       0.0019
      8  CD1       14.8980   10.4840   45.7810 C.3    24  ILE24       0.0001
      9  N          1.1540   16.3370   46.7080 N.3    28  ALA28      -0.1231
     10  CA         0.0420   16.3180   47.6800 C.3    28  ALA28       0.1694
     11  C          0.3240   15.3130   48.8100 C.2    28  ALA28       0.2592
     12  O          0.1060   15.6030   49.9840 O.2    28  ALA28      -0.2718
     13  CB        -1.2400   15.9870   46.9600 C.3    28  ALA28       0.0304
     14  N          0.8130   14.1370   48.4140 N.am   29  TYR29      -0.1976
     15  CA         1.2060   13.0490   49.3260 C.3    29  TYR29       0.1639
     16  C          2.1460   13.5370   50.4400 C.2    29  TYR29       0.2290
     17  O          2.0610   13.0330   51.5550 O.2    29  TYR29      -0.2864
     18  CB         1.8570   11.9130   48.5340 C.3    29  TYR29       0.0560
     19  CG         3.1840   12.2700   47.9140 C.ar   29  TYR29      -0.0198
     20  CD1        3.2750   12.7050   46.6010 C.ar   29  TYR29      -0.0009
     21  CD2        4.3550   12.1740   48.6450 C.ar   29  TYR29      -0.0009
     22  CE1        4.4960   13.0330   46.0310 C.ar   29  TYR29       0.0417
     23  CE2        5.5810   12.4980   48.0910 C.ar   29  TYR29       0.0417
     24  CZ         5.6570   12.9300   46.7790 C.ar   29  TYR29       0.1957
     25  OH         6.8720   13.2510   46.2320 O.3    29  TYR29      -0.2866
     26  N          9.3230   13.2460   49.3750 N.3    32  VAL32      -0.1245
     27  CA        10.2300   12.0950   49.1660 C.3    32  VAL32       0.1561
     28  C         11.6800   12.5970   49.1690 C.2    32  VAL32       0.2260
     29  O         12.0020   13.6290   48.5580 O.2    32  VAL32      -0.2867
     30  CB         9.9280   11.3090   47.8730 C.3    32  VAL32       0.0252
     31  CG1        8.4730   10.9130   47.7810 C.3    32  VAL32       0.0019
     32  CG2       10.3140   12.0600   46.6110 C.3    32  VAL32       0.0019
     33  N         14.9350    5.4740   49.0230 N.3    45  ALA45      -0.1245
     34  CA        13.9100    6.5130   49.0190 C.3    45  ALA45       0.1562
     35  C         13.1180    6.4490   50.3360 C.2    45  ALA45       0.2260
     36  O         12.8210    5.3620   50.8560 O.2    45  ALA45      -0.2867
     37  CB        12.9850    6.3640   47.8440 C.3    45  ALA45       0.0290
     38  N          9.6240    8.5610   51.9260 N.3    47  LYS47      -0.1245
     39  CA         8.5780    9.5660   51.7870 C.3    47  LYS47       0.1561
     40  C          7.8870    9.7960   53.1310 C.2    47  LYS47       0.2260
     41  O          7.5280    8.8490   53.8310 O.2    47  LYS47      -0.2867
     42  CB         7.5690    9.1800   50.7080 C.3    47  LYS47       0.0271
     43  CG         6.7300    7.9280   50.9500 C.3    47  LYS47       0.0035
     44  CD         6.1110    7.4170   49.6740 C.3    47  LYS47       0.0206
     45  CE         5.4130    6.0810   49.8070 C.3    47  LYS47       0.1093
     46  NZ         4.8490    5.6770   48.5040 N.3    47  LYS47      -0.1314
     47  N          4.6760   11.0110   54.9680 N.3    49  ILE49      -0.1231
     48  CA         3.2410   11.1650   54.8310 C.3    49  ILE49       0.1692
     49  C          2.6840   11.6940   56.1580 C.2    49  ILE49       0.2593
     50  O          3.0410   11.2210   57.2500 O.2    49  ILE49      -0.2718
     51  CB         2.5710    9.8270   54.4480 C.3    49  ILE49       0.0266
     52  CG1        3.2740    9.1020   53.2960 C.3    49  ILE49       0.0019
     53  CG2        1.0960   10.0370   54.1680 C.3    49  ILE49       0.0020
     54  CD1        3.4420    9.9210   52.0300 C.3    49  ILE49       0.0001
     55  N          1.8060   12.6810   56.0470 N.am   50  SER50      -0.1939
     56  CA         1.1980   13.3380   57.1940 C.3    50  SER50       0.2040
     57  C         -0.3170   13.4380   56.9720 C.2    50  SER50       0.2485
     58  O         -0.8390   14.5190   56.7310 O.2    50  SER50      -0.2729
     59  CB         1.8120   14.6900   57.4080 C.3    50  SER50       0.2129
     60  OG         3.2120   14.5710   57.5760 O.3    50  SER50      -0.2179
     61  N         -1.0220   12.3010   57.0540 N.am   51  PRO51      -0.2726
     62  CA        -2.4100   12.2050   56.5920 C.3    51  PRO51       0.1402
     63  C         -3.4930   12.3180   57.6760 C.2    51  PRO51       0.2269
     64  O         -4.6690   12.2820   57.3600 O.2    51  PRO51      -0.2865
     65  CB        -2.4270   10.7840   56.0090 C.3    51  PRO51       0.0296
     66  CG        -1.6000    9.9880   56.9920 C.3    51  PRO51       0.0237
     67  CD        -0.6120   10.9840   57.5690 C.3    51  PRO51       0.0939
     68  N         -5.0740   14.2840   58.9560 N.3    53  GLU53      -0.1245
     69  CA        -5.9030   15.4950   58.8110 C.3    53  GLU53       0.1567
     70  C         -7.3310   15.1210   58.3830 C.2    53  GLU53       0.2260
     71  O         -8.2740   15.3580   59.1420 O.2    53  GLU53      -0.2867
     72  CB        -5.2540   16.4390   57.7930 C.3    53  GLU53       0.0388
     73  CG        -5.5410   17.9100   58.0320 C.3    53  GLU53       0.1160
     74  CD        -4.6970   18.8470   57.1810 C.2    53  GLU53       0.3649
     75  OE1       -4.5310   20.0160   57.5960 O.co2  53  GLU53      -0.2457
     76  OE2       -4.2060   18.4050   56.1040 O.co2  53  GLU53      -0.2457
     77  N         -6.9900   11.0310   53.1350 N.3    57  TYR57      -0.1241
     78  CA        -5.5260   10.8400   53.1080 C.3    57  TYR57       0.1605
     79  C         -5.1610    9.5390   53.8330 C.2    57  TYR57       0.2264
     80  O         -4.3280    8.7760   53.3870 O.2    57  TYR57      -0.2867
     81  CB        -4.8020   12.0300   53.7420 C.3    57  TYR57       0.0534
     82  CG        -5.1920   13.3870   53.2100 C.ar   57  TYR57      -0.0201
     83  CD1       -5.5590   13.5750   51.8810 C.ar   57  TYR57      -0.0009
     84  CD2       -5.1920   14.4930   54.0500 C.ar   57  TYR57      -0.0009
     85  CE1       -5.9150   14.8290   51.4050 C.ar   57  TYR57       0.0417
     86  CE2       -5.5450   15.7500   53.5870 C.ar   57  TYR57       0.0417
     87  CZ        -5.9080   15.9170   52.2610 C.ar   57  TYR57       0.1957
     88  OH        -6.2550   17.1580   51.8110 O.3    57  TYR57      -0.2866
     89  N         -5.9850    6.5650   51.5010 N.3    59  ARG59      -0.1231
     90  CA        -4.9960    6.3530   50.4430 C.3    59  ARG59       0.1694
     91  C         -3.6960    5.7860   51.0350 C.2    59  ARG59       0.2592
     92  O         -2.9970    4.9890   50.3840 O.2    59  ARG59      -0.2718
     93  CB        -4.7200    7.6680   49.7100 C.3    59  ARG59       0.0321
     94  CG        -5.8830    8.2050   48.8850 C.3    59  ARG59       0.0489
     95  CD        -5.7780    9.7130   48.7580 C.3    59  ARG59       0.2205
     96  NE        -6.4720   10.2630   47.6010 N.pl3  59  ARG59      -0.0865
     97  CZ        -5.9210   10.4730   46.4060 C.cat  59  ARG59       0.5346
     98  NH1       -4.6900   10.0550   46.1460 N.pl3  59  ARG59       0.1354
     99  NH2       -6.6110   11.1060   45.4710 N.pl3  59  ARG59       0.1354
    100  N         -3.3830    6.2010   52.2590 N.am   60  THR60      -0.1953
    101  CA        -2.2220    5.7120   53.0160 C.3    60  THR60       0.1897
    102  C         -2.4050    4.2330   53.3850 C.2    60  THR60       0.2313
    103  O         -1.4980    3.4560   53.2240 O.2    60  THR60      -0.2863
    104  CB        -2.0050    6.5130   54.3040 C.3    60  THR60       0.1794
    105  OG1       -1.8310    7.8900   53.9600 O.3    60  THR60      -0.2208
    106  CG2       -0.8190    6.0130   55.1070 C.3    60  THR60       0.0378
    107  N         -2.1560    2.0830   50.0900 N.3    63  GLU63      -0.1245
    108  CA        -0.7520    2.0410   49.6940 C.3    63  GLU63       0.1567
    109  C         -0.0280    0.9860   50.5360 C.2    63  GLU63       0.2260
    110  O          0.6190    0.0850   49.9750 O.2    63  GLU63      -0.2867
    111  CB        -0.1220    3.4300   49.8430 C.3    63  GLU63       0.0388
    112  CG         1.3870    3.4750   49.6130 C.3    63  GLU63       0.1160
    113  CD         1.8270    3.5060   48.1590 C.2    63  GLU63       0.3649
    114  OE1        0.9960    3.2380   47.2720 O.co2  63  GLU63      -0.2457
    115  OE2        3.0090    3.8010   47.9260 O.co2  63  GLU63      -0.2457
    116  N          7.0190   -1.5920   42.9530 N.3    76  ILE76      -0.1245
    117  CA         7.7870   -1.0620   44.0450 C.3    76  ILE76       0.1561
    118  C          7.3560   -1.7010   45.3880 C.2    76  ILE76       0.2260
    119  O          6.1770   -1.9260   45.7100 O.2    76  ILE76      -0.2867
    120  CB         7.6850    0.4770   44.0960 C.3    76  ILE76       0.0252
    121  CG1        8.7860    1.0900   44.9620 C.3    76  ILE76       0.0019
    122  CG2        6.2920    0.8900   44.5990 C.3    76  ILE76       0.0019
    123  CD1       10.2100    0.8820   44.4750 C.3    76  ILE76       0.0001
    124  N          7.6560    6.0830   54.8350 N.3    95  ILE95      -0.1245
    125  CA         7.6620    4.8260   54.1100 C.3    95  ILE95       0.1561
    126  C          8.9650    4.7400   53.3060 C.2    95  ILE95       0.2260
    127  O          9.2720    5.6110   52.4730 O.2    95  ILE95      -0.2867
    128  CB         6.4020    4.6970   53.2320 C.3    95  ILE95       0.0252
    129  CG1        5.1320    4.7900   54.0940 C.3    95  ILE95       0.0019
    130  CG2        6.4770    3.4110   52.4230 C.3    95  ILE95       0.0019
    131  CD1        3.8340    4.9720   53.3440 C.3    95  ILE95       0.0001
    132  N         11.4790    2.8990   50.6380 N.3    97  GLN97      -0.1231
    133  CA        11.3410    2.1220   49.3980 C.3    97  GLN97       0.1698
    134  C         12.6800    2.1130   48.6370 C.2    97  GLN97       0.2592
    135  O         13.5390    2.9710   48.8360 O.2    97  GLN97      -0.2718
    136  CB        10.2040    2.7170   48.5700 C.3    97  GLN97       0.0381
    137  CG         8.8570    2.6930   49.2800 C.3    97  GLN97       0.0905
    138  CD         7.7380    3.2340   48.4310 C.2    97  GLN97       0.2608
    139  OE1        7.5540    4.4380   48.3230 O.2    97  GLN97      -0.2717
    140  NE2        6.9830    2.3370   47.8240 N.am   97  GLN97      -0.0878
    141  N         12.8720    1.1400   47.7570 N.am   98  ASP98      -0.1960
    142  CA        14.0370    1.1390   46.8660 C.3    98  ASP98       0.1840
    143  C         14.2040    2.4640   46.1290 C.2    98  ASP98       0.2622
    144  O         13.2440    3.0300   45.6380 O.2    98  ASP98      -0.2715
    145  CB        13.9500    0.0570   45.8080 C.3    98  ASP98       0.1450
    146  CG        14.0080   -1.3200   46.3790 C.2    98  ASP98       0.3671
    147  OD1       13.6870   -2.2810   45.6460 O.co2  98  ASP98      -0.2456
    148  OD2       14.3720   -1.4640   47.5620 O.co2  98  ASP98      -0.2456
    149  N         15.4450    2.9320   46.0700 N.am   99  LEU99      -0.1963
    150  CA        15.7570    4.1610   45.3800 C.3    99  LEU99       0.1728
    151  C         15.7920    3.8810   43.8710 C.2    99  LEU99       0.2616
    152  O         16.3680    2.8830   43.4350 O.2    99  LEU99      -0.2715
    153  CB        17.1000    4.7110   45.8730 C.3    99  LEU99       0.0311
    154  CG        17.5170    6.0530   45.2700 C.3    99  LEU99       0.0022
    155  CD1       16.4540    7.1170   45.5140 C.3    99  LEU99       0.0001
    156  CD2       18.8670    6.5030   45.8190 C.3    99  LEU99       0.0001
    157  N         15.1840    4.7520   43.0910 N.am  100  MET100     -0.1963
    158  CA        15.2370    4.5880   41.6120 C.3   100  MET100      0.1736
    159  C         15.8970    5.8290   41.0160 C.2   100  MET100      0.2616
    160  O         16.2350    6.7310   41.7830 O.2   100  MET100     -0.2715
    161  CB        13.8300    4.3550   41.0630 C.3   100  MET100      0.0427
    162  CG        13.2090    3.1200   41.6600 C.3   100  MET100      0.0599
    163  SD        13.9150    1.5550   41.0310 S.3   100  MET100     -0.1393
    164  CE        12.8730    1.3120   39.5910 C.3   100  MET100      0.0692
    165  N         16.0880    5.8950   39.6980 N.am  101  GLU101     -0.1963
    166  CA        16.8130    7.0420   39.1050 C.3   101  GLU101      0.1733
    167  C         15.8160    8.1330   38.6850 C.2   101  GLU101      0.2617
    168  O         16.0670    9.3060   38.8810 O.2   101  GLU101     -0.2715
    169  CB        17.6860    6.6450   37.9000 C.3   101  GLU101      0.0429
    170  CG        18.5900    7.7910   37.4510 C.3   101  GLU101      0.1163
    171  CD        19.3010    7.7260   36.1050 C.2   101  GLU101      0.3649
    172  OE1       20.2790    8.4990   35.9370 O.co2 101  GLU101     -0.2457
    173  OE2       18.9040    6.9300   35.2260 O.co2 101  GLU101     -0.2457
    174  N         14.6820    7.7450   38.1030 N.am  102  THR102     -0.1937
    175  CA        13.7920    8.6880   37.5040 C.3   102  THR102      0.2028
    176  C         12.3950    8.0520   37.3950 C.2   102  THR102      0.2642
    177  O         12.1450    6.9480   37.8910 O.2   102  THR102     -0.2714
    178  CB        14.3300    9.1200   36.1300 C.3   102  THR102      0.1808
    179  OG1       13.5740   10.2220   35.6420 O.3   102  THR102     -0.2208
    180  CG2       14.2650    8.0390   35.0740 C.3   102  THR102      0.0379
    181  N         11.4800    8.7470   36.7440 N.am  103  ASP103     -0.1971
    182  CA        10.2190    8.1060   36.3430 C.3   103  ASP103      0.1709
    183  C          9.9360    8.3670   34.8760 C.2   103  ASP103      0.2293
    184  O         10.6220    9.1830   34.2610 O.2   103  ASP103     -0.2864
    185  CB         9.0630    8.5240   37.2580 C.3   103  ASP103      0.1436
    186  CG         8.7980   10.0130   37.2340 C.2   103  ASP103      0.3671
    187  OD1        8.5930   10.5830   36.1550 O.co2 103  ASP103     -0.2456
    188  OD2        8.7970   10.6140   38.3160 O.co2 103  ASP103     -0.2456
    189  N          9.2160   12.1140   33.7860 N.3   106  LYS106     -0.1245
    190  CA        10.4390   12.9450   33.7020 C.3   106  LYS106      0.1561
    191  C         11.2630   12.5470   32.4710 C.2   106  LYS106      0.2260
    192  O         11.7790   13.3780   31.7880 O.2   106  LYS106     -0.2867
    193  CB        11.3290   12.7650   34.9370 C.3   106  LYS106      0.0271
    194  CG        10.7950   13.3030   36.2570 C.3   106  LYS106      0.0035
    195  CD        11.7160   12.9280   37.4200 C.3   106  LYS106      0.0206
    196  CE        11.3730   13.5990   38.7310 C.3   106  LYS106      0.1093
    197  NZ        10.1180   13.0570   39.2970 N.3   106  LYS106     -0.1314
    198  N          3.8110    7.4150   37.3800 N.3   146  ASN146     -0.1240
    199  CA         3.6830    6.3370   38.3400 C.3   146  ASN146      0.1653
    200  C          4.4700    5.1210   37.8810 C.2   146  ASN146      0.2266
    201  O          4.1870    4.0100   38.3140 O.2   146  ASN146     -0.2867
    202  CB         2.2130    5.9990   38.6110 C.3   146  ASN146      0.1155
    203  CG         1.5740    7.0260   39.5210 C.2   146  ASN146      0.2627
    204  OD1        2.2920    7.7280   40.2470 O.2   146  ASN146     -0.2716
    205  ND2        0.2400    7.1220   39.4950 N.am  146  ASN146     -0.0877
    206  N          8.3990    4.0350   37.8120 N.3   148  LEU148     -0.1245
    207  CA         9.8060    4.3070   38.2230 C.3   148  LEU148      0.1561
    208  C         10.7830    3.5030   37.3640 C.2   148  LEU148      0.2260
    209  O         10.4710    2.3860   37.0090 O.2   148  LEU148     -0.2867
    210  CB         9.9940    3.9050   39.6890 C.3   148  LEU148      0.0270
    211  CG         9.2630    4.7830   40.6870 C.3   148  LEU148      0.0019
    212  CD1        9.1080    4.0950   42.0450 C.3   148  LEU148      0.0001
    213  CD2        9.9650    6.1310   40.8170 C.3   148  LEU148      0.0001
    214  N          2.6040    3.8680   43.4330 N.3   157  ASP157     -0.1239
    215  CA         1.3810    4.5850   43.8630 C.3   157  ASP157      0.1674
    216  C          0.0590    3.8030   43.7560 C.2   157  ASP157      0.2266
    217  O         -0.6590    3.8790   42.7470 O.2   157  ASP157     -0.2867
    218  CB         1.2420    5.9460   43.1910 C.3   157  ASP157      0.1410
    219  CG         0.2820    6.8790   43.9480 C.2   157  ASP157      0.3668
    220  OD1       -0.5010    6.4200   44.7910 O.co2 157  ASP157     -0.2456
    221  OD2        0.3200    8.0850   43.6890 O.co2 157  ASP157     -0.2456
    222  N         -2.4180    4.2660   45.9600 N.3   159  GLY159     -0.1225
    223  CA        -3.3360    5.0110   46.7640 C.3   159  GLY159      0.1811
    224  C         -4.7400    5.0710   46.1730 C.2   159  GLY159      0.2280
    225  O         -5.6850    5.2790   46.9230 O.2   159  GLY159     -0.2866
@<TRIPOS>BOND
     1   192   191    2
     2   191   190    1
     3   190   189    1
     4   190   193    1
     5   184   183    2
     6   183   182    1
     7   193   194    1
     8   180   178    1
     9   173   171   ar
    10   179   178    1
    11   172   171   ar
    12   171   170    1
    13   178   175    1
    14   187   186   ar
    15   194   195    1
    16   182   181    1
    17   182   185    1
    18   181   176   am
    19   209   208    2
    20   186   185    1
    21   186   188   ar
    22   208   207    1
    23   198   199    1
    24   176   175    1
    25   176   177    2
    26   195   196    1
    27   170   169    1
    28   175   174    1
    29   206   207    1
    30   200   201    2
    31   200   199    1
    32   169   166    1
    33   174   167   am
    34   207   210    1
    35   199   202    1
    36   202   203    1
    37   167   168    2
    38   167   166    1
    39   196   197    1
    40   166   165    1
    41   205   203   am
    42   203   204    2
    43   164   163    1
    44   210   211    1
    45   165   159   am
    46   211   213    1
    47   211   212    1
    48   159   158    1
    49   159   160    2
    50   163   162    1
    51   161   158    1
    52   161   162    1
    53   158   157    1
    54   217   216    2
    55   116   117    1
    56   157   151   am
    57   218   215    1
    58   218   219    1
    59   214   215    1
    60   152   151    2
    61   221   219   ar
    62   216   215    1
    63     4     3    2
    64   151   150    1
    65   219   220   ar
    66   117   120    1
    67   117   118    1
    68   120   122    1
    69   120   121    1
    70     7     5    1
    71   123   121    1
    72     3     2    1
    73   154   155    1
    74   154   156    1
    75   154   153    1
    76   150   153    1
    77   150   149    1
    78   118   119    2
    79    99    97    1
    80     2     5    1
    81     2     1    1
    82     5     6    1
    83   144   143    2
    84   147   146   ar
    85     6     8    1
    86   145   146    1
    87   145   142    1
    88   222   223    1
    89    22    20   ar
    90    22    24   ar
    91   149   143   am
    92   143   142    1
    93    98    97    1
    94   224   223    1
    95   224   225    2
    96    25    24    1
    97   146   148   ar
    98    97    96    2
    99    20    19   ar
   100    32    30    1
   101     9    10    1
   102    24    23   ar
   103   142   141    1
   104    13    10    1
   105   114   113   ar
   106    96    95    1
   107    10    11    1
   108   141   134   am
   109    31    30    1
   110   140   138   am
   111    37    34    1
   112    30    27    1
   113    19    18    1
   114    19    21   ar
   115   115   113   ar
   116    23    21   ar
   117   113   112    1
   118   139   138    2
   119    14    11   am
   120    14    15    1
   121   138   137    1
   122    46    45    1
   123    18    15    1
   124    29    28    2
   125   136   137    1
   126   136   133    1
   127   134   135    2
   128   134   133    1
   129    95    94    1
   130    11    12    2
   131    94    93    1
   132    34    33    1
   133    34    35    1
   134    27    28    1
   135    27    26    1
   136    15    16    1
   137   133   132    1
   138   112   111    1
   139    44    45    1
   140    44    43    1
   141   108   111    1
   142   108   107    1
   143   108   109    1
   144    93    90    1
   145   110   109    2
   146    35    36    2
   147    92    91    2
   148    16    17    2
   149    90    91    1
   150    90    89    1
   151    42    43    1
   152    42    39    1
   153    91   100   am
   154    85    83   ar
   155    85    87   ar
   156    39    38    1
   157    39    40    1
   158    88    87    1
   159    83    82   ar
   160    54    52    1
   161   100   101    1
   162    87    86   ar
   163   130   128    1
   164   127   126    2
   165   101   102    1
   166   101   104    1
   167    78    77    1
   168    78    81    1
   169    78    79    1
   170    40    41    2
   171    82    81    1
   172    82    84   ar
   173   103   102    2
   174   128   129    1
   175   128   125    1
   176    52    51    1
   177   126   125    1
   178   131   129    1
   179    80    79    2
   180    86    84   ar
   181   105   104    1
   182   125   124    1
   183    53    51    1
   184   104   106    1
   185    51    48    1
   186    48    47    1
   187    48    49    1
   188    65    62    1
   189    65    66    1
   190    55    49   am
   191    55    56    1
   192    76    74   ar
   193    49    50    2
   194    62    61    1
   195    62    63    1
   196    58    57    2
   197    57    61   am
   198    57    56    1
   199    66    67    1
   200    61    67    1
   201    74    75   ar
   202    74    73    1
   203    56    59    1
   204    64    63    2
   205    59    60    1
   206    72    73    1
   207    72    69    1
   208    70    69    1
   209    70    71    2
   210    69    68    1
