@<TRIPOS>MOLECULE
tmp/6gdqA00.pdb
 207 197 0 0 0
SMALL
GASTEIGER

@<TRIPOS>ATOM
      1  N         12.4380   14.5610   46.7790 N.3    22  ILE22      -0.1245
      2  CA        12.1950   13.8100   45.5230 C.3    22  ILE22       0.1561
      3  C         10.9310   14.2650   44.8130 C.2    22  ILE22       0.2260
      4  O         10.9440   14.4650   43.5960 O.2    22  ILE22      -0.2867
      5  CB        12.1140   12.2660   45.7870 C.3    22  ILE22       0.0252
      6  CG1       13.4690   11.6480   45.6510 C.3    22  ILE22       0.0019
      7  CG2       11.0880   11.5310   44.8370 C.3    22  ILE22       0.0019
      8  CD1       13.4650   10.1630   46.0410 C.3    22  ILE22       0.0001
      9  N          6.2150   14.7900   45.5740 N.3    24  GLU24      -0.1231
     10  CA         5.1360   14.9790   46.5400 C.3    24  GLU24       0.1699
     11  C          3.8390   14.3920   46.0660 C.2    24  GLU24       0.2593
     12  O          3.7730   13.8740   44.9630 O.2    24  GLU24      -0.2718
     13  CB         5.0000   16.4700   46.8910 C.3    24  GLU24       0.0402
     14  CG         4.6070   17.3240   45.7040 C.3    24  GLU24       0.1161
     15  CD         4.3710   18.7510   46.1420 C.2    24  GLU24       0.3649
     16  OE1        3.2160   19.0800   46.4930 O.co2  24  GLU24      -0.2457
     17  OE2        5.3470   19.5350   46.1450 O.co2  24  GLU24      -0.2457
     18  N          2.8340   14.4480   46.9230 N.am   25  GLY25      -0.1942
     19  CA         1.4730   14.0500   46.5930 C.3    25  GLY25       0.2014
     20  C          0.4490   14.8320   47.3920 C.2    25  GLY25       0.2639
     21  O          0.8110   15.7010   48.1910 O.2    25  GLY25      -0.2714
     22  N         -0.8370   14.5260   47.1760 N.am   26  ALA26      -0.1963
     23  CA        -1.9690   15.2080   47.8270 C.3    26  ALA26       0.1728
     24  C         -1.8700   15.3730   49.3760 C.2    26  ALA26       0.2616
     25  O         -2.2700   16.4330   49.9140 O.2    26  ALA26      -0.2715
     26  CB        -3.2590   14.4900   47.4620 C.3    26  ALA26       0.0334
     27  N         -1.3370   14.3450   50.0900 N.am   27  TYR27      -0.1960
     28  CA        -1.2330   14.3820   51.5640 C.3    27  TYR27       0.1771
     29  C          0.1390   13.9010   52.0730 C.2    27  TYR27       0.2620
     30  O          0.2480   13.2830   53.1360 O.2    27  TYR27      -0.2715
     31  CB        -2.4030   13.6240   52.2190 C.3    27  TYR27       0.0574
     32  CG        -2.6850   12.2680   51.6210 C.ar   27  TYR27      -0.0198
     33  CD1       -2.2370   11.1080   52.2380 C.ar   27  TYR27      -0.0009
     34  CD2       -3.4200   12.1410   50.4450 C.ar   27  TYR27      -0.0009
     35  CE1       -2.5050    9.8550   51.6960 C.ar   27  TYR27       0.0417
     36  CE2       -3.6930   10.8930   49.8960 C.ar   27  TYR27       0.0417
     37  CZ        -3.2270    9.7490   50.5210 C.ar   27  TYR27       0.1957
     38  OH        -3.4590    8.4890   50.0050 O.3    27  TYR27      -0.2866
     39  N          1.1800   14.2080   51.3150 N.am   28  GLY28      -0.1940
     40  CA         2.5260   13.9520   51.7860 C.3    28  GLY28       0.2014
     41  C          3.6220   14.3240   50.8170 C.2    28  GLY28       0.2639
     42  O          3.3920   15.0580   49.8550 O.2    28  GLY28      -0.2714
     43  N          4.8210   13.7960   51.0880 N.am   29  MET29      -0.1963
     44  CA         6.0690   14.1530   50.4220 C.3    29  MET29       0.1736
     45  C          7.0330   12.9560   50.3720 C.2    29  MET29       0.2616
     46  O          7.0640   12.1570   51.2990 O.2    29  MET29      -0.2715
     47  CB         6.6870   15.3100   51.1940 C.3    29  MET29       0.0427
     48  CG         8.0040   15.7600   50.6770 C.3    29  MET29       0.0599
     49  SD         8.6390   17.0900   51.7220 S.3    29  MET29      -0.1393
     50  CE        10.2350   16.7000   51.7370 C.3    29  MET29       0.0692
     51  N          7.8160   12.8400   49.2890 N.am   30  VAL30      -0.1977
     52  CA         8.8210   11.8030   49.1370 C.3    30  VAL30       0.1596
     53  C         10.2100   12.4200   49.1850 C.2    30  VAL30       0.2287
     54  O         10.4250   13.4610   48.5920 O.2    30  VAL30      -0.2864
     55  CB         8.5950   10.9720   47.8390 C.3    30  VAL30       0.0276
     56  CG1        9.5320    9.7590   47.7750 C.3    30  VAL30       0.0022
     57  CG2        7.1560   10.5320   47.7440 C.3    30  VAL30       0.0022
     58  N         14.2820    5.5410   48.9880 N.3    43  ALA43      -0.1245
     59  CA        13.2180    6.5430   48.9110 C.3    43  ALA43       0.1562
     60  C         12.3920    6.4400   50.1750 C.2    43  ALA43       0.2260
     61  O         12.1590    5.3410   50.6460 O.2    43  ALA43      -0.2867
     62  CB        12.3310    6.3230   47.6940 C.3    43  ALA43       0.0290
     63  N          8.6590    7.8710   51.6450 N.3    45  LYS45      -0.1231
     64  CA         7.3930    8.5340   51.4090 C.3    45  LYS45       0.1693
     65  C          6.7500    8.8490   52.7640 C.2    45  LYS45       0.2592
     66  O          6.3290    7.9410   53.4580 O.2    45  LYS45      -0.2718
     67  CB         6.4970    7.6180   50.5460 C.3    45  LYS45       0.0285
     68  CG         5.0950    8.1170   50.3550 C.3    45  LYS45       0.0035
     69  CD         4.3780    7.1890   49.4280 C.3    45  LYS45       0.0206
     70  CE         2.9610    7.5800   49.2270 C.3    45  LYS45       0.1093
     71  NZ         2.3330    6.7990   48.1350 N.3    45  LYS45      -0.1314
     72  N          6.7060   10.1260   53.1350 N.am   46  LYS46      -0.1966
     73  CA         5.9120   10.6200   54.2730 C.3    46  LYS46       0.1728
     74  C          4.4280   10.7760   53.9020 C.2    46  LYS46       0.2616
     75  O          4.1030   11.3820   52.8880 O.2    46  LYS46      -0.2715
     76  CB         6.4260   11.9620   54.7270 C.3    46  LYS46       0.0311
     77  CG         5.7490   12.4660   56.0020 C.3    46  LYS46       0.0038
     78  CD         6.2540   13.8300   56.3920 C.3    46  LYS46       0.0206
     79  CE         5.5440   14.3170   57.6260 C.3    46  LYS46       0.1093
     80  NZ         5.8470   15.7300   57.9320 N.3    46  LYS46      -0.1314
     81  N          3.5430   10.2460   54.7250 N.am   47  ILE47      -0.1977
     82  CA         2.0950   10.2940   54.5130 C.3    47  ILE47       0.1596
     83  C          1.4360   10.8620   55.7800 C.2    47  ILE47       0.2287
     84  O          1.6920   10.3640   56.8680 O.2    47  ILE47      -0.2864
     85  CB         1.5630    8.8670   54.1840 C.3    47  ILE47       0.0276
     86  CG1        2.3990    8.1960   53.0700 C.3    47  ILE47       0.0022
     87  CG2        0.1080    8.9490   53.7610 C.3    47  ILE47       0.0022
     88  CD1        1.9660    6.8520   52.7360 C.3    47  ILE47       0.0001
     89  N          6.8010   -1.6120   42.8600 N.3    75  ILE75      -0.1245
     90  CA         7.5290   -1.0870   43.9940 C.3    75  ILE75       0.1561
     91  C          7.1150   -1.8260   45.3070 C.2    75  ILE75       0.2260
     92  O          5.9510   -2.1240   45.5520 O.2    75  ILE75      -0.2867
     93  CB         7.3970    0.4700   44.0970 C.3    75  ILE75       0.0252
     94  CG1        8.4980    1.1040   44.9630 C.3    75  ILE75       0.0019
     95  CG2        6.0000    0.8840   44.6050 C.3    75  ILE75       0.0019
     96  CD1        9.9330    0.9320   44.4100 C.3    75  ILE75       0.0001
     97  N         11.0770    2.7170   50.5230 N.3    96  GLN96      -0.1231
     98  CA        11.0750    1.9510   49.2810 C.3    96  GLN96       0.1698
     99  C         12.4220    2.0340   48.5680 C.2    96  GLN96       0.2592
    100  O         13.2310    2.9180   48.8660 O.2    96  GLN96      -0.2718
    101  CB         9.9240    2.4730   48.4030 C.3    96  GLN96       0.0381
    102  CG         8.5910    2.4400   49.1750 C.3    96  GLN96       0.0905
    103  CD         7.3970    2.7780   48.3800 C.2    96  GLN96       0.2608
    104  OE1        6.5740    1.9250   48.0180 O.2    96  GLN96      -0.2717
    105  NE2        7.2680    4.0350   48.1020 N.am   96  GLN96      -0.0878
    106  N         12.6660    1.0950   47.6050 N.am   97  ASP97      -0.1960
    107  CA        13.8710    1.1220   46.7320 C.3    97  ASP97       0.1840
    108  C         13.9120    2.4680   46.0520 C.2    97  ASP97       0.2622
    109  O         12.8880    2.9200   45.5440 O.2    97  ASP97      -0.2715
    110  CB        13.8380    0.0240   45.6400 C.3    97  ASP97       0.1450
    111  CG        13.9570   -1.3730   46.1990 C.2    97  ASP97       0.3671
    112  OD1       13.5730   -2.3270   45.4950 O.co2  97  ASP97      -0.2456
    113  OD2       14.4250   -1.5120   47.3330 O.co2  97  ASP97      -0.2456
    114  N         15.0820    3.1200   46.0710 N.am   98  LEU98      -0.1963
    115  CA        15.2270    4.3790   45.3800 C.3    98  LEU98       0.1728
    116  C         15.4190    4.1180   43.8960 C.2    98  LEU98       0.2616
    117  O         16.2050    3.2440   43.5200 O.2    98  LEU98      -0.2715
    118  CB        16.4150    5.1500   45.9320 C.3    98  LEU98       0.0311
    119  CG        16.7150    6.4990   45.2950 C.3    98  LEU98       0.0022
    120  CD1       15.6270    7.4750   45.5470 C.3    98  LEU98       0.0001
    121  CD2       18.0400    7.0640   45.8450 C.3    98  LEU98       0.0001
    122  N         14.7030    4.8910   43.0620 N.am   99  MET99      -0.1963
    123  CA        14.7340    4.7750   41.6010 C.3    99  MET99       0.1736
    124  C         15.3720    6.0020   41.0330 C.2    99  MET99       0.2616
    125  O         15.4150    7.0420   41.7120 O.2    99  MET99      -0.2715
    126  CB        13.2960    4.5310   41.0630 C.3    99  MET99       0.0427
    127  CG        12.6830    3.2250   41.5880 C.3    99  MET99       0.0599
    128  SD        13.4570    1.6340   41.1000 S.3    99  MET99      -0.1393
    129  CE        12.7840    1.4870   39.4620 C.3    99  MET99       0.0692
    130  N         15.8890    5.9110   39.8000 N.am  100  GLU100     -0.1963
    131  CA        16.6590    7.0250   39.1830 C.3   100  GLU100      0.1733
    132  C         15.7210    8.0800   38.6570 C.2   100  GLU100      0.2617
    133  O         15.9170    9.2770   38.8900 O.2   100  GLU100     -0.2715
    134  CB        17.5750    6.5240   38.0300 C.3   100  GLU100      0.0429
    135  CG        18.6110    7.5440   37.5700 C.3   100  GLU100      0.1163
    136  CD        19.1360    7.4550   36.1450 C.2   100  GLU100      0.3649
    137  OE1       20.2680    7.9390   35.9100 O.co2 100  GLU100     -0.2457
    138  OE2       18.4290    6.9160   35.2650 O.co2 100  GLU100     -0.2457
    139  N         14.6740    7.6530   37.9290 N.am  101  THR101     -0.1937
    140  CA        13.7570    8.6020   37.3010 C.3   101  THR101      0.2028
    141  C         12.3660    7.9950   37.1770 C.2   101  THR101      0.2642
    142  O         12.1250    6.9020   37.6820 O.2   101  THR101     -0.2714
    143  CB        14.3490    9.0320   35.9460 C.3   101  THR101      0.1808
    144  OG1       13.6060   10.1350   35.4320 O.3   101  THR101     -0.2208
    145  CG2       14.4180    7.8810   34.9400 C.3   101  THR101      0.0379
    146  N         11.4490    8.6950   36.5110 N.am  102  ASP102     -0.1971
    147  CA        10.1220    8.1500   36.2190 C.3   102  ASP102      0.1709
    148  C          9.8970    8.3920   34.7310 C.2   102  ASP102      0.2293
    149  O         10.6590    9.1560   34.1160 O.2   102  ASP102     -0.2864
    150  CB         9.0350    8.7610   37.1090 C.3   102  ASP102      0.1436
    151  CG         8.8510   10.2420   36.9840 C.2   102  ASP102      0.3671
    152  OD1        8.7550   10.7170   35.8740 O.co2 102  ASP102     -0.2456
    153  OD2        8.7880   10.9230   38.0270 O.co2 102  ASP102     -0.2456
    154  N          9.2630   12.2400   33.5990 N.3   105  LYS105     -0.1245
    155  CA        10.5520   12.9750   33.4420 C.3   105  LYS105      0.1561
    156  C         11.2550   12.5670   32.1770 C.2   105  LYS105      0.2260
    157  O         11.6650   13.4120   31.4260 O.2   105  LYS105     -0.2867
    158  CB        11.4280   12.7320   34.6540 C.3   105  LYS105      0.0271
    159  CG        10.8410   13.3910   35.9030 C.3   105  LYS105      0.0035
    160  CD        11.8510   13.5740   37.0210 C.3   105  LYS105      0.0206
    161  CE        12.1570   12.3070   37.7770 C.3   105  LYS105      0.1093
    162  NZ        13.4680   12.4050   38.4960 N.3   105  LYS105     -0.1314
    163  N         -0.0440    6.0210   34.7860 N.3   142  LYS142     -0.1245
    164  CA         0.3640    7.1950   34.0060 C.3   142  LYS142      0.1561
    165  C          1.8880    7.2610   34.0770 C.2   142  LYS142      0.2260
    166  O          2.4650    6.5830   34.9280 O.2   142  LYS142     -0.2867
    167  CB        -0.2960    8.4850   34.5400 C.3   142  LYS142      0.0271
    168  CG        -0.1760    8.6840   36.0210 C.3   142  LYS142      0.0035
    169  CD        -0.8660    9.9870   36.3820 C.3   142  LYS142      0.0206
    170  CE        -0.7940   10.2260   37.8310 C.3   142  LYS142      0.1093
    171  NZ        -1.4540   11.5120   38.1970 N.3   142  LYS142     -0.1314
    172  N          4.1110    9.2540   35.3750 N.3   144  SER144     -0.1202
    173  CA         4.7160    9.6710   36.6410 C.3   144  SER144      0.2020
    174  C          4.6070    8.5170   37.7070 C.2   144  SER144      0.2618
    175  O          5.2790    8.6030   38.7300 O.2   144  SER144     -0.2717
    176  CB         4.1160   10.9960   37.1330 C.3   144  SER144      0.2103
    177  OG         2.7100   10.8830   37.2890 O.3   144  SER144     -0.2182
    178  N          3.7810    7.4680   37.4750 N.am  145  ASN145     -0.1974
    179  CA         3.6770    6.3220   38.3770 C.3   145  ASN145      0.1688
    180  C          4.4280    5.1160   37.8770 C.2   145  ASN145      0.2292
    181  O          4.2170    4.0190   38.3850 O.2   145  ASN145     -0.2864
    182  CB         2.2150    6.0050   38.6990 C.3   145  ASN145      0.1181
    183  CG         1.5610    7.0500   39.5430 C.2   145  ASN145      0.2629
    184  OD1        2.2250    7.7850   40.2940 O.2   145  ASN145     -0.2716
    185  ND2        0.2370    7.1590   39.4390 N.am  145  ASN145     -0.0877
    186  N          8.3010    4.0320   37.5340 N.3   147  LEU147     -0.1245
    187  CA         9.6590    4.3530   37.9760 C.3   147  LEU147      0.1561
    188  C         10.6860    3.4930   37.2350 C.2   147  LEU147      0.2260
    189  O         10.4440    2.3160   36.9010 O.2   147  LEU147     -0.2867
    190  CB         9.7880    4.1540   39.5000 C.3   147  LEU147      0.0270
    191  CG         8.7340    4.7990   40.3730 C.3   147  LEU147      0.0019
    192  CD1        9.0280    4.4770   41.8530 C.3   147  LEU147      0.0001
    193  CD2        8.6190    6.3200   40.1000 C.3   147  LEU147      0.0001
    194  N          4.4290    2.2660   40.7100 N.3   156  CYS156     -0.1221
    195  CA         4.2170    2.8050   42.0470 C.3   156  CYS156      0.1808
    196  C          2.8270    3.4600   42.1860 C.2   156  CYS156      0.2601
    197  O          2.0500    3.5350   41.2420 O.2   156  CYS156     -0.2717
    198  CB         5.3490    3.7630   42.4320 C.3   156  CYS156      0.0970
    199  SG         5.2680    5.3660   41.6080 S.3   156  CYS156     -0.0800
    200  N          2.5340    3.8940   43.3810 N.am  157  ASP157     -0.1973
    201  CA         1.3290    4.6480   43.7880 C.3   157  ASP157      0.1709
    202  C          0.0500    3.8560   43.6760 C.2   157  ASP157      0.2293
    203  O         -0.6580    3.9300   42.6820 O.2   157  ASP157     -0.2864
    204  CB         1.1550    6.0220   43.0960 C.3   157  ASP157      0.1436
    205  CG         0.0960    6.8900   43.7780 C.2   157  ASP157      0.3671
    206  OD1       -0.0400    8.0520   43.3990 O.co2 157  ASP157     -0.2456
    207  OD2       -0.5860    6.3910   44.7010 O.co2 157  ASP157     -0.2456
@<TRIPOS>BOND
     1   157   156    2
     2   156   155    1
     3   155   154    1
     4   155   158    1
     5   164   165    1
     6   164   167    1
     7   164   163    1
     8   165   166    2
     9   149   148    2
    10   167   168    1
    11   158   159    1
    12   148   147    1
    13   145   143    1
    14   138   136   ar
    15   172   173    1
    16   144   143    1
    17   152   151   ar
    18   159   160    1
    19   137   136   ar
    20   143   140    1
    21   168   169    1
    22   136   135    1
    23   147   146    1
    24   147   150    1
    25   169   170    1
    26   146   141   am
    27   173   176    1
    28   173   174    1
    29   189   188    2
    30   151   150    1
    31   151   153   ar
    32   160   161    1
    33   176   177    1
    34   141   140    1
    35   141   142    2
    36   188   187    1
    37   140   139    1
    38   178   174   am
    39   178   179    1
    40   186   187    1
    41   135   134    1
    42   174   175    2
    43   161   162    1
    44   170   171    1
    45   180   179    1
    46   180   181    2
    47   139   132   am
    48   187   190    1
    49   134   131    1
    50   179   182    1
    51   132   133    2
    52   132   131    1
    53   182   183    1
    54   131   130    1
    55   185   183   am
    56   129   128    1
    57   190   191    1
    58   183   184    2
    59   130   124   am
    60   193   191    1
    61   191   192    1
    62   194   195    1
    63   124   123    1
    64   124   125    2
    65   126   127    1
    66   126   123    1
    67   128   127    1
    68   197   196    2
    69   123   122    1
    70   199   198    1
    71   195   196    1
    72   195   198    1
    73   196   200   am
    74   203   202    2
    75    89    90    1
    76   122   116   am
    77   204   205    1
    78   204   201    1
    79   200   201    1
    80   206   205   ar
    81   117   116    2
    82     4     3    2
    83   202   201    1
    84   205   207   ar
    85   116   115    1
    86    90    93    1
    87    90    91    1
    88    93    95    1
    89    93    94    1
    90    96    94    1
    91     3     2    1
    92     7     5    1
    93    12    11    2
    94   119   120    1
    95   119   121    1
    96   119   118    1
    97    91    92    2
    98   115   118    1
    99   115   114    1
   100   112   111   ar
   101     2     5    1
   102     2     1    1
   103   109   108    2
   104     9    10    1
   105   110   111    1
   106   110   107    1
   107     6     5    1
   108     6     8    1
   109    14    15    1
   110    14    13    1
   111   108   114   am
   112   108   107    1
   113    11    10    1
   114    11    18   am
   115    15    17   ar
   116    15    16   ar
   117   111   113   ar
   118    10    13    1
   119    19    18    1
   120    19    20    1
   121   107   106    1
   122    22    20   am
   123    22    23    1
   124    20    21    2
   125    26    23    1
   126   106    99   am
   127    62    59    1
   128    57    55    1
   129    56    55    1
   130    23    24    1
   131    55    52    1
   132   104   103    2
   133   105   103   am
   134    71    70    1
   135   103   102    1
   136   101   102    1
   137   101    98    1
   138    99   100    2
   139    99    98    1
   140    54    53    2
   141    59    58    1
   142    59    60    1
   143    52    53    1
   144    52    51    1
   145    70    69    1
   146    98    97    1
   147    51    45   am
   148    24    25    2
   149    24    27   am
   150    69    68    1
   151    42    41    2
   152    36    34   ar
   153    36    37   ar
   154    38    37    1
   155    27    28    1
   156    60    61    2
   157    68    67    1
   158    45    44    1
   159    45    46    2
   160    44    43    1
   161    44    47    1
   162    34    32   ar
   163    37    35   ar
   164    67    64    1
   165    48    47    1
   166    48    49    1
   167    41    43   am
   168    41    40    1
   169    39    40    1
   170    39    29   am
   171    64    63    1
   172    64    65    1
   173    28    29    1
   174    28    31    1
   175    32    31    1
   176    32    33   ar
   177    35    33   ar
   178    49    50    1
   179    29    30    2
   180    88    86    1
   181    65    72   am
   182    65    66    2
   183    75    74    2
   184    86    85    1
   185    72    73    1
   186    87    85    1
   187    74    73    1
   188    74    81   am
   189    85    82    1
   190    73    76    1
   191    82    81    1
   192    82    83    1
   193    76    77    1
   194    83    84    2
   195    77    78    1
   196    78    79    1
   197    79    80    1
