@<TRIPOS>MOLECULE
tmp/6gdrD00.pdb
 176 163 0 0 0
SMALL
GASTEIGER

@<TRIPOS>ATOM
      1  N        -22.4550   25.7500  -32.5810 N.3     6  GLN6       -0.1231
      2  CA       -23.4970   24.9980  -31.8920 C.3     6  GLN6        0.1698
      3  C        -22.8370   24.1310  -30.8280 C.2     6  GLN6        0.2592
      4  O        -22.1020   23.1910  -31.1490 O.2     6  GLN6       -0.2718
      5  CB       -24.2920   24.1480  -32.8790 C.3     6  GLN6        0.0381
      6  CG       -25.4460   23.3850  -32.2450 C.3     6  GLN6        0.0905
      7  CD       -26.2540   22.5980  -33.2560 C.2     6  GLN6        0.2608
      8  OE1      -25.7380   22.1810  -34.2940 O.2     6  GLN6       -0.2717
      9  NE2      -27.5330   22.3940  -32.9610 N.am    6  GLN6       -0.0878
     10  N        -23.0880   24.4480  -29.5640 N.am    7  LEU7       -0.1966
     11  CA       -22.5310   23.6840  -28.4600 C.3     7  LEU7        0.1728
     12  C        -23.4840   22.5600  -28.0650 C.2     7  LEU7        0.2616
     13  O        -24.6690   22.5640  -28.4060 O.2     7  LEU7       -0.2715
     14  CB       -22.2530   24.5970  -27.2650 C.3     7  LEU7        0.0311
     15  CG       -21.4270   25.8520  -27.5660 C.3     7  LEU7        0.0022
     16  CD1      -21.1250   26.6110  -26.2830 C.3     7  LEU7        0.0001
     17  CD2      -20.1370   25.5140  -28.3030 C.3     7  LEU7        0.0001
     18  N        -22.9450   21.5880  -27.3360 N.am    8  ALA8       -0.1977
     19  CA       -23.6790   20.3840  -26.9730 C.3     8  ALA8        0.1597
     20  C        -24.2190   20.5070  -25.5540 C.2     8  ALA8        0.2287
     21  O        -23.4940   20.9120  -24.6400 O.2     8  ALA8       -0.2864
     22  CB       -22.7840   19.1500  -27.0910 C.3     8  ALA8        0.0319
     23  N        -23.6090    9.0170  -32.5180 N.3    24  SER24      -0.1202
     24  CA       -22.2260    8.7970  -32.9110 C.3    24  SER24       0.2020
     25  C        -21.3620    8.8300  -31.6610 C.2    24  SER24       0.2619
     26  O        -21.7150    9.4630  -30.6630 O.2    24  SER24      -0.2717
     27  CB       -21.7490    9.8480  -33.9190 C.3    24  SER24       0.2103
     28  OG       -21.8010   11.1490  -33.3630 O.3    24  SER24      -0.2182
     29  N        -20.2290    8.1390  -31.7290 N.am   25  GLU25      -0.1965
     30  CA       -19.2980    8.0950  -30.6110 C.3    25  GLU25       0.1733
     31  C        -18.5410    9.4120  -30.5170 C.2    25  GLU25       0.2616
     32  O        -18.0170    9.9090  -31.5190 O.2    25  GLU25      -0.2715
     33  CB       -18.3190    6.9340  -30.7820 C.3    25  GLU25       0.0429
     34  CG       -17.2420    6.8560  -29.7070 C.3    25  GLU25       0.1163
     35  CD       -16.3630    5.6280  -29.8530 C.2    25  GLU25       0.3649
     36  OE1      -16.8440    4.6100  -30.3940 O.co2  25  GLU25      -0.2457
     37  OE2      -15.1890    5.6810  -29.4310 O.co2  25  GLU25      -0.2457
     38  N        -18.4860    9.9770  -29.3140 N.am   26  LYS26      -0.1963
     39  CA       -17.7060   11.1870  -29.0970 C.3    26  LYS26       0.1728
     40  C        -16.2210   10.8490  -29.1270 C.2    26  LYS26       0.2616
     41  O        -15.7560    9.9770  -28.3870 O.2    26  LYS26      -0.2715
     42  CB       -18.0740   11.8310  -27.7620 C.3    26  LYS26       0.0311
     43  CG       -17.5340   13.2410  -27.5990 C.3    26  LYS26       0.0038
     44  CD       -17.7050   13.7460  -26.1790 C.3    26  LYS26       0.0206
     45  CE       -17.2250   15.1820  -26.0440 C.3    26  LYS26       0.1093
     46  NZ       -15.8030   15.3480  -26.4580 N.3    26  LYS26      -0.1314
     47  N        -15.4760   11.5420  -29.9850 N.am   27  LEU27      -0.1977
     48  CA       -14.0590   11.2770  -30.1910 C.3    27  LEU27       0.1596
     49  C        -13.2410   12.2720  -29.3780 C.2    27  LEU27       0.2287
     50  O        -13.3530   13.4860  -29.5790 O.2    27  LEU27      -0.2864
     51  CB       -13.7050   11.3660  -31.6750 C.3    27  LEU27       0.0297
     52  CG       -14.5960   10.5360  -32.6060 C.3    27  LEU27       0.0022
     53  CD1      -14.1320   10.6660  -34.0470 C.3    27  LEU27       0.0001
     54  CD2      -14.6230    9.0710  -32.1870 C.3    27  LEU27       0.0001
     55  N        -11.0280   19.7400  -31.5960 N.3    31  ARG31      -0.1245
     56  CA       -11.9760   20.3220  -32.5350 C.3    31  ARG31       0.1563
     57  C        -11.2460   21.2350  -33.5100 C.2    31  ARG31       0.2260
     58  O        -10.3500   21.9930  -33.1260 O.2    31  ARG31      -0.2867
     59  CB       -13.0540   21.1110  -31.7950 C.3    31  ARG31       0.0307
     60  CG       -14.1970   21.5730  -32.6870 C.3    31  ARG31       0.0489
     61  CD       -15.1080   22.5550  -31.9700 C.3    31  ARG31       0.2205
     62  NE       -16.4790   22.4910  -32.4680 N.pl3  31  ARG31      -0.0865
     63  CZ       -16.8950   23.0490  -33.6010 C.cat  31  ARG31       0.5346
     64  NH1      -16.0480   23.7200  -34.3740 N.pl3  31  ARG31       0.1354
     65  NH2      -18.1640   22.9320  -33.9650 N.pl3  31  ARG31       0.1354
     66  N        -11.1600   25.7160  -31.8830 N.3    42  ARG42      -0.1245
     67  CA       -12.4460   26.2390  -31.4340 C.3    42  ARG42       0.1563
     68  C        -12.4360   27.7600  -31.3780 C.2    42  ARG42       0.2260
     69  O        -13.4190   28.4120  -31.7490 O.2    42  ARG42      -0.2867
     70  CB       -12.7920   25.6640  -30.0590 C.3    42  ARG42       0.0307
     71  CG       -14.1590   26.0850  -29.5270 C.3    42  ARG42       0.0489
     72  CD       -14.3080   25.7450  -28.0540 C.3    42  ARG42       0.2205
     73  NE       -13.9600   24.3550  -27.7730 N.pl3  42  ARG42      -0.0865
     74  CZ       -14.7820   23.3220  -27.9320 C.cat  42  ARG42       0.5346
     75  NH1      -16.0170   23.5070  -28.3780 N.pl3  42  ARG42       0.1354
     76  NH2      -14.3650   22.0970  -27.6470 N.pl3  42  ARG42       0.1354
     77  N        -13.1820   16.7040  -35.8710 N.3    65  GLU65      -0.1245
     78  CA       -12.4040   16.3470  -34.6900 C.3    65  GLU65       0.1567
     79  C        -11.1150   15.6770  -35.1460 C.2    65  GLU65       0.2260
     80  O        -11.1420   14.5490  -35.6490 O.2    65  GLU65      -0.2867
     81  CB       -13.2010   15.4190  -33.7770 C.3    65  GLU65       0.0388
     82  CG       -12.6320   15.2960  -32.3740 C.3    65  GLU65       0.1160
     83  CD       -12.9340   16.5090  -31.5200 C.2    65  GLU65       0.3649
     84  OE1      -13.7830   17.3290  -31.9280 O.co2  65  GLU65      -0.2457
     85  OE2      -12.3230   16.6430  -30.4410 O.co2  65  GLU65      -0.2457
     86  N        -17.8720   16.0340  -38.5400 N.3    99  PHE99      -0.1241
     87  CA       -19.1580   15.7050  -37.9390 C.3    99  PHE99       0.1605
     88  C        -20.2740   16.6920  -38.2490 C.2    99  PHE99       0.2264
     89  O        -21.4240   16.4110  -37.8960 O.2    99  PHE99      -0.2867
     90  CB       -19.0250   15.5820  -36.4110 C.3    99  PHE99       0.0534
     91  CG       -18.3680   16.7630  -35.7530 C.ar   99  PHE99      -0.0203
     92  CD1      -19.0850   17.9180  -35.4910 C.ar   99  PHE99      -0.0042
     93  CD2      -17.0360   16.7100  -35.3780 C.ar   99  PHE99      -0.0042
     94  CE1      -18.4830   19.0030  -34.8790 C.ar   99  PHE99      -0.0003
     95  CE2      -16.4290   17.7900  -34.7650 C.ar   99  PHE99      -0.0003
     96  CZ       -17.1540   18.9380  -34.5160 C.ar   99  PHE99      -0.0000
     97  N        -17.4040   11.0820  -39.3000 N.3   130  VAL130     -0.1245
     98  CA       -17.7980   10.3140  -38.1270 C.3   130  VAL130      0.1561
     99  C        -18.9610    9.4040  -38.4890 C.2   130  VAL130      0.2260
    100  O        -19.9280    9.8270  -39.1360 O.2   130  VAL130     -0.2867
    101  CB       -18.1590   11.2570  -36.9710 C.3   130  VAL130      0.0252
    102  CG1      -18.7280   10.4750  -35.7980 C.3   130  VAL130      0.0019
    103  CG2      -16.9310   12.0500  -36.5340 C.3   130  VAL130      0.0019
    104  N        -22.3210    7.5700  -38.2110 N.3   132  GLN132     -0.1245
    105  CA       -23.5970    7.8920  -37.5910 C.3   132  GLN132      0.1566
    106  C        -24.5020    6.6720  -37.6650 C.2   132  GLN132      0.2260
    107  O        -24.6990    6.1060  -38.7450 O.2   132  GLN132     -0.2867
    108  CB       -24.2590    9.0860  -38.2840 C.3   132  GLN132      0.0367
    109  CG       -23.3850   10.3320  -38.3620 C.3   132  GLN132      0.0905
    110  CD       -23.3440   11.1070  -37.0610 C.2   132  GLN132      0.2608
    111  OE1      -24.1770   10.9070  -36.1760 O.2   132  GLN132     -0.2717
    112  NE2      -22.3720   12.0030  -36.9400 N.am  132  GLN132     -0.0878
    113  N        -14.9210    7.8660  -25.2610 N.3   154  GLU154     -0.1245
    114  CA       -15.1910    8.9670  -24.3440 C.3   154  GLU154      0.1567
    115  C        -16.6720    9.1290  -24.0310 C.2   154  GLU154      0.2260
    116  O        -17.0190    9.5450  -22.9190 O.2   154  GLU154     -0.2867
    117  CB       -14.6590   10.2810  -24.9230 C.3   154  GLU154      0.0388
    118  CG       -14.6310   11.4260  -23.9190 C.3   154  GLU154      0.1160
    119  CD       -14.3720   12.7720  -24.5660 C.2   154  GLU154      0.3649
    120  OE1      -14.4040   12.8550  -25.8120 O.co2 154  GLU154     -0.2457
    121  OE2      -14.1360   13.7490  -23.8240 O.co2 154  GLU154     -0.2457
    122  N        -22.6390   11.1650  -28.7570 N.3   157  MET157     -0.1245
    123  CA       -23.2030   12.4280  -29.2060 C.3   157  MET157      0.1570
    124  C        -24.5100   12.1500  -29.9300 C.2   157  MET157      0.2261
    125  O        -24.6160   11.1820  -30.6900 O.2   157  MET157     -0.2867
    126  CB       -22.2370   13.1760  -30.1320 C.3   157  MET157      0.0387
    127  CG       -20.9210   13.5550  -29.4730 C.3   157  MET157      0.0595
    128  SD       -21.1040   14.7750  -28.1600 S.3   157  MET157     -0.1393
    129  CE       -21.5640   16.2300  -29.0960 C.3   157  MET157      0.0692
    130  N        -27.3190   14.0150  -32.3630 N.3   159  HIS159     -0.1241
    131  CA       -27.6140   15.1500  -33.2280 C.3   159  HIS159      0.1621
    132  C        -28.9560   14.9080  -33.9010 C.2   159  HIS159      0.2264
    133  O        -29.1220   13.9210  -34.6250 O.2   159  HIS159     -0.2867
    134  CB       -26.5100   15.3500  -34.2690 C.3   159  HIS159      0.0745
    135  CG       -26.4020   16.7560  -34.7690 C.ar  159  HIS159      0.0817
    136  ND1      -25.2360   17.2710  -35.2940 N.ar  159  HIS159     -0.2268
    137  CD2      -27.3120   17.7580  -34.8220 C.ar  159  HIS159      0.1154
    138  CE1      -25.4320   18.5280  -35.6480 C.ar  159  HIS159      0.1986
    139  NE2      -26.6840   18.8480  -35.3730 N.ar  159  HIS159     -0.2212
    140  N        -26.6130   26.0500  -27.0190 N.3   169  ARG169     -0.1245
    141  CA       -27.0140   24.7320  -26.5500 C.3   169  ARG169      0.1563
    142  C        -28.5190   24.5550  -26.6930 C.2   169  ARG169      0.2260
    143  O        -29.2900   25.4970  -26.4860 O.2   169  ARG169     -0.2867
    144  CB       -26.6020   24.5310  -25.0890 C.3   169  ARG169      0.0307
    145  CG       -25.1110   24.3070  -24.8930 C.3   169  ARG169      0.0489
    146  CD       -24.7290   24.3080  -23.4210 C.3   169  ARG169      0.2205
    147  NE       -23.3820   23.7820  -23.2050 N.pl3 169  ARG169     -0.0865
    148  CZ       -22.2680   24.5100  -23.2020 C.cat 169  ARG169      0.5346
    149  NH1      -22.3130   25.8200  -23.4010 N.pl3 169  ARG169      0.1354
    150  NH2      -21.0980   23.9200  -22.9960 N.pl3 169  ARG169      0.1354
    151  N        -28.5590   19.0100  -30.1930 N.3   173  LEU173     -0.1245
    152  CA       -27.2310   18.4040  -30.1440 C.3   173  LEU173      0.1561
    153  C        -26.9010   18.1210  -28.6850 C.2   173  LEU173      0.2260
    154  O        -26.5740   19.0440  -27.9320 O.2   173  LEU173     -0.2867
    155  CB       -26.1810   19.3170  -30.7760 C.3   173  LEU173      0.0270
    156  CG       -24.7270   18.8420  -30.7180 C.3   173  LEU173      0.0019
    157  CD1      -24.5580   17.5100  -31.4330 C.3   173  LEU173      0.0001
    158  CD2      -23.8060   19.8920  -31.3190 C.3   173  LEU173      0.0001
    159  N        -25.0400   15.7820  -25.4650 N.3   175  LYS175     -0.1245
    160  CA       -23.7500   15.2270  -25.0850 C.3   175  LYS175      0.1561
    161  C        -23.9670   14.2160  -23.9690 C.2   175  LYS175      0.2260
    162  O        -24.6650   14.5070  -22.9920 O.2   175  LYS175     -0.2867
    163  CB       -22.8210   16.3570  -24.6360 C.3   175  LYS175      0.0271
    164  CG       -21.4960   15.9570  -24.0200 C.3   175  LYS175      0.0035
    165  CD       -20.9980   17.0610  -23.0900 C.3   175  LYS175      0.0206
    166  CE       -20.9970   18.4420  -23.7600 C.3   175  LYS175      0.1093
    167  NZ       -20.6350   19.5270  -22.8090 N.3   175  LYS175     -0.1314
    168  N        -21.9620   11.4620  -21.4420 N.3   177  LYS177     -0.1245
    169  CA       -20.7110   10.9810  -20.8750 C.3   177  LYS177      0.1561
    170  C        -20.9910   10.3190  -19.5340 C.2   177  LYS177      0.2260
    171  O        -21.9040   10.7200  -18.8070 O.2   177  LYS177     -0.2867
    172  CB       -19.6980   12.1210  -20.6870 C.3   177  LYS177      0.0271
    173  CG       -19.1260   12.6790  -21.9830 C.3   177  LYS177      0.0035
    174  CD       -18.5760   14.0900  -21.7960 C.3   177  LYS177      0.0206
    175  CE       -17.4030   14.1360  -20.8290 C.3   177  LYS177      0.1093
    176  NZ       -16.2150   13.3930  -21.3330 N.3   177  LYS177     -0.1314
@<TRIPOS>BOND
     1    97    98    1
     2   100    99    2
     3   107   106    2
     4    86    87    1
     5    99    98    1
     6   109   108    1
     7   109   110    1
     8   108   105    1
     9    88    87    1
    10    88    89    2
    11   104   105    1
    12    98   101    1
    13    87    90    1
    14   106   105    1
    15   110   112   am
    16   110   111    2
    17   101   103    1
    18   101   102    1
    19    90    91    1
    20    77    78    1
    21    91    92   ar
    22    91    93   ar
    23    80    79    2
    24   138   139   ar
    25   138   136   ar
    26    92    94   ar
    27    93    95   ar
    28   139   137   ar
    29   136   135   ar
    30    79    78    1
    31    94    96   ar
    32   137   135   ar
    33   135   134    1
    34    95    96   ar
    35    78    81    1
    36   133   132    2
    37    64    63    1
    38     8     7    2
    39   134   131    1
    40    53    52    1
    41    65    63    1
    42    27    28    1
    43    27    24    1
    44   132   131    1
    45    81    82    1
    46    63    62    2
    47    57    58    2
    48    57    56    1
    49     7     9   am
    50     7     6    1
    51   131   130    1
    52    24    23    1
    53    24    25    1
    54     5     6    1
    55     5     2    1
    56    60    61    1
    57    60    59    1
    58    52    54    1
    59    52    51    1
    60     1     2    1
    61    56    59    1
    62    56    55    1
    63    62    61    1
    64    82    83    1
    65    84    83   ar
    66     2     3    1
    67    66    67    1
    68    69    68    2
    69    29    25   am
    70    29    30    1
    71    51    48    1
    72    25    26    2
    73    83    85   ar
    74    32    31    2
    75    67    68    1
    76    67    70    1
    77   157   156    1
    78   158   156    1
    79     4     3    2
    80     3    10   am
    81    33    30    1
    82    33    34    1
    83   155   156    1
    84   155   152    1
    85   125   124    2
    86    30    31    1
    87    31    38   am
    88    36    35   ar
    89   151   152    1
    90    48    47    1
    91    48    49    1
    92   152   153    1
    93   126   127    1
    94   126   123    1
    95    70    71    1
    96    47    40   am
    97   124   123    1
    98    35    34    1
    99    35    37   ar
   100    50    49    2
   101    10    11    1
   102    71    72    1
   103   127   128    1
   104    38    39    1
   105   123   122    1
   106    40    39    1
   107    40    41    2
   108    39    42    1
   109   129   128    1
   110   153   154    2
   111    11    12    1
   112    11    14    1
   113    13    12    2
   114    75    74    1
   115    17    15    1
   116    12    18   am
   117    72    73    1
   118    74    73    2
   119    74    76    1
   120    42    43    1
   121    43    44    1
   122    15    14    1
   123    15    16    1
   124    18    19    1
   125    22    19    1
   126   140   141    1
   127    19    20    1
   128   142   141    1
   129   142   143    2
   130   141   144    1
   131    46    45    1
   132    44    45    1
   133   120   119   ar
   134    20    21    2
   135   159   160    1
   136   113   114    1
   137   144   145    1
   138   160   163    1
   139   160   161    1
   140   117   114    1
   141   117   118    1
   142   145   146    1
   143   163   164    1
   144   119   118    1
   145   119   121   ar
   146   114   115    1
   147   115   116    2
   148   164   165    1
   149   161   162    2
   150   166   165    1
   151   166   167    1
   152   146   147    1
   153   149   148    1
   154   147   148    2
   155   148   150    1
   156   173   174    1
   157   173   172    1
   158   174   175    1
   159   168   169    1
   160   176   175    1
   161   169   172    1
   162   169   170    1
   163   170   171    2
