@<TRIPOS>MOLECULE
tmp/6ge7A00.pdb
 188 171 0 0 0
SMALL
GASTEIGER

@<TRIPOS>ATOM
      1  N          3.3960   54.4010   46.7040 N.3    12  ILE12      -0.1245
      2  CA         4.7150   54.5020   47.2590 C.3    12  ILE12       0.1561
      3  C          5.2380   55.9310   47.0570 C.2    12  ILE12       0.2260
      4  O          6.1090   56.3400   47.7820 O.2    12  ILE12      -0.2867
      5  CB         5.6740   53.4570   46.6540 C.3    12  ILE12       0.0252
      6  CG1        6.9470   53.2910   47.4930 C.3    12  ILE12       0.0019
      7  CG2        6.0290   53.8100   45.2160 C.3    12  ILE12       0.0019
      8  CD1        6.7180   52.8670   48.9450 C.3    12  ILE12       0.0001
      9  N          5.0550   58.2230   50.2750 N.3    15  VAL15      -0.1245
     10  CA         5.8410   58.0430   51.5300 C.3    15  VAL15       0.1561
     11  C          7.1500   58.8390   51.4390 C.2    15  VAL15       0.2260
     12  O          7.9500   58.7570   52.3420 O.2    15  VAL15      -0.2867
     13  CB         6.1330   56.5650   51.8880 C.3    15  VAL15       0.0252
     14  CG1        4.8810   55.7180   51.8760 C.3    15  VAL15       0.0019
     15  CG2        7.2120   55.9300   51.0320 C.3    15  VAL15       0.0019
     16  N         22.6470   45.1910   64.8980 N.3    38  PRO38      -0.2102
     17  CA        22.5070   45.2150   63.4580 C.3    38  PRO38       0.1504
     18  C         21.2190   45.8490   62.9040 C.2    38  PRO38       0.2575
     19  O         21.2570   46.3360   61.7700 O.2    38  PRO38      -0.2718
     20  CB        22.6370   43.7470   63.0150 C.3    38  PRO38       0.0282
     21  CG        22.3670   42.9500   64.2620 C.3    38  PRO38       0.0208
     22  CD        22.8330   43.8340   65.3980 C.3    38  PRO38       0.0893
     23  N         20.1080   45.8970   63.6340 N.am   39  LEU39      -0.1980
     24  CA        18.9010   46.5000   63.0380 C.3    39  LEU39       0.1596
     25  C         18.5130   47.7930   63.7540 C.2    39  LEU39       0.2287
     26  O         17.4310   48.3420   63.5360 O.2    39  LEU39      -0.2864
     27  CB        17.7630   45.4790   63.0580 C.3    39  LEU39       0.0297
     28  CG        17.9500   44.3010   62.1070 C.3    39  LEU39       0.0022
     29  CD1       16.6750   43.4710   62.0290 C.3    39  LEU39       0.0001
     30  CD2       18.3700   44.7820   60.7210 C.3    39  LEU39       0.0001
     31  N         18.6790   50.9970   63.2830 N.3    41  VAL41      -0.1245
     32  CA        18.7960   51.9210   62.1660 C.3    41  VAL41       0.1561
     33  C         17.7370   53.0180   62.3260 C.2    41  VAL41       0.2260
     34  O         16.5670   52.7530   62.6470 O.2    41  VAL41      -0.2867
     35  CB        18.6420   51.2100   60.8020 C.3    41  VAL41       0.0252
     36  CG1       19.8360   50.3300   60.4980 C.3    41  VAL41       0.0019
     37  CG2       17.3410   50.4140   60.7100 C.3    41  VAL41       0.0019
     38  N         15.7640   55.9660   60.6050 N.3    43  VAL43      -0.1245
     39  CA        15.3400   56.3860   59.3020 C.3    43  VAL43       0.1561
     40  C         15.3950   57.9160   59.2390 C.2    43  VAL43       0.2260
     41  O         15.0460   58.5960   60.2090 O.2    43  VAL43      -0.2867
     42  CB        13.9430   55.8520   58.9860 C.3    43  VAL43       0.0252
     43  CG1       13.4350   56.4130   57.6690 C.3    43  VAL43       0.0019
     44  CG2       13.9390   54.3320   58.9880 C.3    43  VAL43       0.0019
     45  N         12.8550   58.7530   52.9740 N.3    46  LEU46      -0.1245
     46  CA        12.4800   57.8290   51.8800 C.3    46  LEU46       0.1561
     47  C         12.4000   58.5830   50.5430 C.2    46  LEU46       0.2260
     48  O         11.7920   59.6450   50.4600 O.2    46  LEU46      -0.2867
     49  CB        11.1240   57.1950   52.2070 C.3    46  LEU46       0.0270
     50  CG        11.0710   56.4090   53.5170 C.3    46  LEU46       0.0019
     51  CD1        9.8080   55.5610   53.6000 C.3    46  LEU46       0.0001
     52  CD2       12.2970   55.5230   53.6680 C.3    46  LEU46       0.0001
     53  N         12.6180   52.1450   45.9470 N.3    54  LEU54      -0.1245
     54  CA        12.6300   53.0820   47.0520 C.3    54  LEU54       0.1561
     55  C         14.0460   53.2730   47.5950 C.2    54  LEU54       0.2260
     56  O         14.5550   52.3820   48.2710 O.2    54  LEU54      -0.2867
     57  CB        11.7230   52.5530   48.1630 C.3    54  LEU54       0.0270
     58  CG        11.5540   53.5440   49.3030 C.3    54  LEU54       0.0019
     59  CD1       10.7450   54.7360   48.8140 C.3    54  LEU54       0.0001
     60  CD2       10.9110   52.8870   50.5140 C.3    54  LEU54       0.0001
     61  N         16.5180   54.6260   50.3780 N.3    56  ILE56      -0.1245
     62  CA        16.4040   54.8540   51.8220 C.3    56  ILE56       0.1561
     63  C         17.7090   55.4680   52.3630 C.2    56  ILE56       0.2260
     64  O         18.8500   54.9410   52.1790 O.2    56  ILE56      -0.2867
     65  CB        16.0420   53.5610   52.5850 C.3    56  ILE56       0.0252
     66  CG1       14.7620   52.8900   52.0790 C.3    56  ILE56       0.0019
     67  CG2       15.9330   53.8550   54.0710 C.3    56  ILE56       0.0019
     68  CD1       14.5910   51.4550   52.5280 C.3    56  ILE56       0.0001
     69  N         19.4020   56.4930   55.9970 N.3    58  LEU58      -0.1245
     70  CA        19.2890   56.2250   57.4470 C.3    58  LEU58       0.1561
     71  C         20.6190   56.4560   58.1650 C.2    58  LEU58       0.2260
     72  O         21.6600   56.6300   57.5700 O.2    58  LEU58      -0.2867
     73  CB        18.8080   54.7840   57.6700 C.3    58  LEU58       0.0270
     74  CG        19.6870   53.6680   57.0940 C.3    58  LEU58       0.0019
     75  CD1       20.7630   53.2370   58.0790 C.3    58  LEU58       0.0001
     76  CD2       18.8450   52.4550   56.6870 C.3    58  LEU58       0.0001
     77  N         23.2330   54.7450   61.2220 N.3    60  LYS60      -0.1245
     78  CA        23.5400   53.5620   61.9850 C.3    60  LYS60       0.1561
     79  C         24.8690   53.7840   62.7110 C.2    60  LYS60       0.2260
     80  O         25.8280   54.3080   62.1140 O.2    60  LYS60      -0.2867
     81  CB        23.5700   52.3280   61.0770 C.3    60  LYS60       0.0271
     82  CG        24.3070   51.1500   61.6890 C.3    60  LYS60       0.0035
     83  CD        23.8410   49.7770   61.2540 C.3    60  LYS60       0.0206
     84  CE        24.3510   48.7000   62.1940 C.3    60  LYS60       0.1093
     85  NZ        24.0790   49.0220   63.6230 N.3    60  LYS60      -0.1314
     86  N         28.2850   52.7180   63.9940 N.3    62  GLU62      -0.1245
     87  CA        29.3010   51.7050   63.7820 C.3    62  GLU62       0.1567
     88  C         30.6930   52.3110   63.9750 C.2    62  GLU62       0.2260
     89  O         30.9610   53.4490   63.5750 O.2    62  GLU62      -0.2867
     90  CB        29.1370   51.0650   62.4030 C.3    62  GLU62       0.0388
     91  CG        29.1320   52.0630   61.2610 C.3    62  GLU62       0.1160
     92  CD        28.9560   51.4150   59.9000 C.2    62  GLU62       0.3649
     93  OE1       28.0770   50.5190   59.7770 O.co2  62  GLU62      -0.2457
     94  OE2       29.6960   51.8060   58.9660 O.co2  62  GLU62      -0.2457
     95  N         23.9340   56.1170   55.9840 N.3    69  LYS69      -0.1231
     96  CA        23.9190   54.9940   55.0630 C.3    69  LYS69       0.1693
     97  C         22.8510   55.2470   53.9990 C.2    69  LYS69       0.2592
     98  O         21.8130   55.8300   54.2930 O.2    69  LYS69      -0.2718
     99  CB        23.5610   53.6830   55.7680 C.3    69  LYS69       0.0285
    100  CG        24.4800   53.2570   56.9010 C.3    69  LYS69       0.0035
    101  CD        25.7580   52.6010   56.4410 C.3    69  LYS69       0.0206
    102  CE        26.4630   51.8190   57.5330 C.3    69  LYS69       0.1093
    103  NZ        27.6930   51.1600   57.0270 N.3    69  LYS69      -0.1314
    104  N         23.1240   54.8060   52.7750 N.am   70  LYS70      -0.1966
    105  CA        22.1230   54.7730   51.7320 C.3    70  LYS70       0.1728
    106  C         21.8850   53.3090   51.3460 C.2    70  LYS70       0.2616
    107  O         22.8360   52.5240   51.2880 O.2    70  LYS70      -0.2715
    108  CB        22.5600   55.6110   50.5280 C.3    70  LYS70       0.0311
    109  CG        21.5310   55.6850   49.4080 C.3    70  LYS70       0.0038
    110  CD        22.0840   56.1890   48.0910 C.3    70  LYS70       0.0206
    111  CE        22.5330   57.6360   48.1590 C.3    70  LYS70       0.1093
    112  NZ        22.9430   58.1360   46.8210 N.3    70  LYS70      -0.1314
    113  N         20.6160   52.9980   51.0640 N.am   71  ILE71      -0.1977
    114  CA        20.1040   51.6360   50.8800 C.3    71  ILE71       0.1596
    115  C         19.0000   51.6540   49.8040 C.2    71  ILE71       0.2287
    116  O         18.1870   52.5840   49.7600 O.2    71  ILE71      -0.2864
    117  CB        19.6180   51.0860   52.2420 C.3    71  ILE71       0.0276
    118  CG1       20.7530   50.3850   52.9960 C.3    71  ILE71       0.0022
    119  CG2       18.4160   50.1680   52.0910 C.3    71  ILE71       0.0022
    120  CD1       21.1330   49.0210   52.4250 C.3    71  ILE71       0.0001
    121  N          8.9320   45.1810   49.4090 N.3    82  PHE82      -0.1241
    122  CA        10.1940   45.5850   48.7590 C.3    82  PHE82       0.1605
    123  C         11.3210   44.6390   49.1830 C.2    82  PHE82       0.2264
    124  O         11.2070   44.0130   50.2140 O.2    82  PHE82      -0.2867
    125  CB        10.5550   47.0230   49.1400 C.3    82  PHE82       0.0534
    126  CG         9.5760   48.0070   48.5700 C.ar   82  PHE82      -0.0203
    127  CD1        8.3500   48.2140   49.1800 C.ar   82  PHE82      -0.0042
    128  CD2        9.8330   48.6330   47.3560 C.ar   82  PHE82      -0.0042
    129  CE1        7.4050   49.0410   48.5870 C.ar   82  PHE82      -0.0003
    130  CE2        8.9060   49.4970   46.7960 C.ar   82  PHE82      -0.0003
    131  CZ         7.6780   49.6680   47.3920 C.ar   82  PHE82      -0.0000
    132  N         15.5380   44.3650   49.9350 N.3    84  ILE84      -0.1245
    133  CA        16.7760   45.0970   50.1440 C.3    84  ILE84       0.1561
    134  C         17.8810   44.4680   49.2800 C.2    84  ILE84       0.2260
    135  O         18.8500   45.1410   48.9220 O.2    84  ILE84      -0.2867
    136  CB        17.1620   45.1540   51.6360 C.3    84  ILE84       0.0252
    137  CG1       16.1190   45.8960   52.4820 C.3    84  ILE84       0.0019
    138  CG2       18.5470   45.7560   51.8080 C.3    84  ILE84       0.0019
    139  CD1       15.6600   47.2340   51.9230 C.3    84  ILE84       0.0001
    140  N         10.9820   43.8870   53.0730 N.3    92  VAL92      -0.1245
    141  CA        10.4120   44.9590   53.8440 C.3    92  VAL92       0.1561
    142  C          8.9410   45.0740   53.4740 C.2    92  VAL92       0.2260
    143  O          8.6380   45.1690   52.3100 O.2    92  VAL92      -0.2867
    144  CB        11.1240   46.2940   53.5760 C.3    92  VAL92       0.0252
    145  CG1       10.4230   47.4260   54.2980 C.3    92  VAL92       0.0019
    146  CG2       12.5910   46.2360   53.9470 C.3    92  VAL92       0.0019
    147  N          5.2080   47.1100   54.1600 N.3    94  VAL94      -0.1245
    148  CA         4.4850   48.2120   54.7440 C.3    94  VAL94       0.1561
    149  C          3.1380   47.6870   55.2400 C.2    94  VAL94       0.2260
    150  O          2.3260   47.2690   54.4150 O.2    94  VAL94      -0.2867
    151  CB         4.2590   49.3520   53.7410 C.3    94  VAL94       0.0252
    152  CG1        3.4650   50.4940   54.3610 C.3    94  VAL94       0.0019
    153  CG2        5.5710   49.8540   53.1580 C.3    94  VAL94       0.0019
    154  N          3.8760   55.6780   59.5760 N.3   103  LEU103     -0.1245
    155  CA         4.0190   54.5150   58.7300 C.3   103  LEU103      0.1561
    156  C          4.5630   53.3670   59.5800 C.2   103  LEU103      0.2260
    157  O          5.5730   53.4950   60.2540 O.2   103  LEU103     -0.2867
    158  CB         4.9590   54.8310   57.5590 C.3   103  LEU103      0.0270
    159  CG         5.1530   53.6960   56.5400 C.3   103  LEU103      0.0019
    160  CD1        5.3130   54.2400   55.1130 C.3   103  LEU103      0.0001
    161  CD2        6.3400   52.8060   56.9170 C.3   103  LEU103      0.0001
    162  N          6.2510   49.6400   59.4160 N.3   105  PHE105     -0.1241
    163  CA         6.8210   48.6070   58.5650 C.3   105  PHE105      0.1605
    164  C          7.4850   47.5080   59.3940 C.2   105  PHE105      0.2264
    165  O          7.9070   47.7380   60.5010 O.2   105  PHE105     -0.2867
    166  CB         7.8320   49.2150   57.5900 C.3   105  PHE105      0.0534
    167  CG         9.2000   49.5110   58.1440 C.ar  105  PHE105     -0.0203
    168  CD1       10.1970   48.5570   58.1220 C.ar  105  PHE105     -0.0042
    169  CD2        9.5210   50.7750   58.6190 C.ar  105  PHE105     -0.0042
    170  CE1       11.4700   48.8490   58.6040 C.ar  105  PHE105     -0.0003
    171  CE2       10.7890   51.0710   59.1020 C.ar  105  PHE105     -0.0003
    172  CZ        11.7590   50.1010   59.1120 C.ar  105  PHE105     -0.0000
    173  N         10.3850   44.0600   58.7030 N.3   107  MET107     -0.1245
    174  CA        11.3590   43.4910   57.8280 C.3   107  MET107      0.1570
    175  C         11.6660   42.0720   58.2950 C.2   107  MET107      0.2261
    176  O         11.7580   41.8370   59.4760 O.2   107  MET107     -0.2867
    177  CB        12.6410   44.3230   57.8860 C.3   107  MET107      0.0387
    178  CG        13.6920   43.8860   56.8690 C.3   107  MET107      0.0595
    179  SD        15.2960   44.7370   57.0180 S.3   107  MET107     -0.1393
    180  CE        15.1700   45.3110   58.7130 C.3   107  MET107      0.0692
    181  N          7.3770   54.6880   62.2020 N.3   122  LEU122     -0.1245
    182  CA         7.8800   55.9670   61.6790 C.3   122  LEU122      0.1561
    183  C          6.7950   57.0170   61.8220 C.2   122  LEU122      0.2260
    184  O          5.6030   56.7330   61.5810 O.2   122  LEU122     -0.2867
    185  CB         8.2430   55.8430   60.1980 C.3   122  LEU122      0.0270
    186  CG         9.2370   54.7340   59.8810 C.3   122  LEU122      0.0019
    187  CD1        9.5930   54.7500   58.4030 C.3   122  LEU122      0.0001
    188  CD2       10.4900   54.8810   60.7500 C.3   122  LEU122      0.0001
@<TRIPOS>BOND
     1     7     5    1
     2    53    54    1
     3     5     2    1
     4     5     6    1
     5     1     2    1
     6   130   128   ar
     7   130   131   ar
     8   112   111    1
     9    54    55    1
    10    54    57    1
    11     3     2    1
    12     3     4    2
    13   128   126   ar
    14   131   129   ar
    15     6     8    1
    16    55    56    2
    17   110   111    1
    18   110   109    1
    19    57    58    1
    20   126   125    1
    21   126   127   ar
    22   129   127   ar
    23   122   125    1
    24   122   123    1
    25   122   121    1
    26    59    58    1
    27   135   134    2
    28   123   124    2
    29   134   133    1
    30    58    60    1
    31   109   108    1
    32   116   115    2
    33   115   114    1
    34   132   133    1
    35   133   136    1
    36     9    10    1
    37    61    62    1
    38    48    47    2
    39   108   105    1
    40    47    46    1
    41   114   113    1
    42   114   117    1
    43    15    13    1
    44   113   106   am
    45   107   106    2
    46   106   105    1
    47    11    10    1
    48    11    12    2
    49    10    13    1
    50   136   138    1
    51   136   137    1
    52   105   104    1
    53    62    63    1
    54    62    65    1
    55    14    13    1
    56    46    49    1
    57    46    45    1
    58   139   137    1
    59    66    68    1
    60    66    65    1
    61   119   117    1
    62    64    63    2
    63    49    50    1
    64   117   118    1
    65   143   142    2
    66   120   118    1
    67    65    67    1
    68   104    97   am
    69   140   141    1
    70   153   151    1
    71   142   141    1
    72    50    51    1
    73    50    52    1
    74   144   141    1
    75   144   146    1
    76   144   145    1
    77   151   152    1
    78   151   148    1
    79    97    98    2
    80    97    96    1
    81   147   148    1
    82   150   149    2
    83   148   149    1
    84    96    99    1
    85    96    95    1
    86   160   159    1
    87    99   100    1
    88    69    70    1
    89   101   100    1
    90   101   102    1
    91   159   161    1
    92   159   158    1
    93    76    74    1
    94   178   179    1
    95   178   177    1
    96   179   180    1
    97   103   102    1
    98    74    73    1
    99    74    75    1
   100    70    73    1
   101    70    71    1
   102   158   155    1
   103    72    71    2
   104   166   167    1
   105   166   163    1
   106    43    42    1
   107   174   177    1
   108   174   175    1
   109   174   173    1
   110   168   167   ar
   111   168   170   ar
   112   167   169   ar
   113   175   176    2
   114   187   186    1
   115   163   164    1
   116   163   162    1
   117   170   172   ar
   118   169   171   ar
   119   155   154    1
   120   155   156    1
   121    94    92   ar
   122    42    44    1
   123    42    39    1
   124   171   172   ar
   125    40    39    1
   126    40    41    2
   127    39    38    1
   128   164   165    2
   129   156   157    2
   130    93    92   ar
   131   186   185    1
   132   186   188    1
   133    92    91    1
   134   185   182    1
   135    36    35    1
   136    37    35    1
   137    30    28    1
   138    35    32    1
   139    81    82    1
   140    81    78    1
   141    77    78    1
   142    83    82    1
   143    83    84    1
   144    91    90    1
   145   184   183    2
   146   182   183    1
   147   182   181    1
   148    19    18    2
   149    78    79    1
   150    29    28    1
   151    28    27    1
   152    80    79    2
   153    32    33    1
   154    32    31    1
   155    84    85    1
   156    33    34    2
   157    90    87    1
   158    18    17    1
   159    18    23   am
   160    20    17    1
   161    20    21    1
   162    24    27    1
   163    24    23    1
   164    24    25    1
   165    17    16    1
   166    26    25    2
   167    89    88    2
   168    87    88    1
   169    87    86    1
   170    21    22    1
   171    16    22    1
