@<TRIPOS>MOLECULE
tmp/6geiA00.pdb
 171 158 0 0 0
SMALL
GASTEIGER

@<TRIPOS>ATOM
      1  N         -1.2690   -7.3740   29.6730 N.3    14  PHE14      -0.1241
      2  CA        -0.7270   -6.3130   28.8360 C.3    14  PHE14       0.1605
      3  C         -1.6360   -5.1060   28.9890 C.2    14  PHE14       0.2264
      4  O         -2.8460   -5.2160   28.8020 O.2    14  PHE14      -0.2867
      5  CB        -0.6610   -6.7520   27.3680 C.3    14  PHE14       0.0534
      6  CG        -0.0940   -5.7070   26.4370 C.ar   14  PHE14      -0.0203
      7  CD1       -0.9140   -4.7200   25.8930 C.ar   14  PHE14      -0.0042
      8  CD2        1.2530   -5.7180   26.0950 C.ar   14  PHE14      -0.0042
      9  CE1       -0.3980   -3.7560   25.0350 C.ar   14  PHE14      -0.0003
     10  CE2        1.7810   -4.7570   25.2320 C.ar   14  PHE14      -0.0003
     11  CZ         0.9520   -3.7750   24.7000 C.ar   14  PHE14      -0.0000
     12  N         -1.6110   -0.5630   28.3690 N.3    16  ALA16      -0.1245
     13  CA        -1.0240    0.7450   28.1330 C.3    16  ALA16       0.1562
     14  C         -1.9370    1.7680   28.7890 C.2    16  ALA16       0.2260
     15  O         -3.1600    1.6980   28.6440 O.2    16  ALA16      -0.2867
     16  CB        -0.8880    1.0150   26.6430 C.3    16  ALA16       0.0290
     17  N         -5.7650    2.6940   28.0290 N.3    32  PHE32      -0.1227
     18  CA        -6.0190    2.8060   26.5900 C.3    32  PHE32       0.1736
     19  C         -6.4190    1.4530   26.0100 C.2    32  PHE32       0.2595
     20  O         -7.3850    1.3500   25.2520 O.2    32  PHE32      -0.2718
     21  CB        -4.7790    3.3280   25.8510 C.3    32  PHE32       0.0547
     22  CG        -4.4140    4.7490   26.1850 C.ar   32  PHE32      -0.0202
     23  CD1       -5.1780    5.8140   25.7130 C.ar   32  PHE32      -0.0042
     24  CD2       -3.2870    5.0250   26.9530 C.ar   32  PHE32      -0.0042
     25  CE1       -4.8350    7.1310   26.0180 C.ar   32  PHE32      -0.0003
     26  CE2       -2.9350    6.3400   27.2630 C.ar   32  PHE32      -0.0003
     27  CZ        -3.7130    7.3930   26.7960 C.ar   32  PHE32      -0.0000
     28  N         -5.6440    0.4260   26.3610 N.am   33  VAL33      -0.1980
     29  CA        -5.8710   -0.9550   25.9350 C.3    33  VAL33       0.1595
     30  C         -5.4880   -1.8810   27.0890 C.2    33  VAL33       0.2287
     31  O         -4.6340   -1.5310   27.9110 O.2    33  VAL33      -0.2864
     32  CB        -5.0450   -1.3320   24.6650 C.3    33  VAL33       0.0276
     33  CG1       -5.4950   -0.5230   23.4480 C.3    33  VAL33       0.0022
     34  CG2       -3.5400   -1.1570   24.9020 C.3    33  VAL33       0.0022
     35  N         -9.2110    0.8520   21.0520 N.3    85  ALA85      -0.1245
     36  CA        -8.5770    1.6620   22.0870 C.3    85  ALA85       0.1562
     37  C         -9.5240    2.6990   22.6750 C.2    85  ALA85       0.2260
     38  O        -10.3010    3.3290   21.9490 O.2    85  ALA85      -0.2867
     39  CB        -7.3360    2.3350   21.5340 C.3    85  ALA85       0.0290
     40  N         -9.8110    6.1850   24.0340 N.3    87  LEU87      -0.1245
     41  CA        -9.1040    7.4620   23.9780 C.3    87  LEU87       0.1561
     42  C         -9.7670    8.5610   24.8140 C.2    87  LEU87       0.2260
     43  O         -9.3170    9.7080   24.8050 O.2    87  LEU87      -0.2867
     44  CB        -8.9480    7.9260   22.5220 C.3    87  LEU87       0.0270
     45  CG        -8.1120    7.0780   21.5570 C.3    87  LEU87       0.0019
     46  CD1       -8.0540    7.7540   20.1950 C.3    87  LEU87       0.0001
     47  CD2       -6.7050    6.8220   22.0840 C.3    87  LEU87       0.0001
     48  N          3.4930    1.3620   29.9070 N.3    97  VAL97      -0.1245
     49  CA         3.0260    0.0560   29.4580 C.3    97  VAL97       0.1561
     50  C          3.5180   -1.0170   30.4300 C.2    97  VAL97       0.2260
     51  O          4.6770   -1.0110   30.8510 O.2    97  VAL97      -0.2867
     52  CB         3.4180   -0.2450   27.9700 C.3    97  VAL97       0.0252
     53  CG1        4.9270   -0.2070   27.7600 C.3    97  VAL97       0.0019
     54  CG2        2.8310   -1.5750   27.4970 C.3    97  VAL97       0.0019
     55  N          9.7250   -4.1610   20.8920 N.3   113  THR113     -0.1218
     56  CA         8.4740   -3.5720   20.4210 C.3   113  THR113      0.1862
     57  C          8.7800   -2.5410   19.3510 C.2   113  THR113      0.2287
     58  O          9.5000   -1.5730   19.5900 O.2   113  THR113     -0.2866
     59  CB         7.6360   -2.9430   21.5580 C.3   113  THR113      0.1770
     60  OG1        8.4680   -2.1130   22.3750 O.3   113  THR113     -0.2211
     61  CG2        6.9950   -4.0300   22.4180 C.3   113  THR113      0.0375
     62  N          7.2210    0.1240   16.6160 N.3   115  VAL115     -0.1245
     63  CA         6.0870    0.9330   16.1970 C.3   115  VAL115      0.1561
     64  C          6.2860    1.2250   14.7180 C.2   115  VAL115      0.2260
     65  O          7.3720    1.6410   14.3080 O.2   115  VAL115     -0.2867
     66  CB         5.9980    2.2500   16.9980 C.3   115  VAL115      0.0252
     67  CG1        4.7730    3.0370   16.5910 C.3   115  VAL115      0.0019
     68  CG2        5.9670    1.9710   18.4960 C.3   115  VAL115      0.0019
     69  N         10.1620    3.4160   15.3660 N.3   123  VAL123     -0.1245
     70  CA        10.9520    3.3110   16.5870 C.3   123  VAL123      0.1561
     71  C         10.9240    1.8770   17.1210 C.2   123  VAL123      0.2260
     72  O          9.9700    1.1300   16.8790 O.2   123  VAL123     -0.2867
     73  CB        10.4950    4.3600   17.6600 C.3   123  VAL123      0.0252
     74  CG1        9.0890    4.0690   18.1710 C.3   123  VAL123      0.0019
     75  CG2       11.4920    4.4570   18.8150 C.3   123  VAL123      0.0019
     76  N         11.7170   -0.2620   20.8430 N.3   125  LYS125     -0.1245
     77  CA        12.0480   -0.3010   22.2590 C.3   125  LYS125      0.1561
     78  C         12.4150   -1.7430   22.6070 C.2   125  LYS125      0.2260
     79  O         11.6730   -2.6750   22.2850 O.2   125  LYS125     -0.2867
     80  CB        10.8700    0.2210   23.0870 C.3   125  LYS125      0.0271
     81  CG        10.9150   -0.0560   24.5880 C.3   125  LYS125      0.0035
     82  CD        10.2780    1.0650   25.4450 C.3   125  LYS125      0.0206
     83  CE         9.1600    1.8710   24.7560 C.3   125  LYS125      0.1093
     84  NZ         8.0930    1.0660   24.0710 N.3   125  LYS125     -0.1314
     85  N          6.1810    4.8600   28.0230 N.3   147  LEU147     -0.1231
     86  CA         5.8250    4.9490   26.6130 C.3   147  LEU147      0.1693
     87  C          6.7610    5.9400   25.9440 C.2   147  LEU147      0.2592
     88  O          7.0360    7.0130   26.4860 O.2   147  LEU147     -0.2718
     89  CB         4.3700    5.3880   26.4240 C.3   147  LEU147      0.0284
     90  CG         3.2830    4.3580   26.7340 C.3   147  LEU147      0.0019
     91  CD1        1.9330    4.8510   26.2370 C.3   147  LEU147      0.0001
     92  CD2        3.6230    3.0140   26.1130 C.3   147  LEU147      0.0001
     93  N          7.2670    5.5620   24.7730 N.am  148  CYS148     -0.1970
     94  CA         8.2060    6.4090   24.0400 C.3   148  CYS148      0.1712
     95  C          7.5270    7.6960   23.5820 C.2   148  CYS148      0.2296
     96  O          6.3000    7.7520   23.4450 O.2   148  CYS148     -0.2864
     97  CB         8.8200    5.6610   22.8520 C.3   148  CYS148      0.0983
     98  SG         7.6740    5.2570   21.5270 S.3   148  CYS148     -0.0798
     99  N          5.0180    7.7210   20.6750 N.3   151  MET151     -0.1245
    100  CA         3.6890    7.2410   21.0270 C.3   151  MET151      0.1570
    101  C          2.8640    8.2910   21.7580 C.2   151  MET151      0.2261
    102  O          1.6590    8.4150   21.5230 O.2   151  MET151     -0.2867
    103  CB         3.7880    5.9590   21.8530 C.3   151  MET151      0.0387
    104  CG         4.0480    4.7160   21.0200 C.3   151  MET151      0.0595
    105  SD         2.8770    4.5280   19.6680 S.3   151  MET151     -0.1393
    106  CE         1.3170    4.4610   20.5570 C.3   151  MET151      0.0692
    107  N          1.8580   10.7420   19.1370 N.3   154  PHE154     -0.1227
    108  CA         0.8280   10.1170   18.3130 C.3   154  PHE154      0.1736
    109  C         -0.5450   10.2020   18.9820 C.2   154  PHE154      0.2595
    110  O         -1.5340   10.5700   18.3430 O.2   154  PHE154     -0.2718
    111  CB         1.2010    8.6570   18.0320 C.3   154  PHE154      0.0547
    112  CG         0.2880    7.9720   17.0580 C.ar  154  PHE154     -0.0202
    113  CD1        0.5160    8.0580   15.6880 C.ar  154  PHE154     -0.0042
    114  CD2       -0.7980    7.2260   17.5140 C.ar  154  PHE154     -0.0042
    115  CE1       -0.3330    7.4190   14.7850 C.ar  154  PHE154     -0.0003
    116  CE2       -1.6460    6.5840   16.6210 C.ar  154  PHE154     -0.0003
    117  CZ        -1.4190    6.6880   15.2570 C.ar  154  PHE154     -0.0000
    118  N         -0.5940    9.8740   20.2710 N.am  155  ILE155     -0.1980
    119  CA        -1.8450    9.9320   21.0380 C.3   155  ILE155      0.1595
    120  C         -2.3940   11.3600   21.1110 C.2   155  ILE155      0.2287
    121  O         -3.6050   11.5700   20.9680 O.2   155  ILE155     -0.2864
    122  CB        -1.6760    9.3300   22.4540 C.3   155  ILE155      0.0276
    123  CG1       -1.4790    7.8140   22.3490 C.3   155  ILE155      0.0022
    124  CG2       -2.8870    9.6550   23.3370 C.3   155  ILE155      0.0022
    125  CD1       -0.9320    7.1540   23.6090 C.3   155  ILE155      0.0001
    126  N         -3.8400   12.2260   17.6940 N.3   158  LEU158     -0.1245
    127  CA        -5.1060   11.5070   17.5210 C.3   158  LEU158      0.1561
    128  C         -6.2690   12.2320   18.1850 C.2   158  LEU158      0.2260
    129  O         -7.3280   12.4010   17.5810 O.2   158  LEU158     -0.2867
    130  CB        -5.0180   10.0950   18.1020 C.3   158  LEU158      0.0270
    131  CG        -4.5220    8.9170   17.2710 C.3   158  LEU158      0.0019
    132  CD1       -4.6540    7.6590   18.1170 C.3   158  LEU158      0.0001
    133  CD2       -5.2990    8.7600   15.9630 C.3   158  LEU158      0.0001
    134  N         -5.3270    5.2450   12.1220 N.3   171  LEU171     -0.1245
    135  CA        -4.9870    3.9970   12.8130 C.3   171  LEU171      0.1561
    136  C         -4.8120    2.7890   11.9020 C.2   171  LEU171      0.2260
    137  O         -4.1150    1.8390   12.2590 O.2   171  LEU171     -0.2867
    138  CB        -6.0060    3.6860   13.9100 C.3   171  LEU171      0.0270
    139  CG        -5.8400    4.4950   15.1960 C.3   171  LEU171      0.0019
    140  CD1       -6.9480    4.1560   16.1740 C.3   171  LEU171      0.0001
    141  CD2       -4.4660    4.2680   15.8270 C.3   171  LEU171      0.0001
    142  N         -1.1850    2.4530   11.3130 N.3   174  PHE174     -0.1241
    143  CA        -0.3750    2.4320   12.5150 C.3   174  PHE174      0.1605
    144  C         -0.4100    1.0240   13.0880 C.2   174  PHE174      0.2264
    145  O         -1.4850    0.4930   13.3670 O.2   174  PHE174     -0.2867
    146  CB        -0.9210    3.4390   13.5340 C.3   174  PHE174      0.0534
    147  CG        -0.3070    3.3190   14.8980 C.ar  174  PHE174     -0.0203
    148  CD1        0.8960    3.9500   15.1890 C.ar  174  PHE174     -0.0042
    149  CD2       -0.9330    2.5770   15.8960 C.ar  174  PHE174     -0.0042
    150  CE1        1.4640    3.8420   16.4470 C.ar  174  PHE174     -0.0003
    151  CE2       -0.3640    2.4620   17.1630 C.ar  174  PHE174     -0.0003
    152  CZ         0.8340    3.0930   17.4330 C.ar  174  PHE174     -0.0000
    153  N          1.8840   -2.0470   15.6910 N.3   176  ILE176     -0.1245
    154  CA         2.9510   -2.3670   16.6340 C.3   176  ILE176      0.1561
    155  C          3.2700   -3.8570   16.5310 C.2   176  ILE176      0.2260
    156  O          2.3620   -4.6920   16.5180 O.2   176  ILE176     -0.2867
    157  CB         2.5580   -1.9940   18.0850 C.3   176  ILE176      0.0252
    158  CG1        2.3470   -0.4770   18.2050 C.3   176  ILE176      0.0019
    159  CG2        3.6250   -2.4640   19.0710 C.3   176  ILE176      0.0019
    160  CD1        1.7310   -0.0180   19.5110 C.3   176  ILE176      0.0001
    161  N         -5.1580   -1.5630   15.3340 N.3   196  PHE196     -0.1241
    162  CA        -5.9680   -0.6670   16.1580 C.3   196  PHE196      0.1605
    163  C         -7.1640   -0.0090   15.4740 C.2   196  PHE196      0.2264
    164  O         -7.1110    0.3270   14.2900 O.2   196  PHE196     -0.2867
    165  CB        -5.0790    0.4500   16.7210 C.3   196  PHE196      0.0534
    166  CG        -3.9710   -0.0400   17.6170 C.ar  196  PHE196     -0.0203
    167  CD1       -2.7470   -0.4350   17.0790 C.ar  196  PHE196     -0.0042
    168  CD2       -4.1470   -0.0890   18.9970 C.ar  196  PHE196     -0.0042
    169  CE1       -1.7210   -0.8870   17.9040 C.ar  196  PHE196     -0.0003
    170  CE2       -3.1280   -0.5390   19.8350 C.ar  196  PHE196     -0.0003
    171  CZ        -1.9090   -0.9380   19.2830 C.ar  196  PHE196     -0.0000
@<TRIPOS>BOND
     1   142   143    1
     2   136   137    2
     3   136   135    1
     4   134   135    1
     5   143   144    1
     6   143   146    1
     7   135   138    1
     8   144   145    2
     9   146   147    1
    10   138   139    1
    11   164   163    2
    12    65    64    2
    13    64    63    1
    14   115   117   ar
    15   115   113   ar
    16   147   148   ar
    17   147   149   ar
    18   148   150   ar
    19   139   141    1
    20   139   140    1
    21   117   116   ar
    22   161   162    1
    23    69    70    1
    24   163   162    1
    25   113   112   ar
    26   153   154    1
    27   149   151   ar
    28   133   131    1
    29   162   165    1
    30    63    62    1
    31    63    66    1
    32   150   152   ar
    33   156   155    2
    34   155   154    1
    35    70    71    1
    36    70    73    1
    37    67    66    1
    38   116   114   ar
    39   154   157    1
    40   165   166    1
    41    72    71    2
    42    66    68    1
    43   112   114   ar
    44   112   111    1
    45   167   166   ar
    46   167   169   ar
    47   151   152   ar
    48   131   130    1
    49   131   132    1
    50   127   126    1
    51   127   130    1
    52   127   128    1
    53   129   128    2
    54   166   168   ar
    55    73    74    1
    56    73    75    1
    57   169   171   ar
    58   111   108    1
    59   157   158    1
    60   157   159    1
    61   158   160    1
    62   108   109    1
    63   108   107    1
    64   110   109    2
    65   109   118   am
    66   168   170   ar
    67   171   170   ar
    68    57    58    2
    69    57    56    1
    70   105   106    1
    71   105   104    1
    72    46    45    1
    73   118   119    1
    74    56    55    1
    75    56    59    1
    76    99   100    1
    77    76    77    1
    78   121   120    2
    79   104   103    1
    80   100   101    1
    81   100   103    1
    82   119   120    1
    83   119   122    1
    84    35    36    1
    85   102   101    2
    86    98    97    1
    87    39    36    1
    88    45    47    1
    89    45    44    1
    90    59    60    1
    91    59    61    1
    92    38    37    2
    93    36    37    1
    94    77    78    1
    95    77    80    1
    96    79    78    2
    97   123   122    1
    98   123   125    1
    99   122   124    1
   100    44    41    1
   101    97    94    1
   102    80    81    1
   103    96    95    2
   104    33    32    1
   105    95    94    1
   106    41    40    1
   107    41    42    1
   108    94    93    1
   109    84    83    1
   110    81    82    1
   111    32    34    1
   112    32    29    1
   113    11     9   ar
   114    11    10   ar
   115    83    82    1
   116    93    87   am
   117    43    42    2
   118     9     7   ar
   119    10     8   ar
   120    20    19    2
   121    23    25   ar
   122    23    22   ar
   123    21    22    1
   124    21    18    1
   125     7     6   ar
   126    29    28    1
   127    29    30    1
   128    87    88    2
   129    87    86    1
   130    19    28   am
   131    19    18    1
   132    25    27   ar
   133     8     6   ar
   134    92    90    1
   135    22    24   ar
   136    91    90    1
   137    89    86    1
   138    89    90    1
   139     6     5    1
   140    18    17    1
   141    86    85    1
   142    16    13    1
   143    27    26   ar
   144    24    26   ar
   145    30    31    2
   146     5     2    1
   147    54    52    1
   148    53    52    1
   149    52    49    1
   150    13    12    1
   151    13    14    1
   152    15    14    2
   153     4     3    2
   154     2     3    1
   155     2     1    1
   156    49    48    1
   157    49    50    1
   158    50    51    2
