@<TRIPOS>MOLECULE
tmp/6gejL00.pdb
 193 184 0 0 0
SMALL
GASTEIGER

@<TRIPOS>ATOM
      1  N        200.1750  144.5920  248.8750 N.3    14  ASN14      -0.1225
      2  CA       200.9280  143.3500  248.7740 C.3    14  ASN14       0.1785
      3  C        202.4080  143.6360  248.5590 C.2    14  ASN14       0.2597
      4  O        202.7760  144.5080  247.7670 O.2    14  ASN14      -0.2718
      5  CB       200.3920  142.4780  247.6370 C.3    14  ASN14       0.1169
      6  CG       199.0380  141.8750  247.9570 C.2    14  ASN14       0.2627
      7  OD1      198.7120  141.6360  249.1190 O.2    14  ASN14      -0.2716
      8  ND2      198.2420  141.6250  246.9240 N.am   14  ASN14      -0.0877
      9  N        203.2530  142.8960  249.2740 N.am   15  LEU15      -0.1966
     10  CA       204.6990  143.0180  249.1750 C.3    15  LEU15       0.1728
     11  C        205.3010  141.7040  248.6950 C.2    15  LEU15       0.2616
     12  O        204.7100  140.6310  248.8480 O.2    15  LEU15      -0.2715
     13  CB       205.3190  143.4340  250.5200 C.3    15  LEU15       0.0311
     14  CG       204.8010  142.8050  251.8180 C.3    15  LEU15       0.0022
     15  CD1      205.3190  141.3870  252.0200 C.3    15  LEU15       0.0001
     16  CD2      205.1650  143.6820  253.0070 C.3    15  LEU15       0.0001
     17  N        206.4920  141.8000  248.1120 N.am   16  ARG16      -0.1977
     18  CA       207.1640  140.6470  247.5330 C.3    16  ARG16       0.1597
     19  C        208.0410  139.9680  248.5860 C.2    16  ARG16       0.2287
     20  O        208.0050  140.3060  249.7720 O.2    16  ARG16      -0.2864
     21  CB       207.9590  141.0720  246.3000 C.3    16  ARG16       0.0334
     22  CG       207.1000  141.6990  245.2130 C.3    16  ARG16       0.0492
     23  CD       207.9070  142.0200  243.9660 C.3    16  ARG16       0.2205
     24  NE       207.0700  142.6060  242.9220 N.pl3  16  ARG16      -0.0865
     25  CZ       207.5080  142.9450  241.7140 C.cat  16  ARG16       0.5346
     26  NH1      206.6730  143.4720  240.8280 N.pl3  16  ARG16       0.1354
     27  NH2      208.7790  142.7560  241.3900 N.pl3  16  ARG16       0.1354
     28  N        211.3560  142.1570  249.7780 N.3    19  GLN19      -0.1245
     29  CA       210.9470  143.2530  250.6510 C.3    19  GLN19       0.1566
     30  C        210.5230  142.7380  252.0210 C.2    19  GLN19       0.2260
     31  O        210.8240  143.3690  253.0450 O.2    19  GLN19      -0.2867
     32  CB       209.8100  144.0450  250.0030 C.3    19  GLN19       0.0367
     33  CG       210.1530  144.6330  248.6400 C.3    19  GLN19       0.0905
     34  CD       208.9770  145.3450  247.9960 C.2    19  GLN19       0.2608
     35  OE1      207.8630  145.3280  248.5190 O.2    19  GLN19      -0.2717
     36  NE2      209.2220  145.9770  246.8530 N.am   19  GLN19      -0.0878
     37  N        217.4910  151.1140  243.6630 N.3    42  MET42      -0.1230
     38  CA       216.3620  151.9580  243.2990 C.3    42  MET42       0.1702
     39  C        215.3850  151.2010  242.4090 C.2    42  MET42       0.2593
     40  O        215.7740  150.5990  241.4040 O.2    42  MET42      -0.2718
     41  CB       216.8680  153.2180  242.5990 C.3    42  MET42       0.0401
     42  CG       218.0200  152.9620  241.6440 C.3    42  MET42       0.0596
     43  SD       219.1940  154.3290  241.5850 S.3    42  MET42      -0.1393
     44  CE       219.9220  154.2150  243.2160 C.3    42  MET42       0.0692
     45  N        214.1080  151.2320  242.7880 N.am   43  GLY43      -0.1942
     46  CA       213.0750  150.4730  242.1220 C.3    43  GLY43       0.2014
     47  C        212.5840  149.2670  242.8930 C.2    43  GLY43       0.2639
     48  O        211.6090  148.6350  242.4680 O.2    43  GLY43      -0.2714
     49  N        213.2280  148.9310  244.0090 N.am   44  LEU44      -0.1963
     50  CA       212.8770  147.7620  244.8040 C.3    44  LEU44       0.1728
     51  C        211.9300  148.0780  245.9560 C.2    44  LEU44       0.2617
     52  O        211.6300  147.1850  246.7540 O.2    44  LEU44      -0.2715
     53  CB       214.1450  147.0860  245.3380 C.3    44  LEU44       0.0311
     54  CG       214.8360  146.0800  244.4080 C.3    44  LEU44       0.0022
     55  CD1      215.4300  146.7520  243.1750 C.3    44  LEU44       0.0001
     56  CD2      215.9030  145.2960  245.1590 C.3    44  LEU44       0.0001
     57  N        211.4520  149.3160  246.0610 N.am   45  GLY45      -0.1940
     58  CA       210.4470  149.6620  247.0500 C.3    45  GLY45       0.2014
     59  C        210.8830  149.6730  248.5020 C.2    45  GLY45       0.2639
     60  O        210.3040  148.9630  249.3300 O.2    45  GLY45      -0.2714
     61  N        211.9070  150.4690  248.8260 N.am   46  LYS46      -0.1963
     62  CA       212.2640  150.6760  250.2260 C.3    46  LYS46       0.1728
     63  C        211.1260  151.3260  251.0030 C.2    46  LYS46       0.2617
     64  O        210.9310  151.0310  252.1900 O.2    46  LYS46      -0.2715
     65  CB       213.5220  151.5390  250.3300 C.3    46  LYS46       0.0311
     66  CG       214.6740  151.0760  249.4630 C.3    46  LYS46       0.0038
     67  CD       215.9250  151.9040  249.7190 C.3    46  LYS46       0.0206
     68  CE       215.7230  153.3580  249.3270 C.3    46  LYS46       0.1093
     69  NZ       215.5140  153.5120  247.8610 N.3    46  LYS46      -0.1314
     70  N        210.3700  152.2130  250.3510 N.am   47  THR47      -0.1937
     71  CA       209.2730  152.8980  251.0250 C.3    47  THR47       0.2028
     72  C        208.2270  151.9090  251.5220 C.2    47  THR47       0.2642
     73  O        207.6440  152.0980  252.5940 O.2    47  THR47      -0.2714
     74  CB       208.6380  153.9250  250.0870 C.3    47  THR47       0.1808
     75  OG1      209.6590  154.7700  249.5410 O.3    47  THR47      -0.2208
     76  CG2      207.6330  154.7820  250.8370 C.3    47  THR47       0.0379
     77  N        207.9800  150.8420  250.7570 N.am   48  ILE48      -0.1977
     78  CA       207.0590  149.8040  251.2110 C.3    48  ILE48       0.1596
     79  C        207.5850  149.1380  252.4750 C.2    48  ILE48       0.2287
     80  O        206.8090  148.7890  253.3730 O.2    48  ILE48      -0.2864
     81  CB       206.8170  148.7790  250.0860 C.3    48  ILE48       0.0276
     82  CG1      206.2450  149.4730  248.8500 C.3    48  ILE48       0.0022
     83  CG2      205.8780  147.6760  250.5550 C.3    48  ILE48       0.0022
     84  CD1      204.9020  150.1290  249.0870 C.3    48  ILE48       0.0001
     85  N        208.9020  164.3490  245.9000 N.3    75  VAL75      -0.1245
     86  CA       208.2770  163.0820  246.2630 C.3    75  VAL75       0.1561
     87  C        207.2790  163.3040  247.3940 C.2    75  VAL75       0.2260
     88  O        206.7160  162.3470  247.9370 O.2    75  VAL75      -0.2867
     89  CB       209.3420  162.0390  246.6510 C.3    75  VAL75       0.0252
     90  CG1      208.8200  160.6240  246.4380 C.3    75  VAL75       0.0019
     91  CG2      210.6180  162.2650  245.8550 C.3    75  VAL75       0.0019
     92  N        203.9880  161.6830  246.7660 N.3    78  ASN78      -0.1225
     93  CA       204.0140  160.2360  246.5790 C.3    78  ASN78       0.1785
     94  C        203.9250  159.4910  247.9040 C.2    78  ASN78       0.2597
     95  O        203.4670  158.3430  247.9400 O.2    78  ASN78      -0.2718
     96  CB       205.2780  159.8270  245.8230 C.3    78  ASN78       0.1169
     97  CG       205.3270  160.3970  244.4190 C.2    78  ASN78       0.2627
     98  OD1      204.3010  160.5240  243.7530 O.2    78  ASN78      -0.2716
     99  ND2      206.5250  160.7450  243.9630 N.am   78  ASN78      -0.0877
    100  N        204.3560  160.1190  248.9990 N.am   79  TRP79      -0.1976
    101  CA       204.2510  159.4790  250.3040 C.3    79  TRP79       0.1640
    102  C        202.8380  159.5570  250.8660 C.2    79  TRP79       0.2290
    103  O        202.4070  158.6370  251.5690 O.2    79  TRP79      -0.2864
    104  CB       205.2500  160.1040  251.2780 C.3    79  TRP79       0.0576
    105  CG       206.6730  159.7380  250.9820 C.ar   79  TRP79       0.0006
    106  CD1      207.4410  160.2000  249.9540 C.ar   79  TRP79       0.0946
    107  CD2      207.4990  158.8310  251.7220 C.ar   79  TRP79       0.0152
    108  NE1      208.6920  159.6380  250.0060 N.ar   79  TRP79      -0.2442
    109  CE2      208.7550  158.7940  251.0840 C.ar   79  TRP79       0.0810
    110  CE3      207.2990  158.0470  252.8630 C.ar   79  TRP79       0.0012
    111  CZ2      209.8050  158.0040  251.5470 C.ar   79  TRP79       0.0191
    112  CZ3      208.3440  157.2640  253.3210 C.ar   79  TRP79       0.0001
    113  CH2      209.5810  157.2490  252.6640 C.ar   79  TRP79       0.0015
    114  N        200.8720  157.2580  248.6430 N.3    82  GLU82      -0.1245
    115  CA       201.3010  155.9170  249.0200 C.3    82  GLU82       0.1567
    116  C        200.7590  155.5200  250.3870 C.2    82  GLU82       0.2260
    117  O        200.5790  154.3280  250.6600 O.2    82  GLU82      -0.2867
    118  CB       202.8270  155.8410  248.9990 C.3    82  GLU82       0.0388
    119  CG       203.3920  154.4340  249.0070 C.3    82  GLU82       0.1160
    120  CD       204.8810  154.4150  248.7250 C.2    82  GLU82       0.3649
    121  OE1      205.4530  155.4990  248.4890 O.co2  82  GLU82      -0.2457
    122  OE2      205.4780  153.3190  248.7360 O.co2  82  GLU82      -0.2457
    123  N        197.1490  154.5610  249.4800 N.3    85  ARG85      -0.1231
    124  CA       197.2570  153.2670  248.8150 C.3    85  ARG85       0.1694
    125  C        197.5960  152.1630  249.8120 C.2    85  ARG85       0.2592
    126  O        196.7910  151.2570  250.0580 O.2    85  ARG85      -0.2718
    127  CB       198.3100  153.3490  247.7070 C.3    85  ARG85       0.0321
    128  CG       198.4280  152.1040  246.8450 C.3    85  ARG85       0.0489
    129  CD       199.4270  152.3160  245.7170 C.3    85  ARG85       0.2205
    130  NE       199.6100  151.1090  244.9160 N.pl3  85  ARG85      -0.0865
    131  CZ       200.4550  151.0090  243.8940 C.cat  85  ARG85       0.5346
    132  NH1      200.5530  149.8690  243.2240 N.pl3  85  ARG85       0.1354
    133  NH2      201.2020  152.0460  243.5420 N.pl3  85  ARG85       0.1354
    134  N        198.7900  152.2240  250.3950 N.am   86  PHE86      -0.1976
    135  CA       199.2490  151.2430  251.3700 C.3    86  PHE86       0.1639
    136  C        198.9730  151.7350  252.7850 C.2    86  PHE86       0.2290
    137  O        199.1790  152.9130  253.0920 O.2    86  PHE86      -0.2864
    138  CB       200.7480  150.9700  251.2120 C.3    86  PHE86       0.0560
    139  CG       201.1100  150.2360  249.9520 C.ar   86  PHE86      -0.0200
    140  CD1      201.3240  148.8680  249.9700 C.ar   86  PHE86      -0.0042
    141  CD2      201.2520  150.9140  248.7530 C.ar   86  PHE86      -0.0042
    142  CE1      201.6640  148.1890  248.8160 C.ar   86  PHE86      -0.0003
    143  CE2      201.5910  150.2400  247.5960 C.ar   86  PHE86      -0.0003
    144  CZ       201.7970  148.8760  247.6280 C.ar   86  PHE86      -0.0000
    145  N        213.8670  161.1000  242.9570 N.3   619  GLY619     -0.1225
    146  CA       213.0650  160.1700  243.7280 C.3   619  GLY619      0.1811
    147  C        211.7380  159.6950  243.1760 C.2   619  GLY619      0.2280
    148  O        210.9710  159.0760  243.9260 O.2   619  GLY619     -0.2866
    149  N        208.6840  157.8320  240.6590 N.3   621  ASN621     -0.1240
    150  CA       208.3370  156.4430  240.3750 C.3   621  ASN621      0.1653
    151  C        208.1340  156.1160  238.8970 C.2   621  ASN621      0.2266
    152  O        207.7760  154.9740  238.5910 O.2   621  ASN621     -0.2867
    153  CB       207.0760  156.0530  241.1550 C.3   621  ASN621      0.1155
    154  CG       205.9270  157.0190  240.9320 C.2   621  ASN621      0.2627
    155  OD1      205.9460  157.8230  240.0000 O.2   621  ASN621     -0.2716
    156  ND2      204.9170  156.9410  241.7900 N.am  621  ASN621     -0.0877
    157  N        207.1640  154.8540  235.5840 N.3   623  THR623     -0.1218
    158  CA       207.3510  153.6500  234.7850 C.3   623  THR623      0.1862
    159  C        206.9810  153.8380  233.3180 C.2   623  THR623      0.2287
    160  O        207.1240  152.8960  232.5330 O.2   623  THR623     -0.2866
    161  CB       206.5310  152.4950  235.3710 C.3   623  THR623      0.1770
    162  OG1      205.1340  152.7960  235.2620 O.3   623  THR623     -0.2211
    163  CG2      206.8820  152.2810  236.8340 C.3   623  THR623      0.0375
    164  N        215.3140  156.2410  237.3130 N.3   646  ARG646     -0.1245
    165  CA       213.9550  156.7470  237.4690 C.3   646  ARG646      0.1563
    166  C        213.0150  156.1150  236.4550 C.2   646  ARG646      0.2260
    167  O        211.8320  155.9100  236.7470 O.2   646  ARG646     -0.2867
    168  CB       213.9310  158.2700  237.3300 C.3   646  ARG646      0.0307
    169  CG       214.6550  159.0170  238.4360 C.3   646  ARG646      0.0489
    170  CD       213.7550  159.2800  239.6370 C.3   646  ARG646      0.2205
    171  NE       213.2560  158.0540  240.2550 N.pl3 646  ARG646     -0.0865
    172  CZ       213.9760  157.2650  241.0460 C.cat 646  ARG646      0.5346
    173  NH1      215.2390  157.5640  241.3170 N.pl3 646  ARG646      0.1354
    174  NH2      213.4350  156.1730  241.5630 N.pl3 646  ARG646      0.1354
    175  N        211.9550  150.5330  236.4380 N.3   649  ARG649     -0.1231
    176  CA       211.3070  150.3740  237.7340 C.3   649  ARG649      0.1694
    177  C        210.7020  148.9770  237.8030 C.2   649  ARG649      0.2591
    178  O        210.9530  148.1270  236.9430 O.2   649  ARG649     -0.2718
    179  CB       210.2470  151.4640  237.9540 C.3   649  ARG649      0.0321
    180  CG       210.7970  152.8790  238.0820 C.3   649  ARG649      0.0489
    181  CD       211.4810  153.0980  239.4220 C.3   649  ARG649      0.2205
    182  NE       210.5380  153.5380  240.4460 N.pl3 649  ARG649     -0.0865
    183  CZ       210.8670  153.7790  241.7100 C.cat 649  ARG649      0.5346
    184  NH1      209.9430  154.1810  242.5720 N.pl3 649  ARG649      0.1354
    185  NH2      212.1180  153.6170  242.1150 N.pl3 649  ARG649      0.1354
    186  N        209.8950  148.7420  238.8390 N.am  650  ILE650     -0.1980
    187  CA       209.2580  147.4410  239.0120 C.3   650  ILE650      0.1595
    188  C        208.1130  147.2570  238.0220 C.2   650  ILE650      0.2287
    189  O        207.8070  146.1280  237.6170 O.2   650  ILE650     -0.2864
    190  CB       208.7910  147.2830  240.4730 C.3   650  ILE650      0.0276
    191  CG1      209.5650  146.1620  241.1680 C.3   650  ILE650      0.0022
    192  CG2      207.2880  147.0380  240.5600 C.3   650  ILE650      0.0022
    193  CD1      209.1580  145.9550  242.6090 C.3   650  ILE650      0.0001
@<TRIPOS>BOND
     1   160   159    2
     2   159   158    1
     3   158   161    1
     4   158   157    1
     5   162   161    1
     6   161   163    1
     7   175   176    1
     8   166   167    2
     9   166   165    1
    10   178   177    2
    11   164   165    1
    12   168   165    1
    13   168   169    1
    14   189   188    2
    15   176   177    1
    16   176   179    1
    17   177   186   am
    18   179   180    1
    19   188   187    1
    20   180   181    1
    21   169   170    1
    22   152   151    2
    23   186   187    1
    24   151   150    1
    25   187   190    1
    26   181   182    1
    27   170   171    1
    28   155   154    2
    29   171   172    2
    30   150   149    1
    31   150   153    1
    32   182   183    2
    33   190   192    1
    34   190   191    1
    35    26    25    1
    36   154   153    1
    37   154   156   am
    38   172   173    1
    39   172   174    1
    40   191   193    1
    41    27    25    1
    42    40    39    2
    43    43    42    1
    44    43    44    1
    45    42    41    1
    46   183   185    1
    47   183   184    1
    48    25    24    2
    49    46    45    1
    50    46    47    1
    51    39    45   am
    52    39    38    1
    53    48    47    2
    54    41    38    1
    55    47    49   am
    56    24    23    1
    57   145   146    1
    58    55    54    1
    59   147   146    1
    60   147   148    2
    61   132   131    1
    62    38    37    1
    63   133   131    1
    64    98    97    2
    65   131   130    2
    66    99    97   am
    67    23    22    1
    68    49    50    1
    69    54    56    1
    70    54    53    1
    71    97    96    1
    72    50    53    1
    73    50    51    1
    74   130   129    1
    75    22    21    1
    76   129   128    1
    77    96    93    1
    78    91    89    1
    79    85    86    1
    80    51    57   am
    81    51    52    2
    82    57    58    1
    83    86    89    1
    84    86    87    1
    85    21    18    1
    86    90    89    1
    87    93    92    1
    88    93    94    1
    89   128   127    1
    90    36    34   am
    91     8     6   am
    92    58    59    1
    93    87    88    2
    94    18    17    1
    95    18    19    1
    96   143   144   ar
    97   143   141   ar
    98   144   142   ar
    99     5     6    1
   100     5     2    1
   101   127   124    1
   102     4     3    2
   103    69    68    1
   104    94    95    2
   105    94   100   am
   106     6     7    2
   107    34    35    2
   108    34    33    1
   109    17    11   am
   110   121   120   ar
   111    59    61   am
   112    59    60    2
   113     3     2    1
   114     3     9   am
   115    19    20    2
   116    33    32    1
   117   114   115    1
   118    11    12    2
   119    11    10    1
   120   120   122   ar
   121   120   119    1
   122   141   139   ar
   123     2     1    1
   124   124   123    1
   125   124   125    1
   126   142   140   ar
   127    61    62    1
   128    82    84    1
   129    82    81    1
   130   100   101    1
   131   118   119    1
   132   118   115    1
   133   115   116    1
   134    10     9    1
   135    10    13    1
   136    68    67    1
   137    66    67    1
   138    66    65    1
   139    75    74    1
   140    28    29    1
   141   125   126    2
   142   125   134   am
   143   139   140   ar
   144   139   138    1
   145   106   108   ar
   146   106   105   ar
   147    32    29    1
   148   108   109   ar
   149    81    83    1
   150    81    78    1
   151    74    76    1
   152    74    71    1
   153    62    65    1
   154    62    63    1
   155   101   102    1
   156   101   104    1
   157    70    63   am
   158    70    71    1
   159   116   117    2
   160   134   135    1
   161    13    14    1
   162    29    30    1
   163    77    78    1
   164    77    72   am
   165   102   103    2
   166   105   104    1
   167   105   107   ar
   168    63    64    2
   169    71    72    1
   170   109   111   ar
   171   109   107   ar
   172    78    79    1
   173   138   135    1
   174   135   136    1
   175    72    73    2
   176   111   113   ar
   177   107   110   ar
   178    14    15    1
   179    14    16    1
   180    30    31    2
   181    79    80    2
   182   113   112   ar
   183   136   137    2
   184   110   112   ar
