@<TRIPOS>MOLECULE
tmp/6gejT00.pdb
 203 196 0 0 0
SMALL
GASTEIGER

@<TRIPOS>ATOM
      1  N        215.7010  221.4850  144.6010 N.3     9  ALA9       -0.1231
      2  CA       216.2710  220.9880  143.3540 C.3     9  ALA9        0.1694
      3  C        215.3120  221.2470  142.2000 C.2     9  ALA9        0.2592
      4  O        215.6170  222.0320  141.2930 O.2     9  ALA9       -0.2718
      5  CB       216.6240  219.5080  143.4730 C.3     9  ALA9        0.0304
      6  N        214.1430  220.6140  142.2140 N.am   10  HIS10      -0.1976
      7  CA       213.0970  220.9480  141.2490 C.3    10  HIS10       0.1656
      8  C        211.9120  221.5710  141.9870 C.2    10  HIS10       0.2291
      9  O        211.0950  220.8790  142.5950 O.2    10  HIS10      -0.2864
     10  CB       212.6650  219.6930  140.4450 C.3    10  HIS10       0.0771
     11  CG       213.4130  218.4410  140.7970 C.ar   10  HIS10       0.0820
     12  ND1      213.2970  217.8170  142.0210 N.ar   10  HIS10      -0.2267
     13  CD2      214.2640  217.6810  140.0690 C.ar   10  HIS10       0.1154
     14  CE1      214.0580  216.7370  142.0370 C.ar   10  HIS10       0.1986
     15  NE2      214.6550  216.6310  140.8640 N.ar   10  HIS10      -0.2212
     16  N        210.1200  223.7880  139.9270 N.3    12  HIS12      -0.1226
     17  CA       209.3190  224.2160  138.7850 C.3    12  HIS12       0.1752
     18  C        208.2520  223.1870  138.4310 C.2    12  HIS12       0.2595
     19  O        207.2060  223.5380  137.8720 O.2    12  HIS12      -0.2718
     20  CB       210.2210  224.4940  137.5850 C.3    12  HIS12       0.0759
     21  CG       211.3290  223.5000  137.4200 C.ar   12  HIS12       0.0818
     22  ND1      212.6540  223.8240  137.6190 N.ar   12  HIS12      -0.2268
     23  CD2      211.3090  222.1900  137.0790 C.ar   12  HIS12       0.1154
     24  CE1      213.4020  222.7560  137.4080 C.ar   12  HIS12       0.1986
     25  NE2      212.6100  221.7510  137.0790 N.ar   12  HIS12      -0.2212
     26  N        208.4970  221.9140  138.7360 N.am   13  ILE13      -0.1980
     27  CA       207.5840  220.8550  138.3220 C.3    13  ILE13       0.1595
     28  C        206.3410  220.8720  139.2040 C.2    13  ILE13       0.2287
     29  O        206.4230  220.7330  140.4290 O.2    13  ILE13      -0.2864
     30  CB       208.2760  219.4770  138.3470 C.3    13  ILE13       0.0276
     31  CG1      208.9400  219.2090  139.7010 C.3    13  ILE13       0.0022
     32  CG2      209.3110  219.3830  137.2390 C.3    13  ILE13       0.0022
     33  CD1      209.5790  217.8430  139.8110 C.3    13  ILE13       0.0001
     34  N        205.4330  222.7540  134.0810 N.3    30  GLY30      -0.1210
     35  CA       206.7350  222.8100  134.7030 C.3    30  GLY30       0.1956
     36  C        207.7620  221.8380  134.1590 C.2    30  GLY30       0.2612
     37  O        208.9610  222.0410  134.3850 O.2    30  GLY30      -0.2717
     38  N        207.3400  220.7970  133.4460 N.am   31  MET31      -0.1965
     39  CA       208.2790  219.8150  132.9300 C.3    31  MET31       0.1736
     40  C        208.5760  220.0810  131.4540 C.2    31  MET31       0.2616
     41  O        207.9840  220.9560  130.8180 O.2    31  MET31      -0.2715
     42  CB       207.7320  218.4020  133.1290 C.3    31  MET31       0.0427
     43  CG       207.2850  218.0910  134.5480 C.3    31  MET31       0.0599
     44  SD       206.8110  216.3630  134.7490 S.3    31  MET31      -0.1393
     45  CE       208.3320  215.5430  134.2780 C.3    31  MET31       0.0692
     46  N        209.5120  219.3050  130.9010 N.am   32  VAL32      -0.1963
     47  CA       209.9340  219.4240  129.5070 C.3    32  VAL32       0.1727
     48  C        210.2720  218.0370  128.9740 C.2    32  VAL32       0.2617
     49  O        210.9780  217.2670  129.6350 O.2    32  VAL32      -0.2715
     50  CB       211.1410  220.3730  129.3630 C.3    32  VAL32       0.0290
     51  CG1      211.7190  220.2960  127.9580 C.3    32  VAL32       0.0023
     52  CG2      210.7590  221.8120  129.6940 C.3    32  VAL32       0.0023
     53  N        209.7900  217.7120  127.7720 N.am   33  GLY33      -0.1940
     54  CA       210.1500  216.4530  127.1430 C.3    33  GLY33       0.2014
     55  C        209.6980  215.2390  127.9410 C.2    33  GLY33       0.2638
     56  O        208.7590  215.2970  128.7410 O.2    33  GLY33      -0.2714
     57  N        210.3950  214.1200  127.7200 N.am   34  GLN34      -0.1977
     58  CA       210.0800  212.8410  128.3630 C.3    34  GLN34       0.1601
     59  C        208.6270  212.4430  128.1110 C.2    34  GLN34       0.2287
     60  O        207.8720  212.1420  129.0360 O.2    34  GLN34      -0.2864
     61  CB       210.3830  212.8820  129.8630 C.3    34  GLN34       0.0394
     62  CG       211.8650  212.9610  130.2080 C.3    34  GLN34       0.0908
     63  CD       212.6160  211.6780  129.9000 C.2    34  GLN34       0.2608
     64  OE1      212.0140  210.6300  129.6650 O.2    34  GLN34      -0.2717
     65  NE2      213.9420  211.7550  129.9010 N.am   34  GLN34      -0.0878
     66  N        219.7070  206.6680  133.2450 N.3    63  PRO63      -0.2103
     67  CA       221.0210  207.0780  133.7520 C.3    63  PRO63       0.1489
     68  C        220.8840  208.2390  134.7220 C.2    63  PRO63       0.2418
     69  O        219.7730  208.7500  134.9310 O.2    63  PRO63      -0.2734
     70  CB       221.7740  207.4900  132.4770 C.3    63  PRO63       0.0282
     71  CG       220.7130  207.8500  131.5030 C.3    63  PRO63       0.0208
     72  CD       219.5520  206.9470  131.8060 C.3    63  PRO63       0.0893
     73  N        221.9870  208.6940  135.3410 N.am   64  PRO64      -0.2718
     74  CA       221.8910  209.8580  136.2360 C.3    64  PRO64       0.1535
     75  C        221.4400  211.1230  135.5200 C.2    64  PRO64       0.2599
     76  O        221.7520  211.3220  134.3410 O.2    64  PRO64      -0.2715
     77  CB       223.3200  210.0010  136.7810 C.3    64  PRO64       0.0310
     78  CG       224.1790  209.2130  135.8390 C.3    64  PRO64       0.0237
     79  CD       223.3230  208.0780  135.4030 C.3    64  PRO64       0.0939
     80  N        220.6910  211.9740  136.2270 N.am   65  SER65      -0.1936
     81  CA       220.2410  213.2670  135.7180 C.3    65  SER65       0.2055
     82  C        219.3720  213.1420  134.4700 C.2    65  SER65       0.2644
     83  O        219.4160  214.0110  133.5930 O.2    65  SER65      -0.2714
     84  CB       221.4380  214.1750  135.4260 C.3    65  SER65       0.2130
     85  OG       221.0210  215.3820  134.8110 O.3    65  SER65      -0.2179
     86  N        218.5800  212.0740  134.3780 N.am   66  THR66      -0.1936
     87  CA       217.6710  211.8850  133.2570 C.3    66  THR66       0.2028
     88  C        216.2490  212.3470  133.5370 C.2    66  THR66       0.2643
     89  O        215.4160  212.3140  132.6240 O.2    66  THR66      -0.2714
     90  CB       217.6410  210.4070  132.8390 C.3    66  THR66       0.1808
     91  OG1      218.9100  209.8140  133.1240 O.3    66  THR66      -0.2208
     92  CG2      217.3650  210.2760  131.3500 C.3    66  THR66       0.0379
     93  N        215.9480  212.7890  134.7540 N.am   67  GLY67      -0.1939
     94  CA       214.6060  213.2130  135.1120 C.3    67  GLY67       0.2014
     95  C        213.7920  212.1950  135.8800 C.2    67  GLY67       0.2639
     96  O        212.5710  212.3720  135.9990 O.2    67  GLY67      -0.2714
     97  N        214.4000  211.1340  136.4110 N.am   68  LYS68      -0.1963
     98  CA       213.6540  210.1170  137.1440 C.3    68  LYS68       0.1728
     99  C        213.1080  210.6210  138.4680 C.2    68  LYS68       0.2617
    100  O        212.0060  210.2200  138.8590 O.2    68  LYS68      -0.2715
    101  CB       214.5430  208.9030  137.3940 C.3    68  LYS68       0.0311
    102  CG       215.1250  208.2910  136.1370 C.3    68  LYS68       0.0038
    103  CD       216.4450  207.6130  136.4360 C.3    68  LYS68       0.0206
    104  CE       216.3330  206.7080  137.6470 C.3    68  LYS68       0.1093
    105  NZ       217.6710  206.2370  138.0690 N.3    68  LYS68      -0.1314
    106  N        213.8520  211.4720  139.1760 N.am   69  THR69      -0.1937
    107  CA       213.3810  212.0470  140.4300 C.3    69  THR69       0.2028
    108  C        212.3400  213.1370  140.2350 C.2    69  THR69       0.2642
    109  O        211.3890  213.2050  141.0180 O.2    69  THR69      -0.2714
    110  CB       214.5640  212.6150  141.2260 C.3    69  THR69       0.1808
    111  OG1      215.6330  211.6620  141.2350 O.3    69  THR69      -0.2208
    112  CG2      214.1460  212.9060  142.6530 C.3    69  THR69       0.0379
    113  N        212.4890  213.9730  139.2090 N.am   70  ALA70      -0.1977
    114  CA       211.4870  214.9640  138.8420 C.3    70  ALA70       0.1597
    115  C        210.2420  214.3440  138.2270 C.2    70  ALA70       0.2287
    116  O        209.2650  215.0600  137.9840 O.2    70  ALA70      -0.2864
    117  CB       212.0880  215.9790  137.8660 C.3    70  ALA70       0.0319
    118  N        216.3790  205.7160  144.9600 N.3   284  GLU284     -0.1245
    119  CA       217.6920  205.0830  145.0450 C.3   284  GLU284      0.1567
    120  C        217.5910  203.7210  145.7200 C.2   284  GLU284      0.2260
    121  O        218.1070  203.5270  146.8260 O.2   284  GLU284     -0.2867
    122  CB       218.6830  205.9840  145.7880 C.3   284  GLU284      0.0388
    123  CG       218.7280  207.4160  145.2730 C.3   284  GLU284      0.1160
    124  CD       219.1120  207.5060  143.8070 C.2   284  GLU284      0.3649
    125  OE1      219.8980  206.6560  143.3380 O.co2 284  GLU284     -0.2457
    126  OE2      218.6250  208.4300  143.1200 O.co2 284  GLU284     -0.2457
    127  N        213.0900  204.1650  141.5380 N.3   311  ALA311     -0.1245
    128  CA       214.0380  204.6690  140.5530 C.3   311  ALA311      0.1562
    129  C        215.4460  204.2240  140.9210 C.2   311  ALA311      0.2260
    130  O        215.9080  204.4740  142.0390 O.2   311  ALA311     -0.2867
    131  CB       213.9730  206.1940  140.4560 C.3   311  ALA311      0.0290
    132  N        219.4290  203.9870  139.0340 N.3   313  ASN313     -0.1240
    133  CA       220.2890  204.3200  137.9040 C.3   313  ASN313      0.1653
    134  C        221.4490  203.3590  137.6940 C.2   313  ASN313      0.2266
    135  O        222.2050  203.5350  136.7330 O.2   313  ASN313     -0.2867
    136  CB       220.8520  205.7380  138.0670 C.3   313  ASN313      0.1155
    137  CG       221.3290  206.0130  139.4760 C.2   313  ASN313      0.2627
    138  OD1      220.7290  206.8040  140.2060 O.2   313  ASN313     -0.2716
    139  ND2      222.4080  205.3480  139.8750 N.am  313  ASN313     -0.0877
    140  N        218.3760  213.7930  127.5430 N.3   346  TYR346     -0.1241
    141  CA       217.8200  214.9330  126.8300 C.3   346  TYR346      0.1605
    142  C        218.7120  215.3410  125.6640 C.2   346  TYR346      0.2264
    143  O        219.9140  215.0610  125.6420 O.2   346  TYR346     -0.2867
    144  CB       217.6380  216.1160  127.7780 C.3   346  TYR346      0.0534
    145  CG       216.8160  215.7880  129.0000 C.ar  346  TYR346     -0.0201
    146  CD1      215.4300  215.8110  128.9520 C.ar  346  TYR346     -0.0009
    147  CD2      217.4260  215.4520  130.2000 C.ar  346  TYR346     -0.0009
    148  CE1      214.6740  215.5090  130.0670 C.ar  346  TYR346      0.0417
    149  CE2      216.6790  215.1490  131.3210 C.ar  346  TYR346      0.0417
    150  CZ       215.3020  215.1790  131.2480 C.ar  346  TYR346      0.1957
    151  OH       214.5470  214.8780  132.3590 O.3   346  TYR346     -0.2866
    152  N        214.9520  223.6570  129.5310 N.3   354  ILE354     -0.1245
    153  CA       215.1670  223.3100  130.9350 C.3   354  ILE354      0.1561
    154  C        215.9870  224.3620  131.6700 C.2   354  ILE354      0.2260
    155  O        215.7960  224.5540  132.8820 O.2   354  ILE354     -0.2867
    156  CB       215.8360  221.9230  131.0270 C.3   354  ILE354      0.0252
    157  CG1      214.9320  220.8660  130.3910 C.3   354  ILE354      0.0019
    158  CG2      216.1470  221.5550  132.4680 C.3   354  ILE354      0.0019
    159  CD1      215.5400  219.4840  130.3410 C.3   354  ILE354      0.0001
    160  N        213.6790  227.7980  131.7900 N.3   357  ILE357     -0.1231
    161  CA       212.5500  227.5410  132.6770 C.3   357  ILE357      0.1692
    162  C        213.0520  227.5170  134.1150 C.2   357  ILE357      0.2591
    163  O        212.2830  227.7450  135.0570 O.2   357  ILE357     -0.2718
    164  CB       211.8250  226.2280  132.3010 C.3   357  ILE357      0.0266
    165  CG1      210.3830  226.2440  132.8140 C.3   357  ILE357      0.0019
    166  CG2      212.5580  225.0180  132.8530 C.3   357  ILE357      0.0020
    167  CD1      209.5580  225.0510  132.3620 C.3   357  ILE357      0.0001
    168  N        214.3480  227.2520  134.2920 N.am  358  ARG358     -0.1980
    169  CA       214.9950  227.3540  135.5920 C.3   358  ARG358      0.1597
    170  C        215.3340  228.7840  135.9800 C.2   358  ARG358      0.2287
    171  O        215.1660  229.1500  137.1430 O.2   358  ARG358     -0.2864
    172  CB       216.2850  226.5110  135.6090 C.3   358  ARG358      0.0334
    173  CG       216.4050  225.5400  136.7780 C.3   358  ARG358      0.0492
    174  CD       216.4140  226.2790  138.1060 C.3   358  ARG358      0.2205
    175  NE       216.9170  225.4680  139.2130 N.pl3 358  ARG358     -0.0865
    176  CZ       216.1620  224.6760  139.9680 C.cat 358  ARG358      0.5346
    177  NH1      214.8610  224.5730  139.7340 N.pl3 358  ARG358      0.1354
    178  NH2      216.7110  223.9830  140.9570 N.pl3 358  ARG358      0.1354
    179  N        223.3560  218.2020  132.7320 N.3   383  LEU383     -0.1231
    180  CA       222.3110  219.2080  132.8910 C.3   383  LEU383      0.1693
    181  C        222.2220  219.7290  134.3210 C.2   383  LEU383      0.2591
    182  O        221.9070  220.9030  134.5420 O.2   383  LEU383     -0.2718
    183  CB       220.9640  218.6220  132.4650 C.3   383  LEU383      0.0284
    184  CG       219.7240  219.4910  132.6620 C.3   383  LEU383      0.0019
    185  CD1      219.7850  220.7100  131.7590 C.3   383  LEU383      0.0001
    186  CD2      218.4660  218.6810  132.4010 C.3   383  LEU383      0.0001
    187  N        222.4960  218.8660  135.2970 N.am  384  ARG384     -0.1980
    188  CA       222.4160  219.2260  136.7060 C.3   384  ARG384      0.1597
    189  C        223.5530  220.1420  137.1430 C.2   384  ARG384      0.2287
    190  O        223.5020  220.6920  138.2480 O.2   384  ARG384     -0.2864
    191  CB       222.4100  217.9600  137.5660 C.3   384  ARG384      0.0334
    192  CG       221.7200  218.1130  138.9100 C.3   384  ARG384      0.0492
    193  CD       222.3340  217.1830  139.9400 C.3   384  ARG384      0.2205
    194  NE       222.4970  215.8220  139.4380 N.pl3 384  ARG384     -0.0865
    195  CZ       221.6690  214.8180  139.7110 C.cat 384  ARG384      0.5346
    196  NH1      221.9010  213.6130  139.2090 N.pl3 384  ARG384      0.1354
    197  NH2      220.6140  215.0170  140.4880 N.pl3 384  ARG384      0.1354
    198  N        223.1530  224.3440  135.9350 N.3   387  SER387     -0.1217
    199  CA       222.0710  224.9470  136.7020 C.3   387  SER387      0.1889
    200  C        222.6130  225.6400  137.9460 C.2   387  SER387      0.2288
    201  O        221.9950  226.5780  138.4590 O.2   387  SER387     -0.2866
    202  CB       221.0350  223.8900  137.0880 C.3   387  SER387      0.2089
    203  OG       221.6270  222.8560  137.8530 O.3   387  SER387     -0.2183
@<TRIPOS>BOND
     1   143   142    2
     2   142   141    1
     3   141   140    1
     4   141   144    1
     5    54    53    1
     6    54    55    1
     7    57    55   am
     8    57    58    1
     9    53    48   am
    10   144   145    1
    11    55    56    2
    12    51    50    1
    13    59    58    1
    14    59    60    2
    15    58    61    1
    16   146   145   ar
    17   146   148   ar
    18    48    47    1
    19    48    49    2
    20   145   147   ar
    21    50    47    1
    22    50    52    1
    23    47    46    1
    24   152   153    1
    25    64    63    2
    26    61    62    1
    27    63    65   am
    28    63    62    1
    29   148   150   ar
    30   147   149   ar
    31   159   157    1
    32   157   156    1
    33    41    40    2
    34    46    40   am
    35   153   156    1
    36   153   154    1
    37   156   158    1
    38   150   149   ar
    39   150   151    1
    40    92    90    1
    41    40    39    1
    42    71    72    1
    43    71    70    1
    44   154   155    2
    45   185   184    1
    46   160   161    1
    47    72    66    1
    48   164   161    1
    49   164   165    1
    50   164   166    1
    51   167   165    1
    52   186   184    1
    53   183   184    1
    54   183   180    1
    55    70    67    1
    56    89    88    2
    57   161   162    1
    58   179   180    1
    59    90    91    1
    60    90    87    1
    61   180   181    1
    62    39    42    1
    63    39    38    1
    64    42    43    1
    65    66    67    1
    66    87    88    1
    67    87    86    1
    68    38    36   am
    69    88    93   am
    70    83    82    2
    71    67    68    1
    72    34    35    1
    73   162   168   am
    74   162   163    2
    75    36    37    2
    76    36    35    1
    77    45    44    1
    78   168   169    1
    79   181   182    2
    80   181   187   am
    81    76    75    2
    82    86    82   am
    83    82    81    1
    84    43    44    1
    85    68    69    2
    86    68    73   am
    87    93    94    1
    88    85    84    1
    89    94    95    1
    90   187   188    1
    91    73    79    1
    92    73    74    1
    93    79    78    1
    94    84    81    1
    95    75    80   am
    96    75    74    1
    97   169   172    1
    98   169   170    1
    99   172   173    1
   100    81    80    1
   101    78    77    1
   102    95    96    2
   103    95    97   am
   104   198   199    1
   105   170   171    2
   106   102   103    1
   107   102   101    1
   108    74    77    1
   109    97    98    1
   110   103   104    1
   111   199   202    1
   112   199   200    1
   113   188   189    1
   114   188   191    1
   115   135   134    2
   116   173   174    1
   117    25    23   ar
   118    25    24   ar
   119    23    21   ar
   120   202   203    1
   121   189   190    2
   122    98   101    1
   123    98    99    1
   124    32    30    1
   125    24    22   ar
   126    21    20    1
   127    21    22   ar
   128   191   192    1
   129    20    17    1
   130   104   105    1
   131   134   133    1
   132   117   114    1
   133    19    18    2
   134   133   136    1
   135   133   132    1
   136   200   201    2
   137   116   115    2
   138   136   137    1
   139   174   175    1
   140   115   114    1
   141    27    30    1
   142    27    26    1
   143    27    28    1
   144    30    31    1
   145    18    26   am
   146    18    17    1
   147    99   100    2
   148    99   106   am
   149    17    16    1
   150   114   113    1
   151   192   193    1
   152   106   107    1
   153    28    29    2
   154   113   108   am
   155   196   195    1
   156   175   176    2
   157   194   195    2
   158   194   193    1
   159   137   139   am
   160   137   138    2
   161    31    33    1
   162   195   197    1
   163   177   176    1
   164   176   178    1
   165    13    11   ar
   166    13    15   ar
   167   108   107    1
   168   108   109    2
   169   107   110    1
   170    10    11    1
   171    10     7    1
   172   131   128    1
   173   128   129    1
   174   128   127    1
   175    11    12   ar
   176    15    14   ar
   177   129   130    2
   178   110   111    1
   179   110   112    1
   180     7     8    1
   181     7     6    1
   182     4     3    2
   183     8     9    2
   184    12    14   ar
   185     3     6   am
   186     3     2    1
   187   126   124   ar
   188   125   124   ar
   189     2     5    1
   190     2     1    1
   191   124   123    1
   192   118   119    1
   193   119   120    1
   194   119   122    1
   195   123   122    1
   196   120   121    2
