@<TRIPOS>MOLECULE
tmp/6genO00.pdb
 179 173 0 0 0
SMALL
GASTEIGER

@<TRIPOS>ATOM
      1  N        178.4650  188.9030  171.4170 N.3     6  ALA6       -0.1231
      2  CA       178.5410  188.6360  169.9710 C.3     6  ALA6        0.1694
      3  C        179.4700  187.4700  169.6190 C.2     6  ALA6        0.2592
      4  O        179.9330  187.3630  168.4800 O.2     6  ALA6       -0.2718
      5  CB       178.9440  189.8930  169.1890 C.3     6  ALA6        0.0304
      6  N        179.7220  186.5790  170.5700 N.am    7  HIS7       -0.1976
      7  CA       180.6570  185.4650  170.4250 C.3     7  HIS7        0.1656
      8  C        180.2620  184.4030  171.4450 C.2     7  HIS7        0.2291
      9  O        179.1450  184.4200  171.9780 O.2     7  HIS7       -0.2864
     10  CB       182.1090  185.9190  170.5950 C.3     7  HIS7        0.0771
     11  CG       182.7340  186.4290  169.3340 C.ar    7  HIS7        0.0820
     12  ND1      182.7790  185.6850  168.1750 N.ar    7  HIS7       -0.2267
     13  CD2      183.3290  187.6100  169.0450 C.ar    7  HIS7        0.1154
     14  CE1      183.3760  186.3850  167.2270 C.ar    7  HIS7        0.1986
     15  NE2      183.7210  187.5560  167.7290 N.ar    7  HIS7       -0.2212
     16  N        179.3450  181.4430  171.1230 N.3     9  HIS9       -0.1226
     17  CA       178.4640  180.4150  170.5910 C.3     9  HIS9        0.1752
     18  C        179.1540  179.5480  169.5490 C.2     9  HIS9        0.2595
     19  O        178.5470  178.5930  169.0550 O.2     9  HIS9       -0.2718
     20  CB       177.2070  181.0530  169.9890 C.3     9  HIS9        0.0759
     21  CG       177.4890  182.1780  169.0420 C.ar    9  HIS9        0.0818
     22  ND1      177.6660  183.4780  169.4620 N.ar    9  HIS9       -0.2268
     23  CD2      177.6110  182.1990  167.6930 C.ar    9  HIS9        0.1154
     24  CE1      177.8920  184.2510  168.4150 C.ar    9  HIS9        0.1986
     25  NE2      177.8640  183.5000  167.3290 N.ar    9  HIS9       -0.2212
     26  N        180.4000  179.8600  169.2080 N.am   10  ILE10      -0.1980
     27  CA       181.1650  179.1360  168.2020 C.3    10  ILE10       0.1595
     28  C        182.3000  178.4120  168.9130 C.2    10  ILE10       0.2287
     29  O        183.1610  179.0460  169.5350 O.2    10  ILE10      -0.2864
     30  CB       181.7010  180.0770  167.1150 C.3    10  ILE10       0.0276
     31  CG1      180.5430  180.6950  166.3290 C.3    10  ILE10       0.0022
     32  CG2      182.6540  179.3370  166.1920 C.3    10  ILE10       0.0022
     33  CD1      180.9590  181.8190  165.4110 C.3    10  ILE10       0.0001
     34  N        177.7570  176.1970  166.1310 N.3    27  GLY27      -0.1210
     35  CA       177.3300  177.5810  166.0770 C.3    27  GLY27       0.1956
     36  C        177.3450  178.2060  164.7010 C.2    27  GLY27       0.2612
     37  O        177.3070  179.4380  164.5940 O.2    27  GLY27      -0.2717
     38  N        177.3970  177.3970  163.6460 N.am   28  PHE28      -0.1962
     39  CA       177.4470  177.8910  162.2770 C.3    28  PHE28       0.1771
     40  C        176.2910  177.3060  161.4800 C.2    28  PHE28       0.2619
     41  O        175.9980  176.1110  161.5870 O.2    28  PHE28      -0.2715
     42  CB       178.7760  177.5310  161.6140 C.3    28  PHE28       0.0574
     43  CG       179.8030  178.6230  161.6780 C.ar   28  PHE28      -0.0200
     44  CD1      179.7500  179.6880  160.7930 C.ar   28  PHE28      -0.0042
     45  CD2      180.8330  178.5750  162.6060 C.ar   28  PHE28      -0.0042
     46  CE1      180.6960  180.6960  160.8400 C.ar   28  PHE28      -0.0003
     47  CE2      181.7840  179.5790  162.6560 C.ar   28  PHE28      -0.0003
     48  CZ       181.7130  180.6410  161.7730 C.ar   28  PHE28      -0.0000
     49  N        175.6390  178.1490  160.6840 N.am   29  VAL29      -0.1977
     50  CA       174.6070  177.7210  159.7500 C.3    29  VAL29       0.1596
     51  C        174.9780  178.2330  158.3660 C.2    29  VAL29       0.2287
     52  O        175.2190  179.4310  158.1780 O.2    29  VAL29      -0.2864
     53  CB       173.2060  178.2140  160.1710 C.3    29  VAL29       0.0276
     54  CG1      172.5350  177.1810  161.0580 C.3    29  VAL29       0.0022
     55  CG2      173.3050  179.5480  160.8970 C.3    29  VAL29       0.0022
     56  N        177.4590  178.6150  155.0360 N.3    31  GLN31      -0.1245
     57  CA       178.8560  179.0240  154.8270 C.3    31  GLN31       0.1566
     58  C        179.7990  177.8200  154.7800 C.2    31  GLN31       0.2260
     59  O        180.6790  177.6500  155.6270 O.2    31  GLN31      -0.2867
     60  CB       179.3010  180.0390  155.8870 C.3    31  GLN31       0.0367
     61  CG       180.4030  180.9760  155.4300 C.3    31  GLN31       0.0905
     62  CD       179.9620  181.8890  154.3040 C.2    31  GLN31       0.2608
     63  OE1      180.6650  182.0470  153.3060 O.2    31  GLN31      -0.2717
     64  NE2      178.7930  182.4990  154.4620 N.am   31  GLN31      -0.0878
     65  N        180.6920  191.3990  153.0240 N.3    60  GLY60      -0.1210
     66  CA       179.8890  192.4560  153.5870 C.3    60  GLY60       0.1940
     67  C        179.7550  192.3360  155.0910 C.2    60  GLY60       0.2454
     68  O        180.2640  191.3960  155.7090 O.2    60  GLY60      -0.2732
     69  N        179.0830  193.3050  155.7130 N.am   61  PRO61      -0.2717
     70  CA       178.8020  193.1970  157.1490 C.3    61  PRO61       0.1536
     71  C        177.7780  192.1090  157.4250 C.2    61  PRO61       0.2599
     72  O        176.9890  191.7390  156.5520 O.2    61  PRO61      -0.2715
     73  CB       178.2530  194.5830  157.5130 C.3    61  PRO61       0.0310
     74  CG       178.6660  195.4790  156.3840 C.3    61  PRO61       0.0237
     75  CD       178.6770  194.6100  155.1710 C.3    61  PRO61       0.0939
     76  N        177.8170  191.5960  158.6600 N.am   62  SER62      -0.1936
     77  CA       176.9540  190.5240  159.1670 C.3    62  SER62       0.2055
     78  C        177.0580  189.2490  158.3330 C.2    62  SER62       0.2644
     79  O        176.0750  188.5150  158.1970 O.2    62  SER62      -0.2714
     80  CB       175.4870  190.9650  159.2720 C.3    62  SER62       0.2130
     81  OG       175.3830  192.2230  159.9180 O.3    62  SER62      -0.2179
     82  N        178.2310  188.9710  157.7660 N.am   63  THR63      -0.1936
     83  CA       178.4220  187.7990  156.9230 C.3    63  THR63       0.2028
     84  C        179.2780  186.7230  157.5790 C.2    63  THR63       0.2643
     85  O        179.2260  185.5670  157.1470 O.2    63  THR63      -0.2714
     86  CB       179.0410  188.2100  155.5850 C.3    63  THR63       0.1808
     87  OG1      180.2290  188.9750  155.8190 O.3    63  THR63      -0.2208
     88  CG2      178.0560  189.0400  154.7750 C.3    63  THR63       0.0379
     89  N        180.0540  187.0660  158.6010 N.am   64  GLY64      -0.1939
     90  CA       180.8280  186.0820  159.3270 C.3    64  GLY64       0.2014
     91  C        182.3080  186.0360  159.0220 C.2    64  GLY64       0.2639
     92  O        182.8520  184.9400  158.8520 O.2    64  GLY64      -0.2714
     93  N        182.9770  187.1860  158.9370 N.am   65  LYS65      -0.1963
     94  CA       184.4200  187.1880  158.7250 C.3    65  LYS65       0.1728
     95  C        185.1660  187.1490  160.0550 C.2    65  LYS65       0.2617
     96  O        186.0940  186.3520  160.2350 O.2    65  LYS65      -0.2715
     97  CB       184.8310  188.4110  157.9050 C.3    65  LYS65       0.0311
     98  CG       184.1210  188.5220  156.5650 C.3    65  LYS65       0.0038
     99  CD       184.6050  189.7140  155.7500 C.3    65  LYS65       0.0206
    100  CE       184.1480  191.0420  156.3400 C.3    65  LYS65       0.1093
    101  NZ       185.1870  191.6860  157.1950 N.3    65  LYS65      -0.1314
    102  N        184.7650  188.0010  161.0020 N.am   66  THR66      -0.1937
    103  CA       185.3890  187.9910  162.3210 C.3    66  THR66       0.2028
    104  C        184.9600  186.7650  163.1190 C.2    66  THR66       0.2642
    105  O        185.7190  186.2670  163.9600 O.2    66  THR66      -0.2714
    106  CB       185.0410  189.2770  163.0750 C.3    66  THR66       0.1808
    107  OG1      185.0490  190.3840  162.1640 O.3    66  THR66      -0.2208
    108  CG2      186.0530  189.5470  164.1820 C.3    66  THR66       0.0379
    109  N        183.7500  186.2620  162.8600 N.am   67  ALA67      -0.1977
    110  CA       183.3210  185.0080  163.4680 C.3    67  ALA67       0.1597
    111  C        184.1160  183.8300  162.9230 C.2    67  ALA67       0.2287
    112  O        184.3880  182.8710  163.6560 O.2    67  ALA67      -0.2864
    113  CB       181.8240  184.7980  163.2370 C.3    67  ALA67       0.0319
    114  N        186.7260  194.9230  154.1770 N.3   321  ASN321     -0.1240
    115  CA       185.3010  195.0200  153.8800 C.3   321  ASN321      0.1653
    116  C        185.0070  196.1280  152.8750 C.2   321  ASN321      0.2266
    117  O        184.0680  196.9050  153.0720 O.2   321  ASN321     -0.2867
    118  CB       184.5010  195.2360  155.1700 C.3   321  ASN321      0.1155
    119  CG       185.0950  196.3170  156.0670 C.2   321  ASN321      0.2627
    120  OD1      185.9660  197.0830  155.6580 O.2   321  ASN321     -0.2716
    121  ND2      184.6140  196.3790  157.3060 N.am  321  ASN321     -0.0877
    122  N        173.1120  184.9240  154.0040 N.3   355  TYR355     -0.1241
    123  CA       172.1950  183.9910  154.6390 C.3   355  TYR355      0.1605
    124  C        170.7480  184.3270  154.2910 C.2   355  TYR355      0.2264
    125  O        170.3850  185.4940  154.1180 O.2   355  TYR355     -0.2867
    126  CB       172.3920  184.0000  156.1550 C.3   355  TYR355      0.0534
    127  CG       173.8440  183.9420  156.5730 C.ar  355  TYR355     -0.0201
    128  CD1      174.5610  182.7540  156.4970 C.ar  355  TYR355     -0.0009
    129  CD2      174.5000  185.0760  157.0400 C.ar  355  TYR355     -0.0009
    130  CE1      175.8890  182.6940  156.8730 C.ar  355  TYR355      0.0417
    131  CE2      175.8290  185.0270  157.4200 C.ar  355  TYR355      0.0417
    132  CZ       176.5170  183.8330  157.3340 C.ar  355  TYR355      0.1957
    133  OH       177.8390  183.7720  157.7110 O.3   355  TYR355     -0.2866
    134  N        170.0730  181.7050  163.1690 N.3   363  ILE363     -0.1245
    135  CA       171.0200  182.5580  163.8860 C.3   363  ILE363      0.1561
    136  C        170.3610  183.1420  165.1310 C.2   363  ILE363      0.2260
    137  O        170.9310  183.1130  166.2310 O.2   363  ILE363     -0.2867
    138  CB       171.5680  183.6560  162.9520 C.3   363  ILE363      0.0252
    139  CG1      172.6210  183.0740  162.0060 C.3   363  ILE363      0.0019
    140  CG2      172.1740  184.8090  163.7420 C.3   363  ILE363      0.0019
    141  CD1      173.1540  184.0660  160.9930 C.3   363  ILE363      0.0001
    142  N        171.3940  181.7380  168.7630 N.3   367  ARG367     -0.1245
    143  CA       171.8210  182.8320  169.6300 C.3   367  ARG367      0.1563
    144  C        170.8780  182.9970  170.8170 C.2   367  ARG367      0.2260
    145  O        171.3080  183.4010  171.9030 O.2   367  ARG367     -0.2867
    146  CB       171.9150  184.1280  168.8200 C.3   367  ARG367      0.0307
    147  CG       172.5490  185.2990  169.5580 C.3   367  ARG367      0.0489
    148  CD       173.9390  184.9560  170.0660 C.3   367  ARG367      0.2205
    149  NE       174.4380  185.9660  170.9940 N.pl3 367  ARG367     -0.0865
    150  CZ       175.1150  187.0500  170.6280 C.cat 367  ARG367      0.5346
    151  NH1      175.3800  187.2690  169.3470 N.pl3 367  ARG367      0.1354
    152  NH2      175.5270  187.9150  171.5440 N.pl3 367  ARG367      0.1354
    153  N        170.5480  192.0360  160.3830 N.3   392  LEU392     -0.1231
    154  CA       170.7660  190.9190  161.2970 C.3   392  LEU392      0.1693
    155  C        171.1590  191.4190  162.6830 C.2   392  LEU392      0.2591
    156  O        170.6770  190.9030  163.7010 O.2   392  LEU392     -0.2718
    157  CB       171.8380  189.9870  160.7310 C.3   392  LEU392      0.0284
    158  CG       172.2830  188.8110  161.6020 C.3   392  LEU392      0.0019
    159  CD1      171.1020  187.9190  161.9400 C.3   392  LEU392      0.0001
    160  CD2      173.3800  188.0150  160.9120 C.3   392  LEU392      0.0001
    161  N        172.0230  192.4370  162.7370 N.am  393  ARG393     -0.1980
    162  CA       172.5020  192.9890  163.9990 C.3   393  ARG393      0.1597
    163  C        171.4190  193.7320  164.7700 C.2   393  ARG393      0.2287
    164  O        171.5790  193.9550  165.9740 O.2   393  ARG393     -0.2864
    165  CB       173.6810  193.9290  163.7430 C.3   393  ARG393      0.0334
    166  CG       174.8470  193.2940  163.0100 C.3   393  ARG393      0.0492
    167  CD       175.7890  194.3650  162.4900 C.3   393  ARG393      0.2205
    168  NE       176.9760  193.8210  161.8370 N.pl3 393  ARG393     -0.0865
    169  CZ       178.1250  193.5800  162.4590 C.cat 393  ARG393      0.5346
    170  NH1      179.1560  193.0910  161.7860 N.pl3 393  ARG393      0.1354
    171  NH2      178.2420  193.8290  163.7560 N.pl3 393  ARG393      0.1354
    172  N        169.5210  190.6190  166.4090 N.3   396  LEU396     -0.1245
    173  CA       170.4020  190.1260  167.4640 C.3   396  LEU396      0.1561
    174  C        170.6290  191.1750  168.5440 C.2   396  LEU396      0.2260
    175  O        170.9030  190.8260  169.6980 O.2   396  LEU396     -0.2867
    176  CB       171.7390  189.6850  166.8700 C.3   396  LEU396      0.0270
    177  CG       171.7040  188.5200  165.8790 C.3   396  LEU396      0.0019
    178  CD1      173.0810  188.2900  165.2800 C.3   396  LEU396      0.0001
    179  CD2      171.1960  187.2570  166.5550 C.3   396  LEU396      0.0001
@<TRIPOS>BOND
     1   116   117    2
     2   116   115    1
     3    65    66    1
     4    63    62    2
     5    66    67    1
     6   115   114    1
     7   115   118    1
     8   122   123    1
     9   125   124    2
    10   124   123    1
    11    62    64   am
    12    62    61    1
    13   123   126    1
    14    88    86    1
    15    58    57    1
    16    58    59    2
    17    57    56    1
    18    57    60    1
    19    67    68    2
    20    67    69   am
    21   118   119    1
    22    75    69    1
    23    75    74    1
    24    61    60    1
    25    86    87    1
    26    86    83    1
    27   120   119    2
    28    69    70    1
    29    99   100    1
    30    99    98    1
    31   119   121   am
    32   126   127    1
    33   100   101    1
    34    74    73    1
    35   128   127   ar
    36   128   130   ar
    37    72    71    2
    38    98    97    1
    39   127   129   ar
    40   130   132   ar
    41    83    84    1
    42    83    82    1
    43   129   131   ar
    44    85    84    2
    45    70    71    1
    46    70    73    1
    47   132   131   ar
    48   132   133    1
    49    71    76   am
    50    84    89   am
    51    82    78   am
    52    97    94    1
    53    52    51    2
    54    79    78    2
    55    78    77    1
    56    51    50    1
    57    89    90    1
    58    76    77    1
    59    94    93    1
    60    94    95    1
    61    92    91    2
    62    93    91   am
    63    91    90    1
    64    77    80    1
    65    80    81    1
    66    50    53    1
    67    50    49    1
    68    95    96    2
    69    95   102   am
    70    53    55    1
    71    53    54    1
    72   153   154    1
    73    49    40   am
    74   157   154    1
    75   157   158    1
    76    44    46   ar
    77    44    43   ar
    78    46    48   ar
    79   160   158    1
    80   141   139    1
    81   102   103    1
    82   154   155    1
    83    40    41    2
    84    40    39    1
    85   158   159    1
    86    42    43    1
    87    42    39    1
    88    43    45   ar
    89    48    47   ar
    90   170   169    1
    91   168   169    2
    92   168   167    1
    93   139   138    1
    94   107   106    1
    95    39    38    1
    96   103   106    1
    97   103   104    1
    98   169   171    1
    99   167   166    1
   100    45    47   ar
   101   155   161   am
   102   155   156    2
   103   161   162    1
   104   109   104   am
   105   109   110    1
   106   111   110    1
   107   111   112    2
   108   138   140    1
   109   138   135    1
   110   166   165    1
   111   106   108    1
   112   104   105    2
   113   134   135    1
   114   113   110    1
   115    38    36   am
   116   165   162    1
   117   135   136    1
   118   162   163    1
   119    37    36    2
   120    36    35    1
   121   163   164    2
   122   136   137    2
   123   178   177    1
   124    33    31    1
   125   177   179    1
   126   177   176    1
   127    35    34    1
   128    32    30    1
   129    31    30    1
   130   172   173    1
   131   176   173    1
   132    30    27    1
   133    14    15   ar
   134    14    12   ar
   135    25    23   ar
   136    25    24   ar
   137   173   174    1
   138    23    21   ar
   139    15    13   ar
   140    12    11   ar
   141    27    28    1
   142    27    26    1
   143    24    22   ar
   144     4     3    2
   145   174   175    2
   146   142   143    1
   147   146   147    1
   148   146   143    1
   149    28    29    2
   150    21    22   ar
   151    21    20    1
   152    13    11   ar
   153    19    18    2
   154     5     2    1
   155    26    18   am
   156    11    10    1
   157   151   150    1
   158    18    17    1
   159   147   148    1
   160     3     2    1
   161     3     6   am
   162   143   144    1
   163     2     1    1
   164    20    17    1
   165   148   149    1
   166     7     6    1
   167     7    10    1
   168     7     8    1
   169    17    16    1
   170   150   149    2
   171   150   152    1
   172   144   145    2
   173     8     9    2
