@<TRIPOS>MOLECULE
tmp/6genM00.pdb
 187 177 0 0 0
SMALL
GASTEIGER

@<TRIPOS>ATOM
      1  N        203.3110  139.3700  231.3640 N.3     8  ASP8       -0.1225
      2  CA       203.8280  140.7200  231.1820 C.3     8  ASP8        0.1805
      3  C        203.3820  141.5650  232.3680 C.2     8  ASP8        0.2598
      4  O        202.1860  141.8210  232.5350 O.2     8  ASP8       -0.2718
      5  CB       203.3370  141.3230  229.8650 C.3     8  ASP8        0.1424
      6  CG       204.2540  142.4160  229.3390 C.2     8  ASP8        0.3668
      7  OD1      204.9350  143.0800  230.1480 O.co2   8  ASP8       -0.2456
      8  OD2      204.2920  142.6100  228.1050 O.co2   8  ASP8       -0.2456
      9  N        204.3420  141.9970  233.1820 N.am    9  ASN9       -0.1960
     10  CA       204.0540  142.7530  234.3960 C.3     9  ASN9        0.1819
     11  C        203.9960  144.2390  234.0630 C.2     9  ASN9        0.2622
     12  O        204.9840  144.8210  233.6030 O.2     9  ASN9       -0.2715
     13  CB       205.1050  142.4720  235.4660 C.3     9  ASN9        0.1195
     14  CG       205.0570  141.0450  235.9620 C.2     9  ASN9        0.2630
     15  OD1      203.9870  140.4420  236.0400 O.2     9  ASN9       -0.2716
     16  ND2      206.2170  140.4920  236.2950 N.am    9  ASN9       -0.0877
     17  N        202.8340  144.8500  234.2920 N.am   10  GLY10      -0.1940
     18  CA       202.6390  146.2640  234.0720 C.3    10  GLY10       0.2014
     19  C        201.9910  146.9530  235.2650 C.2    10  GLY10       0.2640
     20  O        201.5050  146.3250  236.2040 O.2    10  GLY10      -0.2714
     21  N        201.9950  148.2870  235.2040 N.am   11  SER11      -0.1935
     22  CA       201.4070  149.0860  236.2740 C.3    11  SER11       0.2055
     23  C        199.8880  149.1440  236.1640 C.2    11  SER11       0.2643
     24  O        199.1860  149.0060  237.1720 O.2    11  SER11      -0.2714
     25  CB       201.9920  150.4990  236.2570 C.3    11  SER11       0.2130
     26  OG       203.4000  150.4760  236.4170 O.3    11  SER11      -0.2179
     27  N        199.3650  149.3570  234.9550 N.am   12  TYR12      -0.1959
     28  CA       197.9190  149.4260  234.7700 C.3    12  TYR12       0.1771
     29  C        197.3080  148.0370  234.6520 C.2    12  TYR12       0.2619
     30  O        196.2980  147.7360  235.2980 O.2    12  TYR12      -0.2715
     31  CB       197.5830  150.2600  233.5310 C.3    12  TYR12       0.0574
     32  CG       196.1210  150.2360  233.1360 C.ar   12  TYR12      -0.0198
     33  CD1      195.1680  150.9230  233.8800 C.ar   12  TYR12      -0.0009
     34  CD2      195.6970  149.5360  232.0090 C.ar   12  TYR12      -0.0009
     35  CE1      193.8300  150.9060  233.5190 C.ar   12  TYR12       0.0417
     36  CE2      194.3620  149.5130  231.6410 C.ar   12  TYR12       0.0417
     37  CZ       193.4350  150.1990  232.4000 C.ar   12  TYR12       0.1957
     38  OH       192.1080  150.1790  232.0360 O.3    12  TYR12      -0.2866
     39  N        197.9070  147.1780  233.8320 N.am   13  GLU13      -0.1977
     40  CA       197.3230  145.8830  233.5260 C.3    13  GLU13       0.1602
     41  C        198.4360  144.8660  233.3330 C.2    13  GLU13       0.2287
     42  O        199.3980  145.1200  232.6030 O.2    13  GLU13      -0.2864
     43  CB       196.4470  145.9650  232.2710 C.3    13  GLU13       0.0415
     44  CG       195.5690  144.7570  232.0240 C.3    13  GLU13       0.1163
     45  CD       194.6410  144.9520  230.8430 C.2    13  GLU13       0.3649
     46  OE1      195.1350  145.2910  229.7470 O.co2  13  GLU13      -0.2457
     47  OE2      193.4160  144.7820  231.0140 O.co2  13  GLU13      -0.2457
     48  N        199.3620  141.3400  231.7900 N.3    15  LYS15      -0.1245
     49  CA       198.8980  140.4510  230.7320 C.3    15  LYS15       0.1561
     50  C        199.5800  139.0990  230.9040 C.2    15  LYS15       0.2260
     51  O        200.7980  138.9840  230.7340 O.2    15  LYS15      -0.2867
     52  CB       199.1840  141.0410  229.3510 C.3    15  LYS15       0.0271
     53  CG       198.1850  142.0980  228.8840 C.3    15  LYS15       0.0035
     54  CD       198.5460  143.4960  229.3710 C.3    15  LYS15       0.0206
     55  CE       199.9140  143.9230  228.8630 C.3    15  LYS15       0.1093
     56  NZ       200.2810  145.2880  229.3350 N.3    15  LYS15      -0.1314
     57  N        193.5230  139.4340  229.8850 N.3    26  ARG26      -0.1245
     58  CA       193.6840  140.7620  230.4620 C.3    26  ARG26       0.1563
     59  C        193.1500  140.7800  231.8900 C.2    26  ARG26       0.2260
     60  O        191.9780  140.4690  232.1280 O.2    26  ARG26      -0.2867
     61  CB       192.9700  141.8050  229.6050 C.3    26  ARG26       0.0307
     62  CG       193.6720  142.1230  228.2950 C.3    26  ARG26       0.0489
     63  CD       193.0110  143.2990  227.5940 C.3    26  ARG26       0.2205
     64  NE       193.7380  143.7010  226.3950 N.pl3  26  ARG26      -0.0865
     65  CZ       193.4000  144.7310  225.6270 C.cat  26  ARG26       0.5346
     66  NH1      192.3410  145.4690  225.9330 N.pl3  26  ARG26       0.1354
     67  NH2      194.1200  145.0240  224.5540 N.pl3  26  ARG26       0.1354
     68  N        208.8400  152.5260  223.6640 N.3   165  ASP165     -0.1225
     69  CA       207.7400  151.8930  224.3840 C.3   165  ASP165      0.1805
     70  C        207.0860  152.9300  225.2890 C.2   165  ASP165      0.2598
     71  O        207.6640  153.3300  226.3060 O.2   165  ASP165     -0.2718
     72  CB       208.2370  150.6940  225.1910 C.3   165  ASP165      0.1424
     73  CG       207.1030  149.8780  225.7870 C.2   165  ASP165      0.3668
     74  OD1      205.9510  150.0210  225.3270 O.co2 165  ASP165     -0.2456
     75  OD2      207.3630  149.0920  226.7230 O.co2 165  ASP165     -0.2456
     76  N        205.8840  153.3590  224.9190 N.am  166  SER166     -0.1938
     77  CA       205.0730  154.2150  225.7700 C.3   166  SER166      0.2055
     78  C        204.2310  153.3480  226.6950 C.2   166  SER166      0.2644
     79  O        203.8740  152.2190  226.3490 O.2   166  SER166     -0.2714
     80  CB       204.1750  155.1220  224.9290 C.3   166  SER166      0.2130
     81  OG       204.9410  155.9730  224.0950 O.3   166  SER166     -0.2179
     82  N        203.9270  153.8730  227.8810 N.am  167  GLY167     -0.1939
     83  CA       203.1990  153.0900  228.8570 C.3   167  GLY167      0.2014
     84  C        202.3580  153.9470  229.7770 C.2   167  GLY167      0.2639
     85  O        202.3720  155.1790  229.7140 O.2   167  GLY167     -0.2714
     86  N        201.6070  153.2550  230.6380 N.am  168  PHE168     -0.1959
     87  CA       200.8110  153.9290  231.6590 C.3   168  PHE168      0.1771
     88  C        201.7020  154.5900  232.7010 C.2   168  PHE168      0.2619
     89  O        201.3900  155.6780  233.2000 O.2   168  PHE168     -0.2715
     90  CB       199.8630  152.9200  232.3110 C.3   168  PHE168      0.0574
     91  CG       199.1230  153.4470  233.5110 C.ar  168  PHE168     -0.0200
     92  CD1      198.0360  154.2940  233.3560 C.ar  168  PHE168     -0.0042
     93  CD2      199.4920  153.0610  234.7940 C.ar  168  PHE168     -0.0042
     94  CE1      197.3450  154.7680  234.4600 C.ar  168  PHE168     -0.0003
     95  CE2      198.8070  153.5320  235.9000 C.ar  168  PHE168     -0.0003
     96  CZ       197.7290  154.3810  235.7320 C.ar  168  PHE168     -0.0000
     97  N        202.8180  153.9450  233.0430 N.am  169  ASN169     -0.1972
     98  CA       203.7470  154.5170  234.0080 C.3   169  ASN169      0.1688
     99  C        204.5720  155.6370  233.3840 C.2   169  ASN169      0.2292
    100  O        204.4940  156.7920  233.8190 O.2   169  ASN169     -0.2864
    101  CB       204.6580  153.4220  234.5630 C.3   169  ASN169      0.1181
    102  CG       205.5670  153.9240  235.6650 C.2   169  ASN169      0.2629
    103  OD1      205.2390  154.8790  236.3700 O.2   169  ASN169     -0.2716
    104  ND2      206.7190  153.2830  235.8190 N.am  169  ASN169     -0.0877
    105  N        200.1050  157.7230  230.9830 N.3   193  GLY193     -0.1225
    106  CA       198.6560  157.7700  231.0730 C.3   193  GLY193      0.1811
    107  C        198.1550  158.5180  232.2930 C.2   193  GLY193      0.2280
    108  O        197.0310  159.0310  232.2920 O.2   193  GLY193     -0.2866
    109  N        189.1970  158.0460  232.5030 N.3   219  ASN219     -0.1240
    110  CA       190.0190  157.0670  231.7970 C.3   219  ASN219      0.1653
    111  C        189.2720  156.4800  230.6020 C.2   219  ASN219      0.2266
    112  O        189.8720  156.2290  229.5510 O.2   219  ASN219     -0.2867
    113  CB       190.4530  155.9610  232.7590 C.3   219  ASN219      0.1155
    114  CG       191.7580  155.3020  232.3480 C.2   219  ASN219      0.2627
    115  OD1      192.1230  155.2930  231.1730 O.2   219  ASN219     -0.2716
    116  ND2      192.4690  154.7470  233.3220 N.am  219  ASN219     -0.0877
    117  N        189.0470  159.2590  227.9640 N.3   222  LYS222     -0.1231
    118  CA       190.3720  159.3800  227.3620 C.3   222  LYS222      0.1693
    119  C        190.6950  158.1960  226.4570 C.2   222  LYS222      0.2591
    120  O        191.4130  158.3520  225.4630 O.2   222  LYS222     -0.2718
    121  CB       191.4220  159.5090  228.4670 C.3   222  LYS222      0.0285
    122  CG       192.8100  159.8960  227.9900 C.3   222  LYS222      0.0035
    123  CD       193.8460  159.6410  229.0700 C.3   222  LYS222      0.0206
    124  CE       193.9640  158.1580  229.3800 C.3   222  LYS222      0.1093
    125  NZ       195.0040  157.8880  230.4110 N.3   222  LYS222     -0.1314
    126  N        190.1700  157.0100  226.7730 N.am  223  GLU223     -0.1979
    127  CA       190.4010  155.8560  225.9120 C.3   223  GLU223      0.1602
    128  C        189.5030  155.8820  224.6800 C.2   223  GLU223      0.2287
    129  O        189.8770  155.3520  223.6280 O.2   223  GLU223     -0.2864
    130  CB       190.1850  154.5580  226.6940 C.3   223  GLU223      0.0415
    131  CG       191.3840  154.1130  227.5140 C.3   223  GLU223      0.1163
    132  CD       191.1260  152.8170  228.2590 C.2   223  GLU223      0.3649
    133  OE1      190.0670  152.1950  228.0240 O.co2 223  GLU223     -0.2457
    134  OE2      191.9790  152.4200  229.0800 O.co2 223  GLU223     -0.2457
    135  N        189.5800  160.3170  222.4270 N.3   226  LEU226     -0.1245
    136  CA       190.7950  161.0960  222.2250 C.3   226  LEU226      0.1561
    137  C        191.4590  160.7370  220.9010 C.2   226  LEU226      0.2260
    138  O        191.4550  159.5760  220.4840 O.2   226  LEU226     -0.2867
    139  CB       191.7760  160.8680  223.3740 C.3   226  LEU226      0.0270
    140  CG       192.6570  162.0590  223.7470 C.3   226  LEU226      0.0019
    141  CD1      191.7980  163.2000  224.2570 C.3   226  LEU226      0.0001
    142  CD2      193.6900  161.6620  224.7860 C.3   226  LEU226      0.0001
    143  N        203.0120  149.5240  223.1800 N.3   330  GLY330     -0.1210
    144  CA       202.3410  150.1510  224.3010 C.3   330  GLY330      0.1956
    145  C        200.9130  150.5480  223.9650 C.2   330  GLY330      0.2612
    146  O        200.4330  150.3930  222.8410 O.2   330  GLY330     -0.2717
    147  N        200.2390  151.0760  224.9850 N.am  331  GLY331     -0.1942
    148  CA       198.8480  151.4650  224.8600 C.3   331  GLY331      0.2014
    149  C        198.6510  152.8930  224.3940 C.2   331  GLY331      0.2638
    150  O        197.5920  153.2340  223.8580 O.2   331  GLY331     -0.2714
    151  N        199.6640  153.7400  224.5910 N.am  332  ASN332     -0.1972
    152  CA       199.5650  155.1250  224.1450 C.3   332  ASN332      0.1688
    153  C        199.7560  155.2630  222.6400 C.2   332  ASN332      0.2292
    154  O        199.4050  156.3050  222.0770 O.2   332  ASN332     -0.2864
    155  CB       200.5820  155.9960  224.8830 C.3   332  ASN332      0.1181
    156  CG       200.3110  156.0730  226.3720 C.2   332  ASN332      0.2629
    157  OD1      199.1630  155.9970  226.8110 O.2   332  ASN332     -0.2716
    158  ND2      201.3700  156.2260  227.1590 N.am  332  ASN332     -0.0877
    159  N        198.0860  153.3750  220.6400 N.3   334  ASN334     -0.1225
    160  CA       196.7970  152.9870  220.0830 C.3   334  ASN334      0.1785
    161  C        195.9460  154.1870  219.6850 C.2   334  ASN334      0.2597
    162  O        194.8940  153.9990  219.0640 O.2   334  ASN334     -0.2718
    163  CB       196.0340  152.1200  221.0870 C.3   334  ASN334      0.1169
    164  CG       195.2140  151.0340  220.4180 C.2   334  ASN334      0.2627
    165  OD1      194.9440  151.0920  219.2180 O.2   334  ASN334     -0.2716
    166  ND2      194.8130  150.0350  221.1940 N.am  334  ASN334     -0.0877
    167  N        196.3630  155.4010  220.0380 N.am  335  LEU335     -0.1980
    168  CA       195.6550  156.5930  219.5990 C.3   335  LEU335      0.1596
    169  C        195.8570  156.7910  218.0970 C.2   335  LEU335      0.2287
    170  O        196.9480  156.5350  217.5780 O.2   335  LEU335     -0.2864
    171  CB       196.1430  157.8290  220.3600 C.3   335  LEU335      0.0297
    172  CG       195.5760  158.1180  221.7550 C.3   335  LEU335      0.0022
    173  CD1      196.2570  157.2860  222.8330 C.3   335  LEU335      0.0001
    174  CD2      195.7080  159.5980  222.0790 C.3   335  LEU335      0.0001
    175  N        196.0680  146.3490  218.9850 N.3   364  ASP364     -0.1239
    176  CA       196.6940  146.7400  220.2390 C.3   364  ASP364      0.1674
    177  C        198.1470  146.2830  220.2630 C.2   364  ASP364      0.2266
    178  O        198.4540  145.1340  219.9310 O.2   364  ASP364     -0.2867
    179  CB       195.9280  146.1480  221.4190 C.3   364  ASP364      0.1410
    180  CG       194.4590  146.5190  221.4020 C.2   364  ASP364      0.3668
    181  OD1      194.1260  147.6090  220.8890 O.co2 364  ASP364     -0.2456
    182  OD2      193.6370  145.7210  221.8990 O.co2 364  ASP364     -0.2456
    183  N        200.1700  146.1610  222.9530 N.3   366  ALA366     -0.1245
    184  CA       200.5160  145.3690  224.1300 C.3   366  ALA366      0.1562
    185  C        200.2670  143.8870  223.8810 C.2   366  ALA366      0.2260
    186  O        201.0510  143.0310  224.3110 O.2   366  ALA366     -0.2867
    187  CB       199.7250  145.8570  225.3440 C.3   366  ALA366      0.0290
@<TRIPOS>BOND
     1   170   169    2
     2   169   168    1
     3   175   176    1
     4   162   161    2
     5   165   164    2
     6   168   167    1
     7   168   171    1
     8   161   167   am
     9   161   160    1
    10   178   177    2
    11   160   159    1
    12   160   163    1
    13   176   177    1
    14   176   179    1
    15   171   172    1
    16   164   163    1
    17   164   166   am
    18   138   137    2
    19   181   180   ar
    20   137   136    1
    21   180   179    1
    22   180   182   ar
    23   172   174    1
    24   172   173    1
    25   154   153    2
    26   136   135    1
    27   136   139    1
    28   153   152    1
    29   146   145    2
    30   183   184    1
    31   143   144    1
    32   139   140    1
    33   129   128    2
    34    68    69    1
    35   140   141    1
    36   140   142    1
    37   150   149    2
    38   185   184    1
    39   185   186    2
    40   145   144    1
    41   145   147   am
    42    81    80    1
    43   184   187    1
    44   152   151    1
    45   152   155    1
    46    69    72    1
    47    69    70    1
    48   149   151   am
    49   149   148    1
    50    67    65    1
    51   128   127    1
    52   148   147    1
    53   155   156    1
    54    76    70   am
    55    76    77    1
    56    80    77    1
    57    72    73    1
    58    70    71    2
    59    74    73   ar
    60   120   119    2
    61    65    66    1
    62    65    64    2
    63    77    78    1
    64    73    75   ar
    65   127   130    1
    66   127   126    1
    67    79    78    2
    68   156   157    2
    69   156   158   am
    70    64    63    1
    71   119   126   am
    72   119   118    1
    73   130   131    1
    74    78    82   am
    75   118   117    1
    76   118   121    1
    77   131   132    1
    78    63    62    1
    79    82    83    1
    80   122   121    1
    81   122   123    1
    82   133   132   ar
    83     8     6   ar
    84   132   134   ar
    85    62    61    1
    86    83    84    1
    87    55    56    1
    88    55    54    1
    89    53    52    1
    90    53    54    1
    91   123   124    1
    92     6     5    1
    93     6     7   ar
    94    52    49    1
    95   124   125    1
    96   112   111    2
    97    61    58    1
    98    85    84    2
    99    46    45   ar
   100    84    86   am
   101     5     2    1
   102    57    58    1
   103    58    59    1
   104   111   110    1
   105    86    87    1
   106    49    50    1
   107    49    48    1
   108    51    50    2
   109    45    47   ar
   110    45    44    1
   111   105   106    1
   112   106   107    1
   113   115   114    2
   114     2     1    1
   115     2     3    1
   116    36    34   ar
   117    36    37   ar
   118    87    90    1
   119    87    88    1
   120   110   109    1
   121   110   113    1
   122    59    60    2
   123    34    32   ar
   124    44    43    1
   125    38    37    1
   126    43    40    1
   127   108   107    2
   128    90    91    1
   129   114   113    1
   130   114   116   am
   131     3     4    2
   132     3     9   am
   133    37    35   ar
   134    42    41    2
   135    88    97   am
   136    88    89    2
   137    97    98    1
   138    32    31    1
   139    32    33   ar
   140     9    10    1
   141    41    40    1
   142    92    91   ar
   143    92    94   ar
   144    99   100    2
   145    99    98    1
   146    91    93   ar
   147    35    33   ar
   148    40    39    1
   149    31    28    1
   150    12    11    2
   151    39    29   am
   152    98   101    1
   153    11    17   am
   154    11    10    1
   155    18    17    1
   156    18    19    1
   157    10    13    1
   158    94    96   ar
   159   101   102    1
   160    29    28    1
   161    29    30    2
   162    28    27    1
   163    93    95   ar
   164    27    23   am
   165    21    19   am
   166    21    22    1
   167    19    20    2
   168    13    14    1
   169   102   104   am
   170   102   103    2
   171    96    95   ar
   172    14    15    2
   173    14    16   am
   174    23    22    1
   175    23    24    2
   176    25    22    1
   177    25    26    1
