@<TRIPOS>MOLECULE
tmp/6gesA01.pdb
 85 83 0 0 0
SMALL
GASTEIGER

@<TRIPOS>ATOM
      1  N         64.6820   17.5320  -11.5320 N.3   231  ASN231     -0.1240
      2  CA        65.9080   17.7290  -12.2960 C.3   231  ASN231      0.1653
      3  C         67.1200   17.4320  -11.3950 C.2   231  ASN231      0.2266
      4  O         68.0890   16.7560  -11.8490 O.2   231  ASN231     -0.2867
      5  CB        65.9200   19.1150  -12.9590 C.3   231  ASN231      0.1155
      6  CG        64.8880   19.2480  -14.0750 C.2   231  ASN231      0.2627
      7  OD1       64.3280   18.2480  -14.5420 O.2   231  ASN231     -0.2716
      8  ND2       64.6590   20.4620  -14.5530 N.am  231  ASN231     -0.0877
      9  N         67.3320   13.5960  -11.1240 N.3   234  LEU234     -0.1231
     10  CA        67.8130   12.9190  -12.3870 C.3   234  LEU234      0.1693
     11  C         69.2890   13.2390  -12.6630 C.2   234  LEU234      0.2592
     12  O         69.9500   12.4600  -13.2690 O.2   234  LEU234     -0.2718
     13  CB        66.9530   13.3830  -13.5630 C.3   234  LEU234      0.0284
     14  CG        65.4840   12.9620  -13.4900 C.3   234  LEU234      0.0019
     15  CD1       64.6620   13.7190  -14.5240 C.3   234  LEU234      0.0001
     16  CD2       65.3380   11.4690  -13.6930 C.3   234  LEU234      0.0001
     17  N         69.7520   14.4150  -12.2330 N.am  235  GLY235     -0.1957
     18  CA        71.1610   14.8210  -12.3710 C.3   235  GLY235      0.1869
     19  C         72.1220   13.8670  -11.6760 C.2   235  GLY235      0.2309
     20  O         73.2180   13.6960  -12.1270 O.2   235  GLY235     -0.2863
     21  N         70.7690    9.7570  -13.0460 N.3   238  GLY238     -0.1210
     22  CA        70.9600    9.5780  -14.4870 C.3   238  GLY238      0.1956
     23  C         69.6470    9.2440  -15.2020 C.2   238  GLY238      0.2613
     24  O         68.5320    9.2050  -14.5850 O.2   238  GLY238     -0.2717
     25  N         69.7740    8.9880  -16.5130 N.am  239  SER239     -0.1938
     26  CA        68.6760    8.6150  -17.3870 C.3   239  SER239      0.2040
     27  C         68.0290    7.3130  -16.9090 C.2   239  SER239      0.2485
     28  O         68.6900    6.2930  -16.8280 O.2   239  SER239     -0.2729
     29  CB        69.1670    8.4410  -18.8030 C.3   239  SER239      0.2129
     30  OG        69.7920    9.6200  -19.2730 O.3   239  SER239     -0.2179
     31  N         66.7190    7.3240  -16.6810 N.am  240  PRO240     -0.2726
     32  CA        66.1260    6.0720  -16.2750 C.3   240  PRO240      0.1402
     33  C         66.3490    4.9750  -17.3160 C.2   240  PRO240      0.2269
     34  O         66.2980    5.2650  -18.4640 O.2   240  PRO240     -0.2865
     35  CB        64.6370    6.4150  -16.1710 C.3   240  PRO240      0.0296
     36  CG        64.6430    7.8530  -15.7150 C.3   240  PRO240      0.0237
     37  CD        65.7800    8.4390  -16.5120 C.3   240  PRO240      0.0939
     38  N         58.7320   14.0780  -21.2090 N.3   256  TYR256     -0.1241
     39  CA        59.6910   14.9280  -20.5050 C.3   256  TYR256      0.1605
     40  C         60.9720   14.1290  -20.2600 C.2   256  TYR256      0.2264
     41  O         62.0790   14.5920  -20.5540 O.2   256  TYR256     -0.2867
     42  CB        59.1100   15.4950  -19.2030 C.3   256  TYR256      0.0534
     43  CG        60.0950   16.3540  -18.4430 C.ar  256  TYR256     -0.0201
     44  CD1       60.4160   17.6160  -18.9180 C.ar  256  TYR256     -0.0009
     45  CD2       60.7980   15.8710  -17.3400 C.ar  256  TYR256     -0.0009
     46  CE1       61.3430   18.4180  -18.2850 C.ar  256  TYR256      0.0417
     47  CE2       61.7450   16.6560  -16.7010 C.ar  256  TYR256      0.0417
     48  CZ        62.0410   17.9230  -17.1970 C.ar  256  TYR256      0.1957
     49  OH        62.9560   18.7480  -16.6130 O.3   256  TYR256     -0.2866
     50  N         63.0710   13.5700  -23.2660 N.3   259  SER259     -0.1202
     51  CA        63.6660   14.7500  -23.8940 C.3   259  SER259      0.2020
     52  C         65.0380   15.0670  -23.2840 C.2   259  SER259      0.2619
     53  O         65.7030   15.9770  -23.7200 O.2   259  SER259     -0.2717
     54  CB        62.7490   15.9380  -23.7590 C.3   259  SER259      0.2103
     55  OG        62.7600   16.4900  -22.4320 O.3   259  SER259     -0.2182
     56  N         65.4360   14.4250  -22.2150 N.am  260  LEU260     -0.1966
     57  CA        66.6550   14.9230  -21.4960 C.3   260  LEU260      0.1713
     58  C         67.8980   14.2950  -22.1260 C.2   260  LEU260      0.2458
     59  O         67.9090   13.1290  -22.4300 O.2   260  LEU260     -0.2730
     60  CB        66.5500   14.5810  -20.0060 C.3   260  LEU260      0.0310
     61  CG        65.3650   15.2020  -19.2690 C.3   260  LEU260      0.0022
     62  CD1       65.2700   14.6350  -17.8680 C.3   260  LEU260      0.0001
     63  CD2       65.4930   16.7100  -19.2070 C.3   260  LEU260      0.0001
     64  N         68.9610   15.0440  -22.2470 N.am  261  PRO261     -0.2716
     65  CA        70.1910   14.3440  -22.6940 C.3   261  PRO261      0.1536
     66  C         70.5900   13.1460  -21.8090 C.2   261  PRO261      0.2599
     67  O         70.3800   13.1110  -20.6220 O.2   261  PRO261     -0.2715
     68  CB        71.3090   15.4030  -22.6790 C.3   261  PRO261      0.0310
     69  CG        70.5750   16.7080  -22.4510 C.3   261  PRO261      0.0237
     70  CD        69.3360   16.3200  -21.6520 C.3   261  PRO261      0.0939
     71  N         71.0840   12.1350  -22.4700 N.am  262  SER262     -0.1936
     72  CA        71.5760   10.9240  -21.8770 C.3   262  SER262      0.2055
     73  C         72.5940   11.2150  -20.7490 C.2   262  SER262      0.2642
     74  O         73.4800   12.0410  -20.8870 O.2   262  SER262     -0.2714
     75  CB        72.1990   10.1130  -22.9640 C.3   262  SER262      0.2130
     76  OG        72.3010    8.7680  -22.5870 O.3   262  SER262     -0.2179
     77  N         72.4630   10.5400  -19.6130 N.am  263  LYS263     -0.1977
     78  CA        73.4260   10.7200  -18.5460 C.3   263  LYS263      0.1596
     79  C         73.4470    9.4590  -17.6990 C.2   263  LYS263      0.2287
     80  O         72.4090    8.8730  -17.4110 O.2   263  LYS263     -0.2864
     81  CB        73.1120   11.9580  -17.7130 C.3   263  LYS263      0.0298
     82  CG        74.1790   12.3120  -16.6930 C.3   263  LYS263      0.0038
     83  CD        73.7490   13.4600  -15.7870 C.3   263  LYS263      0.0206
     84  CE        74.8280   13.9800  -14.8500 C.3   263  LYS263      0.1093
     85  NZ        75.7100   12.8950  -14.3670 N.3   263  LYS263     -0.1314
@<TRIPOS>BOND
     1    51    54    1
     2    51    52    1
     3    51    50    1
     4    54    55    1
     5    53    52    2
     6    52    56   am
     7    75    76    1
     8    75    72    1
     9    65    68    1
    10    65    64    1
    11    65    66    1
    12    68    69    1
    13    71    72    1
    14    71    66   am
    15    69    70    1
    16    59    58    2
    17    64    58   am
    18    64    70    1
    19    56    57    1
    20    58    57    1
    21    72    73    1
    22    66    67    2
    23    57    60    1
    24    38    39    1
    25    74    73    2
    26    73    77   am
    27    41    40    2
    28    39    40    1
    29    39    42    1
    30    60    61    1
    31    77    78    1
    32    30    29    1
    33    61    63    1
    34    61    62    1
    35    42    43    1
    36    44    43   ar
    37    44    46   ar
    38    29    26    1
    39    78    81    1
    40    78    79    1
    41    34    33    2
    42    43    45   ar
    43    46    48   ar
    44    81    82    1
    45    79    80    2
    46    26    27    1
    47    26    25    1
    48    45    47   ar
    49    33    32    1
    50    48    47   ar
    51    48    49    1
    52    27    28    2
    53    27    31   am
    54    82    83    1
    55    31    37    1
    56    31    32    1
    57    25    23   am
    58    37    36    1
    59    32    35    1
    60    35    36    1
    61    83    84    1
    62    23    24    2
    63    23    22    1
    64    84    85    1
    65     8     6   am
    66     7     6    2
    67    15    14    1
    68    22    21    1
    69     6     5    1
    70    16    14    1
    71    13    14    1
    72    13    10    1
    73    12    11    2
    74     5     2    1
    75    11    10    1
    76    11    17   am
    77    10     9    1
    78    18    17    1
    79    18    19    1
    80     2     1    1
    81     2     3    1
    82    20    19    2
    83     4     3    2
