@<TRIPOS>MOLECULE
tmp/6gevA01.pdb
 192 179 0 0 0
SMALL
GASTEIGER

@<TRIPOS>ATOM
      1  N         14.4630   23.6500   19.0350 N.3    32  LEU32      -0.1245
      2  CA        13.1170   23.2180   19.4650 C.3    32  LEU32       0.1561
      3  C         12.0640   24.2470   19.1050 C.2    32  LEU32       0.2260
      4  O         10.9710   23.8580   18.6930 O.2    32  LEU32      -0.2867
      5  CB        13.0910   22.9050   20.9760 C.3    32  LEU32       0.0270
      6  CG        13.9670   21.7260   21.4140 C.3    32  LEU32       0.0019
      7  CD1       13.9080   21.5490   22.9050 C.3    32  LEU32       0.0001
      8  CD2       13.5670   20.4190   20.7140 C.3    32  LEU32       0.0001
      9  N         11.3430   23.5650   15.4690 N.3    35  LEU35      -0.1231
     10  CA        10.4850   22.3780   15.3240 C.3    35  LEU35       0.1693
     11  C          9.0360   22.7080   15.7080 C.2    35  LEU35       0.2592
     12  O          8.1180   22.2410   15.0650 O.2    35  LEU35      -0.2718
     13  CB        10.9700   21.2350   16.2060 C.3    35  LEU35       0.0284
     14  CG        12.3590   20.6840   15.8130 C.3    35  LEU35       0.0019
     15  CD1       12.7250   19.5060   16.6890 C.3    35  LEU35       0.0001
     16  CD2       12.3740   20.2400   14.3330 C.3    35  LEU35       0.0001
     17  N          8.8400   23.5110   16.7780 N.am   36  ASN36      -0.1974
     18  CA         7.4790   23.8460   17.1940 C.3    36  ASN36       0.1688
     19  C          6.7750   24.7040   16.1530 C.2    36  ASN36       0.2292
     20  O          5.5820   24.5240   15.9310 O.2    36  ASN36      -0.2864
     21  CB         7.4790   24.5300   18.5530 C.3    36  ASN36       0.1181
     22  CG         7.8950   23.5730   19.6430 C.2    36  ASN36       0.2629
     23  OD1        7.7810   22.3490   19.4970 O.2    36  ASN36      -0.2716
     24  ND2        8.3760   24.0960   20.7540 N.am   36  ASN36      -0.0877
     25  N          7.3620   24.6370   12.9520 N.3    38  LEU38      -0.1231
     26  CA         7.0670   23.7150   11.8480 C.3    38  LEU38       0.1693
     27  C          5.8520   22.8500   12.2080 C.2    38  LEU38       0.2591
     28  O          4.9490   22.6900   11.3890 O.2    38  LEU38      -0.2718
     29  CB         8.2970   22.8440   11.5660 C.3    38  LEU38       0.0284
     30  CG         8.1060   21.7200   10.5530 C.3    38  LEU38       0.0019
     31  CD1        7.7470   22.2790    9.1710 C.3    38  LEU38       0.0001
     32  CD2        9.3700   20.8900   10.4430 C.3    38  LEU38       0.0001
     33  N          5.8200   22.3190   13.4450 N.am   39  ALA39      -0.1980
     34  CA         4.6880   21.5030   13.8880 C.3    39  ALA39       0.1597
     35  C          3.3780   22.2930   13.8360 C.2    39  ALA39       0.2287
     36  O          2.3520   21.7620   13.3950 O.2    39  ALA39      -0.2864
     37  CB         4.9230   20.9750   15.2970 C.3    39  ALA39       0.0319
     38  N          2.3400   22.5720   10.2150 N.3    42  GLN42      -0.1245
     39  CA         1.8420   21.2700    9.7500 C.3    42  GLN42       0.1566
     40  C          0.4860   20.9620   10.3390 C.2    42  GLN42       0.2260
     41  O         -0.3370   20.3320    9.6810 O.2    42  GLN42      -0.2867
     42  CB         2.8460   20.1650   10.0930 C.3    42  GLN42       0.0367
     43  CG         4.0910   20.2760    9.2260 C.3    42  GLN42       0.0905
     44  CD         5.0150   19.1420    9.4620 C.2    42  GLN42       0.2608
     45  OE1        4.8230   18.3210   10.3610 O.2    42  GLN42      -0.2717
     46  NE2        6.0790   19.0900    8.6760 N.am   42  GLN42      -0.0878
     47  N         -2.2850   14.3270   17.2100 N.3    72  TRP72      -0.1227
     48  CA        -1.3800   15.2270   16.4910 C.3    72  TRP72       0.1737
     49  C          0.0570   14.7220   16.3950 C.2    72  TRP72       0.2595
     50  O          0.6300   14.7120   15.3070 O.2    72  TRP72      -0.2718
     51  CB        -1.4520   16.6540   17.0520 C.3    72  TRP72       0.0564
     52  CG        -0.7380   16.9170   18.3220 C.ar   72  TRP72       0.0003
     53  CD1       -1.1980   16.7150   19.5900 C.ar   72  TRP72       0.0946
     54  CD2        0.5660   17.4770   18.4470 C.ar   72  TRP72       0.0152
     55  NE1       -0.2370   17.0920   20.5030 N.ar   72  TRP72      -0.2442
     56  CE2        0.8410   17.6010   19.8280 C.ar   72  TRP72       0.0810
     57  CE3        1.5330   17.9030   17.5200 C.ar   72  TRP72       0.0012
     58  CZ2        2.0520   18.1170   20.3070 C.ar   72  TRP72       0.0191
     59  CZ3        2.7320   18.4150   17.9970 C.ar   72  TRP72       0.0001
     60  CH2        2.9800   18.5110   19.3760 C.ar   72  TRP72       0.0015
     61  N          0.6090   14.2680   17.5160 N.am   73  MET73      -0.1979
     62  CA         2.0230   13.8360   17.5580 C.3    73  MET73       0.1605
     63  C          2.2060   12.5800   16.7390 C.2    73  MET73       0.2287
     64  O          3.2630   12.3950   16.1370 O.2    73  MET73      -0.2864
     65  CB         2.4960   13.6640   19.0240 C.3    73  MET73       0.0413
     66  CG         4.0280   13.3920   19.1830 C.3    73  MET73       0.0598
     67  SD         5.0170   14.8440   18.7300 S.3    73  MET73      -0.1393
     68  CE         4.8620   15.8270   20.2700 C.3    73  MET73       0.0692
     69  N          2.1710   13.7030   12.9770 N.3    76  LEU76      -0.1231
     70  CA         3.3750   14.4070   12.5610 C.3    76  LEU76       0.1693
     71  C          4.5980   13.5010   12.5740 C.2    76  LEU76       0.2592
     72  O          5.4790   13.6850   11.7300 O.2    76  LEU76      -0.2718
     73  CB         3.6180   15.6460   13.4200 C.3    76  LEU76       0.0284
     74  CG         2.5140   16.7010   13.3700 C.3    76  LEU76       0.0019
     75  CD1        3.0130   17.9760   13.9620 C.3    76  LEU76       0.0001
     76  CD2        2.0340   16.9630   11.9400 C.3    76  LEU76       0.0001
     77  N          4.6960   12.5660   13.5440 N.am   77  SER77      -0.1952
     78  CA         5.8680   11.6920   13.6070 C.3    77  SER77       0.1924
     79  C          5.8510   10.6660   12.4700 C.2    77  SER77       0.2314
     80  O          6.9030   10.3470   11.9190 O.2    77  SER77      -0.2863
     81  CB         5.9860   11.0070   14.9700 C.3    77  SER77       0.2116
     82  OG         4.8470   10.2290   15.3040 O.3    77  SER77      -0.2180
     83  N          6.9140   12.4720    9.4020 N.3    80  LEU80      -0.1245
     84  CA         8.3730   12.7020    9.4610 C.3    80  LEU80       0.1561
     85  C          9.1070   11.4280    9.0100 C.2    80  LEU80       0.2260
     86  O         10.0780   11.5260    8.2520 O.2    80  LEU80      -0.2867
     87  CB         8.7820   13.0700   10.9010 C.3    80  LEU80       0.0270
     88  CG        10.2790   13.0880   11.2130 C.3    80  LEU80       0.0019
     89  CD1       10.9980   14.1200   10.3570 C.3    80  LEU80       0.0001
     90  CD2       10.4670   13.4320   12.6810 C.3    80  LEU80       0.0001
     91  N          8.7920   11.1760    5.1630 N.3    83  ARG83      -0.1245
     92  CA         9.6920   12.0640    4.4080 C.3    83  ARG83       0.1563
     93  C         11.1290   11.5890    4.5350 C.2    83  ARG83       0.2260
     94  O         11.8820   11.6850    3.5720 O.2    83  ARG83      -0.2867
     95  CB         9.6060   13.4770    4.9600 C.3    83  ARG83       0.0307
     96  CG         8.2680   14.1400    4.6380 C.3    83  ARG83       0.0489
     97  CD         8.3210   15.6380    4.9520 C.3    83  ARG83       0.2205
     98  NE         8.6260   15.9260    6.3600 N.pl3  83  ARG83      -0.0865
     99  CZ         7.7420   15.9300    7.3570 C.cat  83  ARG83       0.5346
    100  NH1        6.4690   15.5820    7.1350 N.pl3  83  ARG83       0.1354
    101  NH2        8.1250   16.2460    8.5870 N.pl3  83  ARG83       0.1354
    102  N         16.8400   12.4800    9.4210 N.3    93  LEU93      -0.1245
    103  CA        15.4740   12.8740    9.7620 C.3    93  LEU93       0.1561
    104  C         15.1150   14.1210    8.9450 C.2    93  LEU93       0.2260
    105  O         15.6620   15.2170    9.1820 O.2    93  LEU93      -0.2867
    106  CB        15.2900   13.1270   11.2700 C.3    93  LEU93       0.0270
    107  CG        15.3870   11.8610   12.1250 C.3    93  LEU93       0.0019
    108  CD1       15.4640   12.2230   13.5990 C.3    93  LEU93       0.0001
    109  CD2       14.1640   10.9470   11.9050 C.3    93  LEU93       0.0001
    110  N         12.9740   16.6930    8.5500 N.3    95  PHE95      -0.1241
    111  CA        11.8770   17.5030    9.0970 C.3    95  PHE95       0.1605
    112  C         11.2110   18.3650    8.0190 C.2    95  PHE95       0.2264
    113  O          9.9800   18.4660    7.9520 O.2    95  PHE95      -0.2867
    114  CB        12.3510   18.3730   10.2670 C.3    95  PHE95       0.0534
    115  CG        12.6380   17.5460   11.4940 C.ar   95  PHE95      -0.0203
    116  CD1       13.9010   17.0120   11.7090 C.ar   95  PHE95      -0.0042
    117  CD2       11.6480   17.3000   12.4430 C.ar   95  PHE95      -0.0042
    118  CE1       14.1650   16.2140   12.8370 C.ar   95  PHE95      -0.0003
    119  CE2       11.9330   16.5670   13.6020 C.ar   95  PHE95      -0.0003
    120  CZ        13.1960   16.0210   13.7920 C.ar   95  PHE95      -0.0000
    121  N         17.2140   16.2490   22.1960 N.3   111  MET111     -0.1245
    122  CA        16.2780   15.1400   21.9880 C.3   111  MET111      0.1570
    123  C         16.9580   13.9610   21.3100 C.2   111  MET111      0.2261
    124  O         16.2960   13.1980   20.6060 O.2   111  MET111     -0.2867
    125  CB        15.0970   15.5920   21.0810 C.3   111  MET111      0.0387
    126  CG        14.3260   16.7020   21.6000 C.3   111  MET111      0.0595
    127  SD        12.8390   16.9500   20.6160 S.3   111  MET111     -0.1393
    128  CE        12.0480   15.2950   20.6700 C.3   111  MET111      0.0692
    129  N         15.1920   11.2460   18.9290 N.3   115  CYS115     -0.1235
    130  CA        15.4810   11.2630   17.4790 C.3   115  CYS115      0.1677
    131  C         15.9040    9.8520   17.0210 C.2   115  CYS115      0.2270
    132  O         15.5330    9.4390   15.9250 O.2   115  CYS115     -0.2867
    133  CB        16.5690   12.2770   17.1570 C.3   115  CYS115      0.0956
    134  SG        16.0260   13.9910   17.2180 S.3   115  CYS115     -0.0801
    135  N         12.8180    7.8190   16.6190 N.3   118  MET118     -0.1245
    136  CA        12.1690    8.1770   15.3800 C.3   118  MET118      0.1570
    137  C         12.8660    7.5330   14.1920 C.2   118  MET118      0.2261
    138  O         12.2110    7.0140   13.2890 O.2   118  MET118     -0.2867
    139  CB        12.1670    9.7160   15.2260 C.3   118  MET118      0.0387
    140  CG        11.3360   10.1800   14.0840 C.3   118  MET118      0.0595
    141  SD         9.5880   10.1490   14.5900 S.3   118  MET118     -0.1393
    142  CE         9.0410    8.6520   13.8090 C.3   118  MET118      0.0692
    143  N          7.6350   11.0560   23.0310 N.3   204  LEU204     -0.1245
    144  CA         7.7210   12.3870   22.4010 C.3   204  LEU204      0.1561
    145  C          6.8460   13.3770   23.1700 C.2   204  LEU204      0.2260
    146  O          7.2940   14.4930   23.4780 O.2   204  LEU204     -0.2867
    147  CB         7.3080   12.3510   20.9180 C.3   204  LEU204      0.0270
    148  CG         8.2790   11.6770   19.9630 C.3   204  LEU204      0.0019
    149  CD1        7.6410   11.4810   18.6110 C.3   204  LEU204      0.0001
    150  CD2        9.5860   12.5070   19.8140 C.3   204  LEU204      0.0001
    151  N          8.2590   14.6020   26.5640 N.3   207  PHE207     -0.1227
    152  CA         9.2440   15.6760   26.4740 C.3   207  PHE207      0.1736
    153  C          8.6020   16.9820   26.0500 C.2   207  PHE207      0.2595
    154  O          9.0060   18.0540   26.5270 O.2   207  PHE207     -0.2718
    155  CB        10.3760   15.2880   25.5190 C.3   207  PHE207      0.0547
    156  CG        11.5240   16.2600   25.5740 C.ar  207  PHE207     -0.0202
    157  CD1       12.2190   16.4790   26.7620 C.ar  207  PHE207     -0.0042
    158  CD2       11.9100   16.9620   24.4460 C.ar  207  PHE207     -0.0042
    159  CE1       13.3020   17.3770   26.8100 C.ar  207  PHE207     -0.0003
    160  CE2       12.9980   17.8500   24.4930 C.ar  207  PHE207     -0.0003
    161  CZ        13.7020   18.0320   25.6650 C.ar  207  PHE207     -0.0000
    162  N          7.6170   16.9070   25.1470 N.am  208  CYS208     -0.1970
    163  CA         6.9070   18.1060   24.6840 C.3   208  CYS208      0.1712
    164  C          6.1790   18.7580   25.8530 C.2   208  CYS208      0.2296
    165  O          6.2360   19.9820   26.0080 O.2   208  CYS208     -0.2864
    166  CB         5.9420   17.7360   23.5690 C.3   208  CYS208      0.0983
    167  SG         5.2380   19.1630   22.7240 S.3   208  CYS208     -0.0798
    168  N          8.7830   20.5500   28.1560 N.3   211  THR211     -0.1218
    169  CA         9.2580   21.8640   27.6750 C.3   211  THR211      0.1862
    170  C          8.1270   22.8990   27.6820 C.2   211  THR211      0.2287
    171  O          8.3800   24.0950   27.9230 O.2   211  THR211     -0.2866
    172  CB         9.9650   21.7720   26.3070 C.3   211  THR211      0.1770
    173  OG1        8.9990   21.4940   25.3100 O.3   211  THR211     -0.2211
    174  CG2       11.0240   20.6550   26.2720 C.3   211  THR211      0.0375
    175  N         11.9110   28.0390   25.0770 N.3   217  VAL217     -0.1245
    176  CA        11.3590   27.1980   24.0000 C.3   217  VAL217      0.1561
    177  C         10.0200   27.8180   23.6500 C.2   217  VAL217      0.2260
    178  O          9.1570   27.9180   24.5290 O.2   217  VAL217     -0.2867
    179  CB        11.2270   25.6990   24.3320 C.3   217  VAL217      0.0252
    180  CG1       10.5790   24.9380   23.1630 C.3   217  VAL217      0.0019
    181  CG2       12.6000   25.0840   24.6670 C.3   217  VAL217      0.0019
    182  N          6.3780   28.2470   21.5720 N.3   219  PHE219     -0.1241
    183  CA         5.3130   27.4560   20.9710 C.3   219  PHE219      0.1605
    184  C          4.3680   28.3800   20.1870 C.2   219  PHE219      0.2264
    185  O          3.9520   29.4180   20.7170 O.2   219  PHE219     -0.2867
    186  CB         4.5040   26.6820   22.0410 C.3   219  PHE219      0.0534
    187  CG         5.2250   25.4950   22.6320 C.ar  219  PHE219     -0.0203
    188  CD1        6.1440   25.6590   23.6750 C.ar  219  PHE219     -0.0042
    189  CD2        4.9890   24.2080   22.1490 C.ar  219  PHE219     -0.0042
    190  CE1        6.8440   24.5570   24.1920 C.ar  219  PHE219     -0.0003
    191  CE2        5.7030   23.1110   22.6580 C.ar  219  PHE219     -0.0003
    192  CZ         6.6010   23.2950   23.6940 C.ar  219  PHE219     -0.0000
@<TRIPOS>BOND
     1    94    93    2
     2    92    93    1
     3    92    95    1
     4    92    91    1
     5    96    97    1
     6    96    95    1
     7    97    98    1
     8    98    99    2
     9   100    99    1
    10    99   101    1
    11   113   112    2
    12   112   111    1
    13    86    85    2
    14   110   111    1
    15    46    44   am
    16   104   105    2
    17   104   103    1
    18    85    84    1
    19   111   114    1
    20    31    30    1
    21    43    44    1
    22    43    42    1
    23    83    84    1
    24   102   103    1
    25    84    87    1
    26    44    45    2
    27    41    40    2
    28    39    42    1
    29    39    38    1
    30    39    40    1
    31   103   106    1
    32   114   115    1
    33    89    88    1
    34    32    30    1
    35    30    29    1
    36    87    88    1
    37    88    90    1
    38   106   107    1
    39    28    27    2
    40   115   116   ar
    41   115   117   ar
    42    29    26    1
    43   116   118   ar
    44    72    71    2
    45    26    27    1
    46    26    25    1
    47   109   107    1
    48    80    79    2
    49    76    74    1
    50   107   108    1
    51    27    33   am
    52   117   119   ar
    53    79    78    1
    54    70    71    1
    55    70    69    1
    56    70    73    1
    57    71    77   am
    58   118   120   ar
    59   138   137    2
    60    74    73    1
    61    74    75    1
    62    36    35    2
    63    33    34    1
    64    77    78    1
    65   119   120   ar
    66    78    81    1
    67   142   141    1
    68    35    34    1
    69    34    37    1
    70   140   141    1
    71   140   139    1
    72   137   136    1
    73    16    14    1
    74    81    82    1
    75    12    11    2
    76   139   136    1
    77    50    49    2
    78    10     9    1
    79    10    11    1
    80    10    13    1
    81   136   135    1
    82    11    17   am
    83    14    13    1
    84    14    15    1
    85   132   131    2
    86    20    19    2
    87    64    63    2
    88    19    18    1
    89    49    48    1
    90    49    61   am
    91    48    51    1
    92    48    47    1
    93    63    62    1
    94    17    18    1
    95   131   130    1
    96    51    52    1
    97   133   134    1
    98   133   130    1
    99    18    21    1
   100   130   129    1
   101    61    62    1
   102    57    59   ar
   103    57    54   ar
   104    62    65    1
   105    59    60   ar
   106    52    54   ar
   107    52    53   ar
   108    54    56   ar
   109    21    22    1
   110   149   148    1
   111     4     3    2
   112    67    66    1
   113    67    68    1
   114    65    66    1
   115     1     2    1
   116     3     2    1
   117    60    58   ar
   118     2     5    1
   119    23    22    2
   120    53    55   ar
   121    22    24   am
   122   150   148    1
   123    56    58   ar
   124    56    55   ar
   125   148   147    1
   126   184   185    2
   127   184   183    1
   128   124   123    2
   129   127   128    1
   130   127   126    1
   131     8     6    1
   132   147   144    1
   133   183   182    1
   134   183   186    1
   135     5     6    1
   136   125   126    1
   137   125   122    1
   138   123   122    1
   139     6     7    1
   140   122   121    1
   141   186   187    1
   142   189   187   ar
   143   189   191   ar
   144   144   143    1
   145   144   145    1
   146   187   188   ar
   147   191   192   ar
   148   167   166    1
   149   180   179    1
   150   145   146    2
   151   166   163    1
   152   177   176    1
   153   177   178    2
   154   188   190   ar
   155   192   190   ar
   156   176   179    1
   157   176   175    1
   158   179   181    1
   159   158   160   ar
   160   158   156   ar
   161   160   161   ar
   162   163   162    1
   163   163   164    1
   164   162   153   am
   165   173   172    1
   166   155   156    1
   167   155   152    1
   168   156   157   ar
   169   161   159   ar
   170   164   165    2
   171   153   152    1
   172   153   154    2
   173   174   172    1
   174   172   169    1
   175   152   151    1
   176   157   159   ar
   177   169   170    1
   178   169   168    1
   179   170   171    2
