@<TRIPOS>MOLECULE
tmp/6gffI02.pdb
 97 91 0 0 0
SMALL
GASTEIGER

@<TRIPOS>ATOM
      1  N         24.8080   74.0010   20.4490 N.3   254  SER254     -0.1202
      2  CA        25.7900   72.9280   20.4190 C.3   254  SER254      0.2020
      3  C         25.2090   71.6440   21.0000 C.2   254  SER254      0.2618
      4  O         24.3420   71.6670   21.8760 O.2   254  SER254     -0.2717
      5  CB        27.0450   73.3280   21.1930 C.3   254  SER254      0.2103
      6  OG        27.9930   72.2760   21.2190 O.3   254  SER254     -0.2182
      7  N         25.6990   70.5130   20.4890 N.am  255  ASN255     -0.1974
      8  CA        25.3240   69.1780   20.9570 C.3   255  ASN255      0.1688
      9  C         23.8110   68.9600   20.8410 C.2   255  ASN255      0.2292
     10  O         23.0710   68.9090   21.8230 O.2   255  ASN255     -0.2864
     11  CB        25.8210   68.9370   22.3870 C.3   255  ASN255      0.1181
     12  CG        27.3030   68.6170   22.4380 C.2   255  ASN255      0.2629
     13  OD1       27.7040   67.4610   22.2930 O.2   255  ASN255     -0.2716
     14  ND2       28.1260   69.6420   22.6360 N.am  255  ASN255     -0.0877
     15  N         26.8330   85.8510   18.2700 N.3   279  ASN279     -0.1240
     16  CA        27.5380   84.6010   18.5270 C.3   279  ASN279      0.1653
     17  C         26.5800   83.4420   18.2960 C.2   279  ASN279      0.2266
     18  O         25.5040   83.3910   18.9030 O.2   279  ASN279     -0.2867
     19  CB        28.0890   84.5730   19.9550 C.3   279  ASN279      0.1155
     20  CG        29.0930   83.4550   20.1770 C.2   279  ASN279      0.2627
     21  OD1       29.1690   82.5020   19.4010 O.2   279  ASN279     -0.2716
     22  ND2       29.8720   83.5690   21.2480 N.am  279  ASN279     -0.0877
     23  N         26.6440   79.1560   18.0200 N.3   281  ASP281     -0.1239
     24  CA        27.3460   77.8880   18.1650 C.3   281  ASP281      0.1674
     25  C         26.4250   76.7830   17.6650 C.2   281  ASP281      0.2266
     26  O         25.4560   76.4200   18.3420 O.2   281  ASP281     -0.2867
     27  CB        27.7590   77.6500   19.6150 C.3   281  ASP281      0.1410
     28  CG        28.8010   76.5560   19.7550 C.2   281  ASP281      0.3668
     29  OD1       28.9600   75.7530   18.8120 O.co2 281  ASP281     -0.2456
     30  OD2       29.4650   76.5010   20.8110 O.co2 281  ASP281     -0.2456
     31  N         27.9250   73.8260   16.7550 N.3   283  SER283     -0.1202
     32  CA        28.8370   72.6960   16.7910 C.3   283  SER283      0.2020
     33  C         28.1360   71.4430   17.3070 C.2   283  SER283      0.2618
     34  O         27.0990   71.5040   17.9710 O.2   283  SER283     -0.2717
     35  CB        30.0510   73.0110   17.6650 C.3   283  SER283      0.2103
     36  OG        29.6640   73.2490   19.0080 O.3   283  SER283     -0.2182
     37  N         28.7270   70.2940   16.9870 N.am  284  TYR284     -0.1975
     38  CA        28.2360   68.9880   17.4230 C.3   284  TYR284      0.1639
     39  C         26.7650   68.7990   17.0480 C.2   284  TYR284      0.2290
     40  O         25.8810   68.6690   17.8950 O.2   284  TYR284     -0.2864
     41  CB        28.4620   68.7980   18.9240 C.3   284  TYR284      0.0560
     42  CG        29.9160   68.5930   19.2720 C.ar  284  TYR284     -0.0198
     43  CD1       30.7420   69.6750   19.5430 C.ar  284  TYR284     -0.0009
     44  CD2       30.4670   67.3200   19.3120 C.ar  284  TYR284     -0.0009
     45  CE1       32.0740   69.4950   19.8540 C.ar  284  TYR284      0.0417
     46  CE2       31.7990   67.1300   19.6230 C.ar  284  TYR284      0.0417
     47  CZ        32.5970   68.2200   19.8950 C.ar  284  TYR284      0.1957
     48  OH        33.9240   68.0310   20.2030 O.3   284  TYR284     -0.2866
     49  N         30.6570   85.6380   15.4420 N.3   303  PHE303     -0.1227
     50  CA        31.2440   84.3300   15.6960 C.3   303  PHE303      0.1736
     51  C         30.2880   83.2440   15.2260 C.2   303  PHE303      0.2595
     52  O         29.0870   83.3030   15.5090 O.2   303  PHE303     -0.2718
     53  CB        31.5610   84.1500   17.1820 C.3   303  PHE303      0.0547
     54  CG        32.3780   85.2660   17.7640 C.ar  303  PHE303     -0.0202
     55  CD1       33.7590   85.2580   17.6670 C.ar  303  PHE303     -0.0042
     56  CD2       31.7630   86.3280   18.4060 C.ar  303  PHE303     -0.0042
     57  CE1       34.5090   86.2860   18.2030 C.ar  303  PHE303     -0.0003
     58  CE2       32.5090   87.3600   18.9420 C.ar  303  PHE303     -0.0003
     59  CZ        33.8830   87.3380   18.8410 C.ar  303  PHE303     -0.0000
     60  N         30.8270   82.2560   14.5150 N.am  304  LEU304     -0.1966
     61  CA        30.0410   81.1440   13.9870 C.3   304  LEU304      0.1728
     62  C         30.8640   79.8740   14.1360 C.2   304  LEU304      0.2616
     63  O         31.9020   79.7260   13.4840 O.2   304  LEU304     -0.2715
     64  CB        29.6610   81.3780   12.5250 C.3   304  LEU304      0.0311
     65  CG        28.9950   80.2090   11.7970 C.3   304  LEU304      0.0022
     66  CD1       27.6710   79.8470   12.4530 C.3   304  LEU304      0.0001
     67  CD2       28.8020   80.5310   10.3230 C.3   304  LEU304      0.0001
     68  N         30.4040   78.9590   14.9850 N.am  305  ASN305     -0.1972
     69  CA        31.0780   77.6880   15.2090 C.3   305  ASN305      0.1688
     70  C         30.2580   76.5780   14.5640 C.2   305  ASN305      0.2292
     71  O         29.1150   76.3310   14.9650 O.2   305  ASN305     -0.2864
     72  CB        31.2750   77.4160   16.7020 C.3   305  ASN305      0.1181
     73  CG        32.2040   76.2380   16.9610 C.2   305  ASN305      0.2629
     74  OD1       32.3710   75.3740   16.1040 O.2   305  ASN305     -0.2716
     75  ND2       32.8140   76.1960   18.1430 N.am  305  ASN305     -0.0877
     76  N         31.9460   73.4730   14.1190 N.3   307  SER307     -0.1217
     77  CA        32.8340   72.3400   14.3320 C.3   307  SER307      0.1889
     78  C         32.0360   71.0750   14.6240 C.2   307  SER307      0.2288
     79  O         30.9330   71.1210   15.1720 O.2   307  SER307     -0.2866
     80  CB        33.7960   72.6280   15.4860 C.3   307  SER307      0.2089
     81  OG        34.5430   71.4740   15.8310 O.3   307  SER307     -0.2183
     82  N         35.2060   85.2250   13.4220 N.3   327  LEU327     -0.1245
     83  CA        35.7140   83.8710   13.5800 C.3   327  LEU327      0.1561
     84  C         34.7820   82.8850   12.8950 C.2   327  LEU327      0.2260
     85  O         33.5570   83.0030   12.9920 O.2   327  LEU327     -0.2867
     86  CB        35.8770   83.4980   15.0620 C.3   327  LEU327      0.0270
     87  CG        36.5410   82.1510   15.3730 C.3   327  LEU327      0.0019
     88  CD1       37.4450   82.2720   16.5900 C.3   327  LEU327      0.0001
     89  CD2       35.5020   81.0560   15.5940 C.3   327  LEU327      0.0001
     90  N         34.6280   78.6500   12.5780 N.3   329  ASP329     -0.1239
     91  CA        35.1520   77.3470   12.9780 C.3   329  ASP329      0.1674
     92  C         34.4120   76.2720   12.1910 C.2   329  ASP329      0.2266
     93  O         33.2420   75.9860   12.4680 O.2   329  ASP329     -0.2867
     94  CB        34.9990   77.1350   14.4840 C.3   329  ASP329      0.1410
     95  CG        35.8550   75.9920   15.0070 C.2   329  ASP329      0.3668
     96  OD1       36.1150   75.0360   14.2450 O.co2 329  ASP329     -0.2456
     97  OD2       36.2680   76.0520   16.1860 O.co2 329  ASP329     -0.2456
@<TRIPOS>BOND
     1    67    65    1
     2    65    66    1
     3    65    64    1
     4    92    93    2
     5    92    91    1
     6    64    61    1
     7    90    91    1
     8    84    85    2
     9    84    83    1
    10    91    94    1
    11    82    83    1
    12    63    62    2
    13    83    86    1
    14    61    62    1
    15    61    60    1
    16    76    77    1
    17    62    68   am
    18    96    95   ar
    19    77    78    1
    20    77    80    1
    21    94    95    1
    22    60    51   am
    23    70    71    2
    24    70    69    1
    25    78    79    2
    26    68    69    1
    27    95    97   ar
    28    86    87    1
    29    69    72    1
    30    51    52    2
    31    51    50    1
    32    87    89    1
    33    87    88    1
    34    49    50    1
    35    80    81    1
    36    50    53    1
    37    74    73    2
    38    72    73    1
    39    31    32    1
    40    32    33    1
    41    32    35    1
    42    73    75   am
    43    37    33   am
    44    37    38    1
    45    39    38    1
    46    39    40    2
    47    53    54    1
    48    33    34    2
    49    38    41    1
    50    25    24    1
    51    25    26    2
    52    35    36    1
    53    55    54   ar
    54    55    57   ar
    55    54    56   ar
    56    23    24    1
    57    24    27    1
    58    57    59   ar
    59    15    16    1
    60    17    16    1
    61    17    18    2
    62    56    58   ar
    63    16    19    1
    64    29    28   ar
    65    59    58   ar
    66    41    42    1
    67    42    44   ar
    68    42    43   ar
    69    44    46   ar
    70    21    20    2
    71    43    45   ar
    72    27    28    1
    73    46    47   ar
    74    28    30   ar
    75    45    47   ar
    76    47    48    1
    77    19    20    1
    78    20    22   am
    79     2     1    1
    80     2     3    1
    81     2     5    1
    82     7     8    1
    83     7     3   am
    84     9     8    1
    85     9    10    2
    86     8    11    1
    87     3     4    2
    88     5     6    1
    89    13    12    2
    90    11    12    1
    91    12    14   am
