@<TRIPOS>MOLECULE
tmp/6gffI00.pdb
 101 97 0 0 0
SMALL
GASTEIGER

@<TRIPOS>ATOM
      1  N         15.7040   81.0450   39.2590 N.3   160  ASP160     -0.1239
      2  CA        16.6270   79.9470   38.9950 C.3   160  ASP160      0.1674
      3  C         15.9350   78.6280   39.3130 C.2   160  ASP160      0.2266
      4  O         15.5300   78.3960   40.4580 O.2   160  ASP160     -0.2867
      5  CB        17.9030   80.1020   39.8210 C.3   160  ASP160      0.1410
      6  CG        19.0110   79.1790   39.3590 C.2   160  ASP160      0.3668
      7  OD1       18.7830   78.4070   38.4050 O.co2 160  ASP160     -0.2456
      8  OD2       20.1120   79.2280   39.9470 O.co2 160  ASP160     -0.2456
      9  N         17.3170   75.4790   37.9120 N.3   162  HIS162     -0.1241
     10  CA        18.1500   74.4420   37.3270 C.3   162  HIS162      0.1621
     11  C         18.2110   73.2180   38.2370 C.2   162  HIS162      0.2264
     12  O         17.9110   73.2830   39.4300 O.2   162  HIS162     -0.2867
     13  CB        19.5590   74.9730   37.0290 C.3   162  HIS162      0.0745
     14  CG        20.4290   75.1330   38.2370 C.ar  162  HIS162      0.0817
     15  ND1       21.1110   74.0830   38.8110 N.ar  162  HIS162     -0.2268
     16  CD2       20.7510   76.2290   38.9620 C.ar  162  HIS162      0.1154
     17  CE1       21.8030   74.5220   39.8470 C.ar  162  HIS162      0.1986
     18  NE2       21.6020   75.8220   39.9600 N.ar  162  HIS162     -0.2212
     19  N         15.5630   87.0520   33.8810 N.3   182  HIS182     -0.1226
     20  CA        16.4760   85.9170   33.8130 C.3   182  HIS182      0.1752
     21  C         15.7400   84.6710   34.2810 C.2   182  HIS182      0.2596
     22  O         15.2280   84.6370   35.4050 O.2   182  HIS182     -0.2718
     23  CB        17.7290   86.1560   34.6610 C.3   182  HIS182      0.0759
     24  CG        18.5950   87.2730   34.1650 C.ar  182  HIS182      0.0818
     25  ND1       18.1850   88.5900   34.1610 N.ar  182  HIS182     -0.2268
     26  CD2       19.8490   87.2680   33.6550 C.ar  182  HIS182      0.1154
     27  CE1       19.1500   89.3470   33.6700 C.ar  182  HIS182      0.1986
     28  NE2       20.1700   88.5700   33.3540 N.ar  182  HIS182     -0.2212
     29  N         15.6870   83.6550   33.4230 N.am  183  LEU183     -0.1966
     30  CA        15.0400   82.3870   33.7420 C.3   183  LEU183      0.1728
     31  C         15.9970   81.2630   33.3820 C.2   183  LEU183      0.2616
     32  O         16.4450   81.1700   32.2340 O.2   183  LEU183     -0.2715
     33  CB        13.7140   82.2340   32.9900 C.3   183  LEU183      0.0311
     34  CG        12.9450   80.9300   33.2110 C.3   183  LEU183      0.0022
     35  CD1       12.6670   80.7140   34.6900 C.3   183  LEU183      0.0001
     36  CD2       11.6490   80.9440   32.4170 C.3   183  LEU183      0.0001
     37  N         16.3090   80.4140   34.3580 N.am  184  ASN184     -0.1972
     38  CA        17.2850   79.3420   34.1900 C.3   184  ASN184      0.1688
     39  C         16.5750   78.0080   34.3740 C.2   184  ASN184      0.2292
     40  O         16.1190   77.6880   35.4770 O.2   184  ASN184     -0.2864
     41  CB        18.4360   79.5000   35.1830 C.3   184  ASN184      0.1181
     42  CG        19.6360   78.6470   34.8270 C.2   184  ASN184      0.2629
     43  OD1       19.4990   77.5340   34.3180 O.2   184  ASN184     -0.2716
     44  ND2       20.8260   79.1710   35.0880 N.am  184  ASN184     -0.0877
     45  N         18.1380   75.0490   33.1450 N.3   186  SER186     -0.1202
     46  CA        19.1500   74.0730   32.7830 C.3   186  SER186      0.2020
     47  C         19.0210   72.8280   33.6520 C.2   186  SER186      0.2618
     48  O         18.5180   72.8740   34.7760 O.2   186  SER186     -0.2717
     49  CB        20.5510   74.6670   32.9240 C.3   186  SER186      0.2103
     50  OG        21.5500   73.7170   32.5900 O.3   186  SER186     -0.2182
     51  N         19.4790   71.7030   33.1120 N.am  187  ARG187     -0.1979
     52  CA        19.4230   70.4050   33.7820 C.3   187  ARG187      0.1597
     53  C         17.9960   70.1110   34.2540 C.2   187  ARG187      0.2287
     54  O         17.6820   70.1120   35.4450 O.2   187  ARG187     -0.2864
     55  CB        20.4110   70.3690   34.9530 C.3   187  ARG187      0.0334
     56  CG        21.8420   70.4090   34.5000 C.3   187  ARG187      0.0492
     57  CD        22.8260   70.3050   35.6460 C.3   187  ARG187      0.2205
     58  NE        22.7390   69.0060   36.2990 N.pl3 187  ARG187     -0.0865
     59  CZ        23.6800   68.0650   36.1720 C.cat 187  ARG187      0.5346
     60  NH1       24.7490   68.2830   35.3990 N.pl3 187  ARG187      0.1354
     61  NH2       23.5610   66.8950   36.7960 N.pl3 187  ARG187      0.1354
     62  N         17.2670   86.7780   29.3600 N.3   203  VAL203     -0.1245
     63  CA        18.1770   85.6390   29.4130 C.3   203  VAL203      0.1561
     64  C         17.3660   84.3820   29.6970 C.2   203  VAL203      0.2260
     65  O         16.5950   84.3390   30.6620 O.2   203  VAL203     -0.2867
     66  CB        19.2710   85.8430   30.4780 C.3   203  VAL203      0.0252
     67  CG1       20.1780   84.6310   30.5490 C.3   203  VAL203      0.0019
     68  CG2       20.0740   87.1040   30.1780 C.3   203  VAL203      0.0019
     69  N         17.8900   80.0710   29.7740 N.3   205  ASP205     -0.1239
     70  CA        18.7930   78.9240   29.7410 C.3   205  ASP205      0.1674
     71  C         17.9560   77.6500   29.7180 C.2   205  ASP205      0.2266
     72  O         17.3540   77.2770   30.7310 O.2   205  ASP205     -0.2867
     73  CB        19.7350   78.9460   30.9450 C.3   205  ASP205      0.1410
     74  CG        20.9100   77.9930   30.7940 C.2   205  ASP205      0.3668
     75  OD1       20.7760   76.9650   30.0980 O.co2 205  ASP205     -0.2456
     76  OD2       21.9770   78.2750   31.3790 O.co2 205  ASP205     -0.2456
     77  N         19.6190   86.3370   24.9850 N.3   228  TRP228     -0.1241
     78  CA        20.5500   85.2670   25.3310 C.3   228  TRP228      0.1605
     79  C         19.7380   83.9890   25.4880 C.2   228  TRP228      0.2264
     80  O         18.9990   83.8390   26.4650 O.2   228  TRP228     -0.2867
     81  CB        21.3080   85.5970   26.6190 C.3   228  TRP228      0.0550
     82  CG        22.4940   84.7230   26.8900 C.ar  228  TRP228      0.0003
     83  CD1       23.7980   85.0010   26.5990 C.ar  228  TRP228      0.0946
     84  CD2       22.4890   83.4320   27.5130 C.ar  228  TRP228      0.0152
     85  NE1       24.6040   83.9640   27.0010 N.ar  228  TRP228     -0.2442
     86  CE2       23.8250   82.9880   27.5630 C.ar  228  TRP228      0.0810
     87  CE3       21.4840   82.6080   28.0280 C.ar  228  TRP228      0.0012
     88  CZ2       24.1830   81.7570   28.1090 C.ar  228  TRP228      0.0191
     89  CZ3       21.8410   81.3880   28.5720 C.ar  228  TRP228      0.0001
     90  CH2       23.1790   80.9750   28.6080 C.ar  228  TRP228      0.0015
     91  N         21.8050   74.1150   24.3870 N.3   232  ARG232     -0.1245
     92  CA        22.8120   73.0810   24.1800 C.3   232  ARG232      0.1563
     93  C         22.4240   71.7870   24.8760 C.2   232  ARG232      0.2260
     94  O         21.6490   71.7720   25.8360 O.2   232  ARG232     -0.2867
     95  CB        24.1770   73.5640   24.6560 C.3   232  ARG232      0.0307
     96  CG        24.1740   73.9060   26.1150 C.3   232  ARG232      0.0489
     97  CD        25.3690   74.7720   26.4990 C.3   232  ARG232      0.2205
     98  NE        25.2250   75.2790   27.8580 N.pl3 232  ARG232     -0.0865
     99  CZ        25.6030   74.6210   28.9450 C.cat 232  ARG232      0.5346
    100  NH1       26.1190   73.4030   28.8380 N.pl3 232  ARG232      0.1354
    101  NH2       25.4320   75.1630   30.1380 N.pl3 232  ARG232      0.1354
@<TRIPOS>BOND
     1    92    91    1
     2    92    95    1
     3    92    93    1
     4    95    96    1
     5    93    94    2
     6    77    78    1
     7    78    79    1
     8    78    81    1
     9    79    80    2
    10    96    97    1
    11    97    98    1
    12    83    82   ar
    13    83    85   ar
    14    81    82    1
    15    82    84   ar
    16    85    86   ar
    17    84    86   ar
    18    84    87   ar
    19    86    88   ar
    20    98    99    2
    21    87    89   ar
    22    88    90   ar
    23    89    90   ar
    24   100    99    1
    25    99   101    1
    26    62    63    1
    27    63    64    1
    28    63    66    1
    29    64    65    2
    30    71    70    1
    31    71    72    2
    32    70    69    1
    33    70    73    1
    34    75    74   ar
    35    68    66    1
    36    66    67    1
    37    74    73    1
    38    74    76   ar
    39    32    31    2
    40    36    34    1
    41    50    49    1
    42    46    49    1
    43    46    45    1
    44    46    47    1
    45    33    34    1
    46    33    30    1
    47    51    47   am
    48    51    52    1
    49    34    35    1
    50    28    26   ar
    51    28    27   ar
    52    31    30    1
    53    31    37   am
    54    29    30    1
    55    29    21   am
    56    47    48    2
    57    26    24   ar
    58    27    25   ar
    59    52    53    1
    60    52    55    1
    61    20    19    1
    62    20    21    1
    63    20    23    1
    64    25    24   ar
    65    24    23    1
    66    38    37    1
    67    38    39    1
    68    38    41    1
    69    53    54    2
    70    21    22    2
    71    43    42    2
    72    39    40    2
    73    56    55    1
    74    56    57    1
    75    42    44   am
    76    42    41    1
    77    60    59    1
    78    57    58    1
    79    59    58    2
    80    59    61    1
    81    13    10    1
    82    13    14    1
    83    10     9    1
    84    10    11    1
    85    14    15   ar
    86    14    16   ar
    87    11    12    2
    88     7     6   ar
    89    15    17   ar
    90    16    18   ar
    91     2     1    1
    92     2     3    1
    93     2     5    1
    94     3     4    2
    95     6     5    1
    96     6     8   ar
    97    17    18   ar
