@<TRIPOS>MOLECULE
tmp/6gfgB00.pdb
 201 190 0 0 0
SMALL
GASTEIGER

@<TRIPOS>ATOM
      1  N         -3.9800   -7.6230   -4.7740 N.3    25  GLU25      -0.1231
      2  CA        -5.0600   -7.3690   -3.8310 C.3    25  GLU25       0.1699
      3  C         -4.5040   -7.1510   -2.4400 C.2    25  GLU25       0.2593
      4  O         -3.7060   -7.9620   -1.9620 O.2    25  GLU25      -0.2718
      5  CB        -6.0680   -8.5260   -3.8300 C.3    25  GLU25       0.0402
      6  CG        -5.5180   -9.8780   -3.3740 C.3    25  GLU25       0.1161
      7  CD        -6.5340  -11.0130   -3.5250 C.2    25  GLU25       0.3649
      8  OE1       -6.2070  -12.0190   -4.1920 O.co2  25  GLU25      -0.2457
      9  OE2       -7.6600  -10.9030   -2.9850 O.co2  25  GLU25      -0.2457
     10  N         -4.9090   -6.0670   -1.7920 N.am   26  GLY26      -0.1942
     11  CA        -4.6790   -5.9250   -0.3760 C.3    26  GLY26       0.2014
     12  C         -5.6540   -6.7680    0.4090 C.2    26  GLY26       0.2639
     13  O         -6.2420   -7.7270   -0.0890 O.2    26  GLY26      -0.2714
     14  N         -5.8350   -6.3890    1.6610 N.am   27  GLY27      -0.1939
     15  CA        -6.7560   -7.1030    2.5230 C.3    27  GLY27       0.2014
     16  C         -8.1400   -6.4900    2.5220 C.2    27  GLY27       0.2638
     17  O         -8.9310   -6.7180    3.4460 O.2    27  GLY27      -0.2714
     18  N         -8.4320   -5.6970    1.4810 N.am   28  ALA28      -0.1977
     19  CA        -9.6560   -4.9040    1.4400 C.3    28  ALA28       0.1597
     20  C        -10.1730   -4.6570    0.0300 C.2    28  ALA28       0.2287
     21  O        -11.3770   -4.4680   -0.1670 O.2    28  ALA28      -0.2864
     22  CB        -9.4370   -3.5570    2.1400 C.3    28  ALA28       0.0319
     23  N         -5.7360  -18.4380    0.8250 N.3   126  TRP126     -0.1227
     24  CA        -6.1990  -17.8030    2.0510 C.3   126  TRP126      0.1737
     25  C         -6.8570  -16.4540    1.8120 C.2   126  TRP126      0.2595
     26  O         -7.5190  -15.9330    2.7220 O.2   126  TRP126     -0.2718
     27  CB        -5.0330  -17.6060    3.0110 C.3   126  TRP126      0.0564
     28  CG        -3.9880  -16.6710    2.4700 C.ar  126  TRP126      0.0003
     29  CD1       -2.9880  -16.9880    1.6010 C.ar  126  TRP126      0.0946
     30  CD2       -3.8310  -15.2710    2.7680 C.ar  126  TRP126      0.0152
     31  NE1       -2.2140  -15.8780    1.3400 N.ar  126  TRP126     -0.2442
     32  CE2       -2.7110  -14.8130    2.0440 C.ar  126  TRP126      0.0810
     33  CE3       -4.5280  -14.3640    3.5710 C.ar  126  TRP126      0.0012
     34  CZ2       -2.2730  -13.4900    2.1010 C.ar  126  TRP126      0.0191
     35  CZ3       -4.0870  -13.0550    3.6300 C.ar  126  TRP126      0.0001
     36  CH2       -2.9700  -12.6320    2.9050 C.ar  126  TRP126      0.0015
     37  N         -6.6470  -15.8590    0.6320 N.am  127  ARG127     -0.1980
     38  CA        -7.4080  -14.6820    0.2300 C.3   127  ARG127      0.1597
     39  C         -8.8050  -15.0680   -0.2520 C.2   127  ARG127      0.2287
     40  O         -9.7660  -14.3150   -0.0480 O.2   127  ARG127     -0.2864
     41  CB        -6.6600  -13.9140   -0.8640 C.3   127  ARG127      0.0334
     42  CG        -5.4050  -13.2220   -0.4080 C.3   127  ARG127      0.0492
     43  CD        -5.7230  -11.9580    0.3160 C.3   127  ARG127      0.2205
     44  NE        -4.5210  -11.1600    0.4960 N.pl3 127  ARG127     -0.0865
     45  CZ        -4.3960  -10.1750    1.3880 C.cat 127  ARG127      0.5346
     46  NH1       -5.4010   -9.8650    2.2000 N.pl3 127  ARG127      0.1354
     47  NH2       -3.2600   -9.4990    1.4770 N.pl3 127  ARG127      0.1354
     48  N          6.3310   -0.8830   -0.1230 N.3   157  LYS157     -0.1245
     49  CA         5.3710   -0.6590    0.9490 C.3   157  LYS157      0.1561
     50  C          6.1730   -0.4010    2.2120 C.2   157  LYS157      0.2260
     51  O          6.5070   -1.3430    2.9460 O.2   157  LYS157     -0.2867
     52  CB         4.4290   -1.8510    1.1240 C.3   157  LYS157      0.0271
     53  CG         3.0180   -1.3950    1.5020 C.3   157  LYS157      0.0035
     54  CD         2.2080   -2.5090    2.1240 C.3   157  LYS157      0.0206
     55  CE         1.1830   -1.9360    3.0550 C.3   157  LYS157      0.1093
     56  NZ         0.5140   -3.0330    3.7700 N.3   157  LYS157     -0.1314
     57  N          5.7500    1.0480    5.2900 N.3   159  LYS159     -0.1245
     58  CA         5.2730    0.9100    6.6700 C.3   159  LYS159      0.1561
     59  C          5.7640    2.1060    7.4800 C.2   159  LYS159      0.2260
     60  O          6.3040    3.0430    6.8920 O.2   159  LYS159     -0.2867
     61  CB         5.7060   -0.4360    7.2890 C.3   159  LYS159      0.0271
     62  CG         5.0170   -1.6540    6.6640 C.3   159  LYS159      0.0035
     63  CD         3.5070   -1.4310    6.5490 C.3   159  LYS159      0.0206
     64  CE         2.7410   -2.0030    7.7370 C.3   159  LYS159      0.1093
     65  NZ         1.3390   -1.5390    7.8080 N.3   159  LYS159     -0.1314
     66  N          8.5420   -0.2790   14.9090 N.3   181  ARG181     -0.1231
     67  CA         7.4220   -1.2090   14.9710 C.3   181  ARG181      0.1694
     68  C          7.5780   -2.2950   13.9270 C.2   181  ARG181      0.2592
     69  O          7.2520   -3.4520   14.1810 O.2   181  ARG181     -0.2718
     70  CB         6.0760   -0.4990   14.8040 C.3   181  ARG181      0.0321
     71  CG         4.9700   -1.4300   14.3120 C.3   181  ARG181      0.0489
     72  CD         3.6600   -1.3330   15.0760 C.3   181  ARG181      0.2205
     73  NE         2.5960   -2.0550   14.3610 N.pl3 181  ARG181     -0.0865
     74  CZ         2.0940   -1.6900   13.1760 C.cat 181  ARG181      0.5346
     75  NH1        2.5460   -0.6000   12.5490 N.pl3 181  ARG181      0.1354
     76  NH2        1.1460   -2.4170   12.6030 N.pl3 181  ARG181      0.1354
     77  N          8.0870   -1.9540   12.7500 N.am  182  PHE182     -0.1976
     78  CA         8.1880   -2.9650   11.7030 C.3   182  PHE182      0.1639
     79  C          8.9840   -4.1860   12.1750 C.2   182  PHE182      0.2290
     80  O          8.5110   -5.3300   12.0680 O.2   182  PHE182     -0.2864
     81  CB         8.8010   -2.3600   10.4470 C.3   182  PHE182      0.0560
     82  CG         8.9500   -3.3340    9.3500 C.ar  182  PHE182     -0.0200
     83  CD1       10.1020   -4.0940    9.2400 C.ar  182  PHE182     -0.0042
     84  CD2        7.9470   -3.5140    8.4280 C.ar  182  PHE182     -0.0042
     85  CE1       10.2530   -5.0210    8.2230 C.ar  182  PHE182     -0.0003
     86  CE2        8.0980   -4.4400    7.3990 C.ar  182  PHE182     -0.0003
     87  CZ         9.2490   -5.1960    7.3040 C.ar  182  PHE182     -0.0000
     88  N          7.4780   -6.2840   14.7130 N.3   185  HIS185     -0.1241
     89  CA         6.3340   -6.9020   14.0740 C.3   185  HIS185      0.1621
     90  C          6.7170   -8.1670   13.3260 C.2   185  HIS185      0.2264
     91  O          5.8620   -9.0470   13.1250 O.2   185  HIS185     -0.2867
     92  CB         5.6810   -5.8980   13.1280 C.3   185  HIS185      0.0745
     93  CG         4.2480   -6.2010   12.8280 C.ar  185  HIS185      0.0817
     94  ND1        3.5640   -7.2280   13.4330 N.ar  185  HIS185     -0.2268
     95  CD2        3.3730   -5.6260   11.9700 C.ar  185  HIS185      0.1154
     96  CE1        2.3290   -7.2690   12.9710 C.ar  185  HIS185      0.1986
     97  NE2        2.1890   -6.3110   12.0790 N.ar  185  HIS185     -0.2212
     98  N          4.8210  -11.8440   13.0980 N.3   189  LYS189     -0.1245
     99  CA         4.4870  -12.4190   11.8030 C.3   189  LYS189      0.1561
    100  C          5.0930  -13.7980   11.6420 C.2   189  LYS189      0.2260
    101  O          4.4930  -14.6710   11.0150 O.2   189  LYS189     -0.2867
    102  CB         4.9620  -11.5050   10.6880 C.3   189  LYS189      0.0271
    103  CG         4.3460  -10.1380   10.7390 C.3   189  LYS189      0.0035
    104  CD         4.6520   -9.4150    9.4470 C.3   189  LYS189      0.0206
    105  CE         3.9970   -8.0700    9.4510 C.3   189  LYS189      0.1093
    106  NZ         2.6250   -8.2380    9.9920 N.3   189  LYS189     -0.1314
    107  N          6.0000   -8.5650    1.3300 N.3   227  ASN227     -0.1225
    108  CA         4.9090   -7.7960    0.7450 C.3   227  ASN227      0.1785
    109  C          5.2250   -6.3100    0.7250 C.2   227  ASN227      0.2597
    110  O          4.3070   -5.4830    0.6650 O.2   227  ASN227     -0.2718
    111  CB         3.6050   -8.0310    1.5080 C.3   227  ASN227      0.1169
    112  CG         3.7120   -7.6170    2.9640 C.2   227  ASN227      0.2627
    113  OD1        4.8120   -7.5760    3.5200 O.2   227  ASN227     -0.2716
    114  ND2        2.5800   -7.3120    3.5900 N.am  227  ASN227     -0.0877
    115  N          6.4990   -5.9460    0.8030 N.am  228  ASN228     -0.1974
    116  CA         6.8890   -4.5450    0.8080 C.3   228  ASN228      0.1688
    117  C          7.6580   -4.1480   -0.4480 C.2   228  ASN228      0.2292
    118  O          7.9470   -2.9590   -0.6360 O.2   228  ASN228     -0.2864
    119  CB         7.7180   -4.2380    2.0620 C.3   228  ASN228      0.1181
    120  CG         7.1780   -4.9330    3.3020 C.2   228  ASN228      0.2629
    121  OD1        6.3390   -4.3930    4.0210 O.2   228  ASN228     -0.2716
    122  ND2        7.6640   -6.1320    3.5610 N.am  228  ASN228     -0.0877
    123  N          8.1400   -5.1340   -4.8030 N.3   230  ARG230     -0.1245
    124  CA         7.6170   -5.8550   -5.9460 C.3   230  ARG230      0.1563
    125  C          8.2420   -5.2840   -7.1990 C.2   230  ARG230      0.2260
    126  O          8.3730   -4.0630   -7.3180 O.2   230  ARG230     -0.2867
    127  CB         6.1060   -5.7110   -6.0410 C.3   230  ARG230      0.0307
    128  CG         5.3950   -6.0130   -4.7580 C.3   230  ARG230      0.0489
    129  CD         4.9710   -7.4640   -4.6850 C.3   230  ARG230      0.2205
    130  NE         4.0840   -7.6990   -3.5490 N.pl3 230  ARG230     -0.0865
    131  CZ         2.9520   -7.0390   -3.3420 C.cat 230  ARG230      0.5346
    132  NH1        2.5690   -6.0980   -4.1840 N.pl3 230  ARG230      0.1354
    133  NH2        2.2140   -7.3150   -2.2800 N.pl3 230  ARG230      0.1354
    134  N          0.4230    2.6670    5.7610 N.3   351  ASP351     -0.1239
    135  CA         0.0030    1.4790    5.0370 C.3   351  ASP351      0.1674
    136  C         -0.1330    1.7210    3.5490 C.2   351  ASP351      0.2266
    137  O         -0.4960    0.7990    2.8190 O.2   351  ASP351     -0.2867
    138  CB        -1.3260    0.9530    5.6030 C.3   351  ASP351      0.1410
    139  CG        -1.7050   -0.4270    5.0460 C.2   351  ASP351      0.3668
    140  OD1       -0.8350   -1.3270    5.0330 O.co2 351  ASP351     -0.2456
    141  OD2       -2.8680   -0.6070    4.6070 O.co2 351  ASP351     -0.2456
    142  N         -3.2480    2.9010   -2.4320 N.3   390  ASP390     -0.1239
    143  CA        -3.8490    2.4380   -1.1880 C.3   390  ASP390      0.1674
    144  C         -3.8280    3.5730   -0.1570 C.2   390  ASP390      0.2266
    145  O         -3.3040    3.4380    0.9570 O.2   390  ASP390     -0.2867
    146  CB        -3.1490    1.1660   -0.6820 C.3   390  ASP390      0.1410
    147  CG        -3.9560    0.4090    0.3780 C.2   390  ASP390      0.3668
    148  OD1       -5.1180    0.7870    0.6480 O.co2 390  ASP390     -0.2456
    149  OD2       -3.4320   -0.5930    0.9360 O.co2 390  ASP390     -0.2456
    150  N         -6.4640    4.5250    1.3020 N.3   392  SER392     -0.1217
    151  CA        -7.8160    4.3280    1.8060 C.3   392  SER392      0.1889
    152  C         -7.9660    4.8850    3.2250 C.2   392  SER392      0.2288
    153  O         -6.9990    4.9590    3.9970 O.2   392  SER392     -0.2866
    154  CB        -8.1960    2.8300    1.7730 C.3   392  SER392      0.2089
    155  OG        -8.8120    2.4300    0.5400 O.3   392  SER392     -0.2183
    156  N         -9.3910    4.6910    6.9930 N.3   394  LYS394     -0.1245
    157  CA        -9.3900    3.4690    7.7870 C.3   394  LYS394      0.1561
    158  C        -10.5010    3.4990    8.8170 C.2   394  LYS394      0.2260
    159  O        -10.7100    4.5210    9.4650 O.2   394  LYS394     -0.2867
    160  CB        -8.0400    3.2790    8.4840 C.3   394  LYS394      0.0271
    161  CG        -6.8310    3.7490    7.6410 C.3   394  LYS394      0.0035
    162  CD        -5.6960    2.7120    7.5590 C.3   394  LYS394      0.0206
    163  CE        -5.9720    1.5620    6.5930 C.3   394  LYS394      0.1093
    164  NZ        -5.0350    0.4240    6.8300 N.3   394  LYS394     -0.1314
    165  N        -11.2210    0.1430   13.8250 N.3   398  ARG398     -0.1245
    166  CA        -9.9750   -0.5990   13.7720 C.3   398  ARG398      0.1563
    167  C         -8.9630   -0.0980   14.7780 C.2   398  ARG398      0.2260
    168  O         -7.9240   -0.7320   14.9330 O.2   398  ARG398     -0.2867
    169  CB        -9.4040   -0.5230   12.3640 C.3   398  ARG398      0.0307
    170  CG        -8.5030   -1.6680   11.9750 C.3   398  ARG398      0.0489
    171  CD        -8.2850   -1.6500   10.4530 C.3   398  ARG398      0.2205
    172  NE        -9.4290   -2.1800    9.7120 N.pl3 398  ARG398     -0.0865
    173  CZ        -9.4100   -2.4800    8.4140 C.cat 398  ARG398      0.5346
    174  NH1       -8.3060   -2.2840    7.7120 N.pl3 398  ARG398      0.1354
    175  NH2      -10.4950   -2.9740    7.8160 N.pl3 398  ARG398      0.1354
    176  N         -8.4290   -2.6910   17.3850 N.3   401  SER401     -0.1202
    177  CA        -7.4720   -3.7040   16.9620 C.3   401  SER401      0.2020
    178  C         -6.0730   -3.1200   16.8150 C.2   401  SER401      0.2618
    179  O         -5.0740   -3.8110   17.0400 O.2   401  SER401     -0.2717
    180  CB        -7.9370   -4.3500   15.6530 C.3   401  SER401      0.2103
    181  OG        -8.6400   -3.4260   14.8180 O.3   401  SER401     -0.2182
    182  N         -5.9690   -1.8520   16.4470 N.am  402  TYR402     -0.1975
    183  CA        -4.6520   -1.2400   16.4180 C.3   402  TYR402      0.1639
    184  C         -3.9730   -1.3990   17.7710 C.2   402  TYR402      0.2290
    185  O         -2.7860   -1.7160   17.8390 O.2   402  TYR402     -0.2864
    186  CB        -4.7730    0.2300   15.9920 C.3   402  TYR402      0.0560
    187  CG        -5.0130    0.3780   14.4980 C.ar  402  TYR402     -0.0198
    188  CD1       -4.8250   -0.6890   13.6560 C.ar  402  TYR402     -0.0009
    189  CD2       -5.4190    1.5650   13.9390 C.ar  402  TYR402     -0.0009
    190  CE1       -5.0290   -0.5830   12.3010 C.ar  402  TYR402      0.0417
    191  CE2       -5.6300    1.6740   12.5730 C.ar  402  TYR402      0.0417
    192  CZ        -5.4340    0.5910   11.7630 C.ar  402  TYR402      0.1957
    193  OH        -5.6230    0.6520   10.4040 O.3   402  TYR402     -0.2866
    194  N         -3.2270   -5.3730   18.7380 N.3   405  LEU405     -0.1245
    195  CA        -2.0480   -5.7900   17.9790 C.3   405  LEU405      0.1561
    196  C         -0.7840   -5.0880   18.4630 C.2   405  LEU405      0.2260
    197  O          0.2940   -5.6940   18.5090 O.2   405  LEU405     -0.2867
    198  CB        -2.2550   -5.5280   16.4950 C.3   405  LEU405      0.0270
    199  CG        -1.0650   -5.8900   15.5990 C.3   405  LEU405      0.0019
    200  CD1       -0.7030   -7.3510   15.6350 C.3   405  LEU405      0.0001
    201  CD2       -1.3820   -5.4550   14.1680 C.3   405  LEU405      0.0001
@<TRIPOS>BOND
     1   126   125    2
     2   125   124    1
     3   127   124    1
     4   127   128    1
     5   124   123    1
     6     1     2    1
     7   128   129    1
     8   129   130    1
     9     8     7   ar
    10   132   131    1
    11     2     5    1
    12     2     3    1
    13     5     6    1
    14   130   131    2
    15     7     6    1
    16     7     9   ar
    17   131   133    1
    18     3     4    2
    19     3    10   am
    20   142   143    1
    21    10    11    1
    22   143   146    1
    23   143   144    1
    24    41    42    1
    25    41    38    1
    26   146   147    1
    27   118   117    2
    28   117   116    1
    29    42    43    1
    30    11    12    1
    31    39    40    2
    32    39    38    1
    33    21    20    2
    34   144   145    2
    35    48    49    1
    36    13    12    2
    37    20    19    1
    38    38    37    1
    39    43    44    1
    40   147   148   ar
    41   147   149   ar
    42    12    14   am
    43    44    45    2
    44   155   154    1
    45    37    25   am
    46   110   109    2
    47   109   108    1
    48   109   115   am
    49   108   107    1
    50   108   111    1
    51   115   116    1
    52   116   119    1
    53    23    24    1
    54    49    52    1
    55    49    50    1
    56    52    53    1
    57   150   151    1
    58    31    29   ar
    59    31    32   ar
    60    45    47    1
    61    45    46    1
    62    19    18    1
    63    19    22    1
    64    18    16   am
    65    53    54    1
    66   111   112    1
    67    29    28   ar
    68    14    15    1
    69   154   151    1
    70   151   152    1
    71    25    24    1
    72    25    26    2
    73    32    34   ar
    74    32    30   ar
    75    24    27    1
    76   119   120    1
    77    34    36   ar
    78    54    55    1
    79    50    51    2
    80    28    30   ar
    81    28    27    1
    82    16    15    1
    83    16    17    2
    84    30    33   ar
    85   137   136    2
    86    36    35   ar
    87   112   113    2
    88   112   114   am
    89    55    56    1
    90   152   153    2
    91   120   122   am
    92   120   121    2
    93   136   135    1
    94    33    35   ar
    95   141   139   ar
    96   140   139   ar
    97   135   138    1
    98   135   134    1
    99   139   138    1
   100    57    58    1
   101    63    62    1
   102    63    64    1
   103   163   164    1
   104   163   162    1
   105    62    61    1
   106    58    61    1
   107    58    59    1
   108    60    59    2
   109   156   157    1
   110    87    86   ar
   111    87    85   ar
   112    86    84   ar
   113   162   161    1
   114   161   160    1
   115   174   173    1
   116    64    65    1
   117   157   160    1
   118   157   158    1
   119   175   173    1
   120    85    83   ar
   121   173   172    2
   122    84    82   ar
   123   158   159    2
   124    83    82   ar
   125    82    81    1
   126   104   105    1
   127   104   103    1
   128   105   106    1
   129   172   171    1
   130   193   192    1
   131    81    78    1
   132   171   170    1
   133   102   103    1
   134   102    99    1
   135   101   100    2
   136   100    99    1
   137    78    79    1
   138    78    77    1
   139   192   190   ar
   140   192   191   ar
   141    99    98    1
   142    95    97   ar
   143    95    93   ar
   144   170   169    1
   145    80    79    2
   146    97    96   ar
   147   190   188   ar
   148   169   166    1
   149    75    74    1
   150   191   189   ar
   151    76    74    1
   152    77    68   am
   153    93    92    1
   154    93    94   ar
   155    96    94   ar
   156    91    90    2
   157    92    89    1
   158    74    73    2
   159    90    89    1
   160   188   187   ar
   161   166   165    1
   162   166   167    1
   163    68    69    2
   164    68    67    1
   165   189   187   ar
   166    89    88    1
   167   201   199    1
   168    71    70    1
   169    71    72    1
   170    73    72    1
   171   187   186    1
   172   167   168    2
   173    70    67    1
   174   181   180    1
   175    66    67    1
   176   199   200    1
   177   199   198    1
   178   180   177    1
   179   186   183    1
   180   183   182    1
   181   183   184    1
   182   182   178   am
   183   198   195    1
   184   178   177    1
   185   178   179    2
   186   177   176    1
   187   184   185    2
   188   195   196    1
   189   195   194    1
   190   196   197    2
