@<TRIPOS>MOLECULE
tmp/6gfhB01.pdb
 205 192 0 0 0
SMALL
GASTEIGER

@<TRIPOS>ATOM
      1  N         -4.7320   -8.9560  -13.1160 N.3    23  ARG23      -0.1231
      2  CA        -3.4280   -8.3730  -12.7970 C.3    23  ARG23       0.1694
      3  C         -2.9320   -8.8090  -11.4180 C.2    23  ARG23       0.2593
      4  O         -1.9800   -9.5920  -11.3120 O.2    23  ARG23      -0.2718
      5  CB        -3.4760   -6.8500  -12.8590 C.3    23  ARG23       0.0321
      6  CG        -2.3810   -6.1940  -12.0550 C.3    23  ARG23       0.0489
      7  CD        -1.5820   -5.2760  -12.9250 C.3    23  ARG23       0.2205
      8  NE        -1.4850   -5.8320  -14.2660 N.pl3  23  ARG23      -0.0865
      9  CZ        -0.9980   -5.1850  -15.3200 C.cat  23  ARG23       0.5346
     10  NH1       -0.9770   -5.7890  -16.4960 N.pl3  23  ARG23       0.1354
     11  NH2       -0.5440   -3.9420  -15.2060 N.pl3  23  ARG23       0.1354
     12  N         -3.5520   -8.3070  -10.3570 N.am   24  GLY24      -0.1942
     13  CA        -3.1730   -8.7200   -9.0240 C.3    24  GLY24       0.2014
     14  C         -4.2750   -8.4200   -8.0350 C.2    24  GLY24       0.2639
     15  O         -5.3670   -7.9860   -8.4060 O.2    24  GLY24      -0.2714
     16  N         -3.9760   -8.6460   -6.7580 N.am   25  GLU25      -0.1963
     17  CA        -4.9490   -8.4150   -5.7040 C.3    25  GLU25       0.1733
     18  C         -4.2530   -7.8720   -4.4780 C.2    25  GLU25       0.2617
     19  O         -3.0370   -7.6830   -4.4530 O.2    25  GLU25      -0.2715
     20  CB        -5.6870   -9.6850   -5.2740 C.3    25  GLU25       0.0429
     21  CG        -6.0350  -10.6590   -6.3570 C.3    25  GLU25       0.1163
     22  CD        -6.6580  -11.9090   -5.7770 C.2    25  GLU25       0.3649
     23  OE1       -7.4330  -11.7930   -4.7940 O.co2  25  GLU25      -0.2457
     24  OE2       -6.3580  -13.0070   -6.2940 O.co2  25  GLU25      -0.2457
     25  N         -5.0520   -7.6710   -3.4440 N.am   26  GLY26      -0.1940
     26  CA        -4.6010   -7.3540   -2.1110 C.3    26  GLY26       0.2014
     27  C         -5.6340   -7.8950   -1.1550 C.2    26  GLY26       0.2639
     28  O         -6.4250   -8.7700   -1.5270 O.2    26  GLY26      -0.2714
     29  N         -5.6490   -7.3940    0.0760 N.am   27  GLY27      -0.1939
     30  CA        -6.6590   -7.8520    1.0090 C.3    27  GLY27       0.2014
     31  C         -8.0770   -7.4930    0.6120 C.2    27  GLY27       0.2639
     32  O         -9.0210   -8.1670    1.0550 O.2    27  GLY27      -0.2714
     33  N         -8.2450   -6.4700   -0.2430 N.am   28  ALA28      -0.1963
     34  CA        -9.5400   -5.8270   -0.4410 C.3    28  ALA28       0.1728
     35  C         -9.9880   -5.7070   -1.8990 C.2    28  ALA28       0.2616
     36  O        -11.1920   -5.7130   -2.1730 O.2    28  ALA28      -0.2715
     37  CB        -9.5130   -4.4300    0.1840 C.3    28  ALA28       0.0334
     38  N         -9.0560   -5.5920   -2.8480 N.am   29  ASN29      -0.1972
     39  CA        -9.4120   -5.2690   -4.2240 C.3    29  ASN29       0.1688
     40  C         -8.8270   -6.2630   -5.2240 C.2    29  ASN29       0.2292
     41  O         -7.7610   -6.8460   -5.0220 O.2    29  ASN29      -0.2864
     42  CB        -8.9560   -3.8390   -4.5990 C.3    29  ASN29       0.1181
     43  CG        -9.6880   -2.7580   -3.8090 C.2    29  ASN29       0.2629
     44  OD1      -10.8000   -2.3580   -4.1640 O.2    29  ASN29      -0.2716
     45  ND2       -9.0580   -2.2730   -2.7440 N.am   29  ASN29      -0.0877
     46  N         -7.7650   -6.1360   -9.2640 N.3    31  VAL31      -0.1245
     47  CA        -7.4550   -5.1130  -10.2540 C.3    31  VAL31       0.1561
     48  C         -6.9610   -5.7760  -11.5280 C.2    31  VAL31       0.2260
     49  O         -6.0420   -6.6040  -11.4850 O.2    31  VAL31      -0.2867
     50  CB        -6.4240   -4.1160   -9.7180 C.3    31  VAL31       0.0252
     51  CG1       -6.3360   -4.2970   -8.2340 C.3    31  VAL31       0.0019
     52  CG2       -5.0920   -4.3070  -10.4120 C.3    31  VAL31       0.0019
     53  N         -6.4050    0.2500  -16.0780 N.3    45  VAL45      -0.1245
     54  CA        -6.7500   -0.8690  -15.2230 C.3    45  VAL45       0.1561
     55  C         -8.1400   -0.6140  -14.6680 C.2    45  VAL45       0.2260
     56  O         -8.6220    0.5220  -14.6190 O.2    45  VAL45      -0.2867
     57  CB        -5.7380   -1.0640  -14.0750 C.3    45  VAL45       0.0252
     58  CG1       -4.3340   -1.2380  -14.6250 C.3    45  VAL45       0.0019
     59  CG2       -5.7930    0.1250  -13.1360 C.3    45  VAL45       0.0019
     60  N        -10.5190   -1.6920  -11.1460 N.3    47  ARG47      -0.1245
     61  CA       -10.3590   -2.1130   -9.7600 C.3    47  ARG47       0.1563
     62  C        -11.7250   -2.4450   -9.1970 C.2    47  ARG47       0.2260
     63  O        -12.6030   -1.5830   -9.1610 O.2    47  ARG47      -0.2867
     64  CB        -9.6940   -1.0050   -8.9490 C.3    47  ARG47       0.0307
     65  CG        -9.4660   -1.2950   -7.4900 C.3    47  ARG47       0.0489
     66  CD        -8.5520   -0.2170   -6.9620 C.3    47  ARG47       0.2205
     67  NE        -8.8630    0.1690   -5.5960 N.pl3  47  ARG47      -0.0865
     68  CZ        -7.9850    0.0910   -4.6150 C.cat  47  ARG47       0.5346
     69  NH1       -6.7690   -0.3510   -4.8790 N.pl3  47  ARG47       0.1354
     70  NH2       -8.3080    0.4630   -3.3920 N.pl3  47  ARG47       0.1354
     71  N         -6.5360  -16.7160   -1.1600 N.3   127  ARG127     -0.1245
     72  CA        -7.3290  -15.5110   -1.3980 C.3   127  ARG127      0.1563
     73  C         -8.7810  -15.8580   -1.7190 C.2   127  ARG127      0.2260
     74  O         -9.7070  -15.3160   -1.1050 O.2   127  ARG127     -0.2867
     75  CB        -6.7280  -14.6760   -2.5390 C.3   127  ARG127      0.0307
     76  CG        -5.4150  -13.9400   -2.2410 C.3   127  ARG127      0.0489
     77  CD        -5.5630  -12.8680   -1.1610 C.3   127  ARG127      0.2205
     78  NE        -4.4160  -11.9530   -1.1260 N.pl3 127  ARG127     -0.0865
     79  CZ        -4.1730  -11.0790   -0.1480 C.cat 127  ARG127      0.5346
     80  NH1       -4.9790  -10.9780    0.9090 N.pl3 127  ARG127      0.1354
     81  NH2       -3.1070  -10.3080   -0.2220 N.pl3 127  ARG127      0.1354
     82  N         -8.5510    3.1910  -13.3550 N.3   143  LEU143     -0.1231
     83  CA        -7.3140    3.8990  -13.0650 C.3   143  LEU143      0.1693
     84  C         -6.3030    3.6470  -14.1730 C.2   143  LEU143      0.2592
     85  O         -6.3240    2.5910  -14.8150 O.2   143  LEU143     -0.2718
     86  CB        -6.7290    3.4550  -11.7070 C.3   143  LEU143      0.0284
     87  CG        -7.4930    3.8760  -10.4450 C.3   143  LEU143      0.0019
     88  CD1       -7.9730    2.6570   -9.6840 C.3   143  LEU143      0.0001
     89  CD2       -6.6370    4.7850   -9.5630 C.3   143  LEU143      0.0001
     90  N         -5.4080    4.6110  -14.3970 N.am  144  ASN144     -0.1960
     91  CA        -4.3530    4.3950  -15.3810 C.3   144  ASN144      0.1819
     92  C         -3.4010    3.2980  -14.9130 C.2   144  ASN144      0.2621
     93  O         -2.8490    3.3770  -13.8110 O.2   144  ASN144     -0.2715
     94  CB        -3.5750    5.6820  -15.6240 C.3   144  ASN144      0.1195
     95  CG        -4.4440    6.7800  -16.1360 C.2   144  ASN144      0.2630
     96  OD1       -4.7820    6.8100  -17.3170 O.2   144  ASN144     -0.2716
     97  ND2       -4.8300    7.6930  -15.2540 N.am  144  ASN144     -0.0877
     98  N         -3.1990    2.2730  -15.7480 N.am  145  ASP145     -0.1957
     99  CA        -2.1580    1.2950  -15.4530 C.3   145  ASP145      0.1840
    100  C         -0.8160    2.0120  -15.4260 C.2   145  ASP145      0.2622
    101  O         -0.4410    2.6620  -16.4040 O.2   145  ASP145     -0.2715
    102  CB        -2.1510    0.1650  -16.4880 C.3   145  ASP145      0.1450
    103  CG        -0.9890   -0.8350  -16.2790 C.2   145  ASP145      0.3671
    104  OD1        0.1470   -0.3860  -16.0200 O.co2 145  ASP145     -0.2456
    105  OD2       -1.2000   -2.0720  -16.3750 O.co2 145  ASP145     -0.2456
    106  N         -0.1040    1.9120  -14.2990 N.am  146  HIS146     -0.1959
    107  CA         1.1630    2.6110  -14.1200 C.3   146  HIS146      0.1787
    108  C          2.3660    1.7920  -14.5570 C.2   146  HIS146      0.2620
    109  O          3.4890    2.3140  -14.5580 O.2   146  HIS146     -0.2715
    110  CB         1.3360    3.0350  -12.6640 C.3   146  HIS146      0.0785
    111  CG         0.3450    4.0600  -12.2280 C.ar  146  HIS146      0.0821
    112  ND1       -0.6680    3.7860  -11.3370 N.ar  146  HIS146     -0.2267
    113  CD2        0.1920    5.3560  -12.5880 C.ar  146  HIS146      0.1154
    114  CE1       -1.3920    4.8770  -11.1520 C.ar  146  HIS146      0.1986
    115  NE2       -0.8880    5.8450  -11.8960 N.ar  146  HIS146     -0.2212
    116  N          2.1590    0.5320  -14.9170 N.am  147  SER147     -0.1950
    117  CA         3.2010   -0.2710  -15.5330 C.3   147  SER147      0.1924
    118  C          3.3590    0.0230  -17.0240 C.2   147  SER147      0.2314
    119  O          4.2660   -0.5330  -17.6590 O.2   147  SER147     -0.2863
    120  CB         2.9120   -1.7570  -15.2990 C.3   147  SER147      0.2116
    121  OG         1.5830   -2.0890  -15.6620 O.3   147  SER147     -0.2180
    122  N          6.9010   -1.8190   -8.0530 N.3   155  GLU155     -0.1245
    123  CA         6.0530   -1.4440   -6.9310 C.3   155  GLU155      0.1567
    124  C          6.8200   -1.6220   -5.6270 C.2   155  GLU155      0.2260
    125  O          7.5650   -2.5890   -5.4550 O.2   155  GLU155     -0.2867
    126  CB         4.7720   -2.2830   -6.8900 C.3   155  GLU155      0.0388
    127  CG         3.9160   -2.0440   -5.6410 C.3   155  GLU155      0.1160
    128  CD         2.5750   -2.7690   -5.6860 C.2   155  GLU155      0.3649
    129  OE1        2.4130   -3.6820   -6.5240 O.co2 155  GLU155     -0.2457
    130  OE2        1.6810   -2.4210   -4.8830 O.co2 155  GLU155     -0.2457
    131  N          5.8120   -1.4640   -1.4710 N.3   157  LYS157     -0.1245
    132  CA         4.8730   -1.2560   -0.3750 C.3   157  LYS157      0.1561
    133  C          5.7210   -0.9920    0.8580 C.2   157  LYS157      0.2260
    134  O          6.0790   -1.9280    1.5830 O.2   157  LYS157     -0.2867
    135  CB         3.9570   -2.4670   -0.1720 C.3   157  LYS157      0.0271
    136  CG         2.8610   -2.2590    0.8690 C.3   157  LYS157      0.0035
    137  CD         1.9480   -3.4750    0.9980 C.3   157  LYS157      0.0206
    138  CE         0.9850   -3.3380    2.1760 C.3   157  LYS157      0.1093
    139  NZ        -0.0530   -4.4020    2.1610 N.3   157  LYS157     -0.1314
    140  N          7.6260   -5.5410   -6.1930 N.3   230  ARG230     -0.1245
    141  CA         7.2340   -6.2600   -7.3890 C.3   230  ARG230      0.1563
    142  C          7.8260   -5.5340   -8.5860 C.2   230  ARG230      0.2260
    143  O          8.0310   -4.3190   -8.5490 O.2   230  ARG230     -0.2867
    144  CB         5.7100   -6.3940   -7.4910 C.3   230  ARG230      0.0307
    145  CG         5.1230   -7.4550   -6.5600 C.3   230  ARG230      0.0489
    146  CD         3.6070   -7.5980   -6.7130 C.3   230  ARG230      0.2205
    147  NE         2.8620   -6.8760   -5.6780 N.pl3 230  ARG230     -0.0865
    148  CZ         2.2300   -7.4550   -4.6550 C.cat 230  ARG230      0.5346
    149  NH1        2.2470   -8.7730   -4.5230 N.pl3 230  ARG230      0.1354
    150  NH2        1.5780   -6.7130   -3.7620 N.pl3 230  ARG230      0.1354
    151  N          7.5850   -5.2410  -12.8900 N.3   232  PHE232     -0.1241
    152  CA         6.7460   -5.5290  -14.0480 C.3   232  PHE232      0.1605
    153  C          7.4330   -5.0470  -15.3210 C.2   232  PHE232      0.2264
    154  O          7.9510   -3.9230  -15.3730 O.2   232  PHE232     -0.2867
    155  CB         5.3550   -4.8770  -13.8990 C.3   232  PHE232      0.0534
    156  CG         4.5990   -5.3250  -12.6720 C.ar  232  PHE232     -0.0203
    157  CD1        3.7090   -6.3870  -12.7370 C.ar  232  PHE232     -0.0042
    158  CD2        4.7840   -4.6910  -11.4530 C.ar  232  PHE232     -0.0042
    159  CE1        3.0200   -6.8060  -11.6100 C.ar  232  PHE232     -0.0003
    160  CE2        4.0970   -5.1050  -10.3320 C.ar  232  PHE232     -0.0003
    161  CZ         3.2190   -6.1640  -10.4120 C.ar  232  PHE232     -0.0000
    162  N         -0.3930    1.6790    4.4710 N.3   351  ASP351     -0.1239
    163  CA        -0.7680    0.5260    3.6590 C.3   351  ASP351      0.1674
    164  C         -0.7120    0.7910    2.1650 C.2   351  ASP351      0.2266
    165  O         -0.8920   -0.1500    1.3790 O.2   351  ASP351     -0.2867
    166  CB        -2.1800    0.0270    4.0300 C.3   351  ASP351      0.1410
    167  CG        -2.5100   -1.3630    3.4180 C.2   351  ASP351      0.3668
    168  OD1       -1.8430   -2.3640    3.8090 O.co2 351  ASP351     -0.2456
    169  OD2       -3.4460   -1.4520    2.5680 O.co2 351  ASP351     -0.2456
    170  N          1.0040    1.8100   -1.5770 N.3   353  SER353     -0.1217
    171  CA         2.2320    1.5170   -2.2840 C.3   353  SER353      0.1889
    172  C          2.5220    2.6420   -3.2700 C.2   353  SER353      0.2288
    173  O          1.6350    3.4200   -3.6470 O.2   353  SER353     -0.2866
    174  CB         2.1520    0.1700   -3.0170 C.3   353  SER353      0.2089
    175  OG         1.0590   -0.5930   -2.5380 O.3   353  SER353     -0.2183
    176  N          4.4280    3.3280   -7.1220 N.3   355  MET355     -0.1245
    177  CA         4.7510    2.6790   -8.3780 C.3   355  MET355      0.1570
    178  C          5.5700    3.6550   -9.2020 C.2   355  MET355      0.2261
    179  O          5.1060    4.7620   -9.5000 O.2   355  MET355     -0.2867
    180  CB         3.4930    2.2510   -9.1150 C.3   355  MET355      0.0387
    181  CG         3.0170    0.8900   -8.7240 C.3   355  MET355      0.0595
    182  SD         2.0070    0.2230  -10.0570 S.3   355  MET355     -0.1393
    183  CE         2.7800   -1.3740  -10.3160 C.3   355  MET355      0.0692
    184  N         -0.6870    4.5580   -4.8610 N.3   379  ILE379     -0.1231
    185  CA        -1.8450    3.7120   -5.1050 C.3   379  ILE379      0.1692
    186  C         -2.3390    3.1420   -3.7770 C.2   379  ILE379      0.2592
    187  O         -1.6980    3.2780   -2.7390 O.2   379  ILE379     -0.2718
    188  CB        -1.5100    2.5980   -6.1110 C.3   379  ILE379      0.0266
    189  CG1       -0.4930    1.6160   -5.5160 C.3   379  ILE379      0.0019
    190  CG2       -0.9660    3.2170   -7.3850 C.3   379  ILE379      0.0020
    191  CD1       -0.5140    0.2710   -6.1930 C.3   379  ILE379      0.0001
    192  N         -3.4910    2.4950   -3.8270 N.am  380  ASP380     -0.1974
    193  CA        -4.1760    1.9380   -2.6620 C.3   380  ASP380      0.1709
    194  C         -4.1900    2.9020   -1.4870 C.2   380  ASP380      0.2293
    195  O         -3.6090    2.6680   -0.4240 O.2   380  ASP380     -0.2864
    196  CB        -3.5920    0.6140   -2.2130 C.3   380  ASP380      0.1436
    197  CG        -4.3790    0.0300   -1.0620 C.2   380  ASP380      0.3671
    198  OD1       -3.9480    0.1470    0.0990 O.co2 380  ASP380     -0.2456
    199  OD2       -5.4620   -0.5220   -1.3000 O.co2 380  ASP380     -0.2456
    200  N         -6.9200    3.4930    0.3610 N.3   382  SER382     -0.1217
    201  CA        -8.2520    3.1350    0.8470 C.3   382  SER382      0.1889
    202  C         -8.5030    3.7040    2.2420 C.2   382  SER382      0.2288
    203  O         -7.6160    3.6930    3.0990 O.2   382  SER382     -0.2866
    204  CB        -8.4270    1.6160    0.8920 C.3   382  SER382      0.2089
    205  OG        -8.1290    0.9970   -0.3470 O.3   382  SER382     -0.2183
@<TRIPOS>BOND
     1   119   118    2
     2    96    95    2
     3   118   117    1
     4    10     9    1
     5   102   103    1
     6   102    99    1
     7   101   100    2
     8   105   103   ar
     9   103   104   ar
    10    95    94    1
    11    95    97   am
    12    53    54    1
    13    98    99    1
    14    98    92   am
    15   121   120    1
    16    94    91    1
    17   117   120    1
    18   117   116    1
    19    99   100    1
    20   100   106   am
    21    91    92    1
    22    91    90    1
    23   154   153    2
    24   153   152    1
    25     9    11    1
    26     9     8    2
    27    54    55    1
    28    54    57    1
    29   116   108   am
    30    92    93    2
    31    85    84    2
    32    55    56    2
    33    58    57    1
    34   109   108    2
    35   108   107    1
    36    90    84   am
    37   106   107    1
    38     8     7    1
    39    84    83    1
    40   107   110    1
    41    57    59    1
    42   152   155    1
    43   152   151    1
    44   155   156    1
    45    82    83    1
    46     1     2    1
    47    83    86    1
    48     7     6    1
    49     5     2    1
    50     5     6    1
    51     2     3    1
    52   157   156   ar
    53   157   159   ar
    54   156   158   ar
    55   110   111    1
    56   113   111   ar
    57   113   115   ar
    58   111   112   ar
    59   115   114   ar
    60    86    87    1
    61   159   161   ar
    62    48    49    2
    63    48    47    1
    64   158   160   ar
    65     3     4    2
    66     3    12   am
    67   112   114   ar
    68    60    61    1
    69    87    88    1
    70    87    89    1
    71    52    50    1
    72   161   160   ar
    73    12    13    1
    74   183   182    1
    75    47    50    1
    76    47    46    1
    77   182   181    1
    78    61    62    1
    79    61    64    1
    80    50    51    1
    81   179   178    2
    82   178   177    1
    83    62    63    2
    84   180   181    1
    85   180   177    1
    86    13    14    1
    87    64    65    1
    88   142   143    2
    89   142   141    1
    90    15    14    2
    91   177   176    1
    92   122   123    1
    93    14    16   am
    94   144   141    1
    95   144   145    1
    96    65    66    1
    97   141   140    1
    98   190   188    1
    99    66    67    1
   100   123   126    1
   101   123   124    1
   102   126   127    1
   103    16    17    1
   104   146   145    1
   105   146   147    1
   106   129   128   ar
   107    21    22    1
   108    21    20    1
   109    24    22   ar
   110   191   189    1
   111   188   189    1
   112   188   185    1
   113    22    23   ar
   114    17    20    1
   115    17    18    1
   116   128   127    1
   117   128   130   ar
   118   147   148    2
   119   124   125    2
   120    67    68    2
   121    40    41    2
   122    40    39    1
   123   185   184    1
   124   185   186    1
   125    69    68    1
   126   148   149    1
   127   148   150    1
   128    68    70    1
   129    42    39    1
   130    42    43    1
   131    18    19    2
   132    18    25   am
   133    39    38    1
   134    44    43    2
   135   192   186   am
   136   192   193    1
   137    43    45   am
   138   186   187    2
   139   173   172    2
   140    25    26    1
   141   172   171    1
   142   174   175    1
   143   174   171    1
   144    38    35   am
   145   193   196    1
   146   193   194    1
   147    75    76    1
   148    75    72    1
   149   171   170    1
   150    76    77    1
   151   196   197    1
   152    36    35    2
   153    26    27    1
   154    35    34    1
   155    73    72    1
   156    73    74    2
   157    28    27    2
   158   194   195    2
   159   131   132    1
   160    72    71    1
   161   199   197   ar
   162    77    78    1
   163    27    29   am
   164    78    79    2
   165   197   198   ar
   166    34    33    1
   167    34    37    1
   168   132   135    1
   169   132   133    1
   170   205   204    1
   171    33    31   am
   172    81    79    1
   173   135   136    1
   174    79    80    1
   175    29    30    1
   176   200   201    1
   177    31    30    1
   178    31    32    2
   179   201   204    1
   180   201   202    1
   181   133   134    2
   182   136   137    1
   183   137   138    1
   184   165   164    2
   185   139   138    1
   186   164   163    1
   187   202   203    2
   188   169   167   ar
   189   167   168   ar
   190   167   166    1
   191   163   166    1
   192   163   162    1
