@<TRIPOS>MOLECULE
tmp/6gfkA00.pdb
 206 197 0 0 0
SMALL
GASTEIGER

@<TRIPOS>ATOM
      1  N        -22.4860   33.9710  -19.7470 N.3    35  LEU35      -0.1245
      2  CA       -22.3840   35.4350  -19.8310 C.3    35  LEU35       0.1561
      3  C        -21.0060   35.9260  -19.3640 C.2    35  LEU35       0.2260
      4  O        -20.5470   35.5370  -18.2870 O.2    35  LEU35      -0.2867
      5  CB       -23.5170   36.0910  -18.9860 C.3    35  LEU35       0.0270
      6  CG       -23.4120   37.5960  -18.6860 C.3    35  LEU35       0.0019
      7  CD1      -23.6090   38.4380  -19.9740 C.3    35  LEU35       0.0001
      8  CD2      -24.4110   37.9990  -17.6200 C.3    35  LEU35       0.0001
      9  N        -18.9760   38.9370  -18.0090 N.3    37  PRO37      -0.2116
     10  CA       -19.2450   40.2510  -17.4040 C.3    37  PRO37       0.1372
     11  C        -18.3170   41.3370  -17.9470 C.2    37  PRO37       0.2244
     12  O        -17.1860   41.0530  -18.3250 O.2    37  PRO37      -0.2868
     13  CB       -18.9780   40.0070  -15.9160 C.3    37  PRO37       0.0268
     14  CG       -18.0040   38.9190  -15.8920 C.3    37  PRO37       0.0207
     15  CD       -18.2880   38.0420  -17.0500 C.3    37  PRO37       0.0892
     16  N        -20.2420   46.4250  -13.8640 N.3    42  ARG42      -0.1245
     17  CA       -20.3050   45.6760  -12.6210 C.3    42  ARG42       0.1563
     18  C        -19.8390   46.5940  -11.4610 C.2    42  ARG42       0.2260
     19  O        -20.4660   46.5950  -10.4110 O.2    42  ARG42      -0.2867
     20  CB       -19.4640   44.3950  -12.7040 C.3    42  ARG42       0.0307
     21  CG       -19.8870   43.3690  -13.7550 C.3    42  ARG42       0.0489
     22  CD       -21.3810   43.1400  -13.7560 C.3    42  ARG42       0.2205
     23  NE       -21.8090   41.9790  -14.5240 N.pl3  42  ARG42      -0.0865
     24  CZ       -22.1230   42.0110  -15.8110 C.cat  42  ARG42       0.5346
     25  NH1      -22.5550   40.9170  -16.4210 N.pl3  42  ARG42       0.1354
     26  NH2      -21.9930   43.1330  -16.5040 N.pl3  42  ARG42       0.1354
     27  N        -25.8510   37.8730   -3.4570 N.3    68  ASP68      -0.1225
     28  CA       -25.8270   38.0350   -4.9200 C.3    68  ASP68       0.1805
     29  C        -26.6590   36.9160   -5.5150 C.2    68  ASP68       0.2598
     30  O        -26.2670   35.7560   -5.4220 O.2    68  ASP68      -0.2718
     31  CB       -24.3960   38.0260   -5.4670 C.3    68  ASP68       0.1424
     32  CG       -24.2790   38.2300   -6.9740 C.2    68  ASP68       0.3668
     33  OD1      -25.2150   38.8220   -7.5820 O.co2  68  ASP68      -0.2456
     34  OD2      -23.2480   37.8250   -7.5420 O.co2  68  ASP68      -0.2456
     35  N        -27.8510   37.2520   -6.0410 N.am   69  ILE69      -0.1966
     36  CA       -28.7650   36.2750   -6.6590 C.3    69  ILE69       0.1727
     37  C        -28.2980   36.0250   -8.0920 C.2    69  ILE69       0.2617
     38  O        -28.3700   36.9380   -8.9100 O.2    69  ILE69      -0.2715
     39  CB       -30.2610   36.7350   -6.6150 C.3    69  ILE69       0.0290
     40  CG1      -30.6960   37.1540   -5.1870 C.3    69  ILE69       0.0022
     41  CG2      -31.2030   35.6520   -7.2160 C.3    69  ILE69       0.0023
     42  CD1      -31.9270   38.1320   -5.1640 C.3    69  ILE69       0.0001
     43  N        -27.8070   34.8170   -8.3710 N.am   70  GLY70      -0.1940
     44  CA       -27.3340   34.4600   -9.7100 C.3    70  GLY70       0.2014
     45  C        -25.9610   35.0180   -9.9770 C.2    70  GLY70       0.2640
     46  O        -25.7850   35.8700  -10.8410 O.2    70  GLY70      -0.2714
     47  N        -24.9930   34.5480   -9.2150 N.am   71  THR71      -0.1936
     48  CA       -23.6240   35.0550   -9.2230 C.3    71  THR71       0.2028
     49  C        -22.8560   34.8350  -10.5540 C.2    71  THR71       0.2642
     50  O        -21.9120   35.5730  -10.8230 O.2    71  THR71      -0.2714
     51  CB       -22.8780   34.5070   -7.9880 C.3    71  THR71       0.1808
     52  OG1      -21.8720   35.4380   -7.6000 O.3    71  THR71      -0.2208
     53  CG2      -22.3170   33.0920   -8.1730 C.3    71  THR71       0.0379
     54  N        -23.3030   33.8810  -11.3760 N.am   72  GLY72      -0.1954
     55  CA       -22.6800   33.5420  -12.6510 C.3    72  GLY72       0.1869
     56  C        -21.3930   32.7550  -12.4760 C.2    72  GLY72       0.2309
     57  O        -20.9750   32.4920  -11.3490 O.2    72  GLY72      -0.2863
     58  N        -18.4050   33.8070  -13.2830 N.3    74  SER74      -0.1217
     59  CA       -17.3900   34.7790  -12.8690 C.3    74  SER74       0.1889
     60  C        -17.4190   35.0700  -11.3780 C.2    74  SER74       0.2288
     61  O        -16.3740   35.4050  -10.8260 O.2    74  SER74      -0.2866
     62  CB       -17.5890   36.0880  -13.6190 C.3    74  SER74       0.2089
     63  OG       -18.8690   36.6200  -13.3200 O.3    74  SER74      -0.2183
     64  N        -18.6120   37.6950  -10.1950 N.3    76  ILE76      -0.1231
     65  CA       -18.0670   39.0330  -10.3610 C.3    76  ILE76       0.1692
     66  C        -18.4620   40.0140   -9.2460 C.2    76  ILE76       0.2592
     67  O        -17.5720   40.7280   -8.7680 O.2    76  ILE76      -0.2718
     68  CB       -18.3310   39.6090  -11.7890 C.3    76  ILE76       0.0266
     69  CG1      -17.5040   40.8980  -12.0560 C.3    76  ILE76       0.0019
     70  CG2      -19.8230   39.8120  -12.0990 C.3    76  ILE76       0.0020
     71  CD1      -15.9960   40.7240  -12.0540 C.3    76  ILE76       0.0001
     72  N        -19.7530   40.0770   -8.8480 N.am   77  TYR77      -0.1976
     73  CA       -20.1730   40.9990   -7.7920 C.3    77  TYR77       0.1639
     74  C        -19.4940   40.6500   -6.4660 C.2    77  TYR77       0.2290
     75  O        -18.8180   41.5270   -5.9130 O.2    77  TYR77      -0.2864
     76  CB       -21.7000   41.0950   -7.6560 C.3    77  TYR77       0.0560
     77  CG       -22.4180   41.6860   -8.8510 C.ar   77  TYR77      -0.0198
     78  CD1      -21.9940   42.8820   -9.4260 C.ar   77  TYR77      -0.0009
     79  CD2      -23.5870   41.1090   -9.3390 C.ar   77  TYR77      -0.0009
     80  CE1      -22.6870   43.4550  -10.4970 C.ar   77  TYR77       0.0417
     81  CE2      -24.2690   41.6530  -10.4260 C.ar   77  TYR77       0.0417
     82  CZ       -23.8160   42.8240  -11.0020 C.ar   77  TYR77       0.1957
     83  OH       -24.5280   43.3410  -12.0570 O.3    77  TYR77      -0.2866
     84  N        -25.5690   32.9760   -4.7460 N.3    92  THR92      -0.1203
     85  CA       -26.4160   31.8650   -5.1810 C.3    92  THR92       0.1994
     86  C        -26.3480   31.6000   -6.6680 C.2    92  THR92       0.2618
     87  O        -26.0950   32.5030   -7.4690 O.2    92  THR92      -0.2717
     88  CB       -27.8770   32.0330   -4.6980 C.3    92  THR92       0.1784
     89  OG1      -28.5050   33.0810   -5.4110 O.3    92  THR92      -0.2211
     90  CG2      -27.9850   32.3040   -3.1910 C.3    92  THR92       0.0376
     91  N        -26.5950   30.3300   -7.0280 N.am   93  GLU93      -0.1965
     92  CA       -26.6580   29.8390   -8.3930 C.3    93  GLU93       0.1733
     93  C        -27.5440   28.6300   -8.5330 C.2    93  GLU93       0.2616
     94  O        -27.5090   27.7510   -7.6760 O.2    93  GLU93      -0.2715
     95  CB       -25.2590   29.4660   -8.9210 C.3    93  GLU93       0.0429
     96  CG       -24.7490   30.3720  -10.0310 C.3    93  GLU93       0.1163
     97  CD       -25.7050   30.8090  -11.1240 C.2    93  GLU93       0.3649
     98  OE1      -25.5270   31.9430  -11.6110 O.co2  93  GLU93      -0.2457
     99  OE2      -26.6060   30.0340  -11.5140 O.co2  93  GLU93      -0.2457
    100  N        -28.2840   28.5530   -9.6520 N.am   94  VAL94      -0.1963
    101  CA       -29.1030   27.3870   -9.9970 C.3    94  VAL94       0.1727
    102  C        -28.3790   26.5710  -11.0700 C.2    94  VAL94       0.2616
    103  O        -28.6020   25.3650  -11.1640 O.2    94  VAL94      -0.2715
    104  CB       -30.5850   27.7010  -10.3950 C.3    94  VAL94       0.0290
    105  CG1      -31.3440   28.3280   -9.2410 C.3    94  VAL94       0.0023
    106  CG2      -30.6780   28.5760  -11.6450 C.3    94  VAL94       0.0023
    107  N        -27.5300   27.2290  -11.8940 N.am   95  ASP95      -0.1971
    108  CA       -26.8120   26.5680  -12.9980 C.3    95  ASP95       0.1709
    109  C        -25.5640   25.8560  -12.4900 C.2    95  ASP95       0.2293
    110  O        -24.7380   26.4760  -11.8260 O.2    95  ASP95      -0.2864
    111  CB       -26.4740   27.5700  -14.0970 C.3    95  ASP95       0.1436
    112  CG       -25.8790   26.9480  -15.3360 C.2    95  ASP95       0.3671
    113  OD1      -26.6310   26.2820  -16.0880 O.co2  95  ASP95      -0.2456
    114  OD2      -24.6660   27.1360  -15.5680 O.co2  95  ASP95      -0.2456
    115  N        -22.1140   27.3380  -13.8670 N.3    98  CYS98      -0.1235
    116  CA       -21.8960   28.6100  -13.1860 C.3    98  CYS98       0.1677
    117  C        -21.4460   28.3880  -11.7410 C.2    98  CYS98       0.2270
    118  O        -20.5390   29.0690  -11.2800 O.2    98  CYS98      -0.2867
    119  CB       -23.1560   29.4670  -13.2360 C.3    98  CYS98       0.0956
    120  SG       -23.4360   30.2960  -14.8130 S.3    98  CYS98      -0.0801
    121  N        -28.5810   26.4720   -5.3080 N.3   120  VAL120     -0.1245
    122  CA       -29.9570   26.5130   -4.7950 C.3   120  VAL120      0.1561
    123  C        -30.9560   25.8470   -5.7820 C.2   120  VAL120      0.2260
    124  O        -30.6850   25.8490   -6.9900 O.2   120  VAL120     -0.2867
    125  CB       -30.3970   27.9660   -4.4130 C.3   120  VAL120      0.0252
    126  CG1      -29.5120   28.5500   -3.3160 C.3   120  VAL120      0.0019
    127  CG2      -30.4430   28.8980   -5.6330 C.3   120  VAL120      0.0019
    128  N        -34.0000   25.4510   -8.4430 N.3   122  GLN122     -0.1245
    129  CA       -34.5190   26.3420   -9.4930 C.3   122  GLN122      0.1566
    130  C        -35.7660   27.1600   -9.0850 C.2   122  GLN122      0.2260
    131  O        -35.8720   28.3380   -9.4370 O.2   122  GLN122     -0.2867
    132  CB       -34.7620   25.5670  -10.8110 C.3   122  GLN122      0.0367
    133  CG       -35.8370   24.4600  -10.7810 C.3   122  GLN122      0.0905
    134  CD       -35.3830   23.0900  -10.3100 C.2   122  GLN122      0.2608
    135  OE1      -34.4790   22.9330   -9.4800 O.2   122  GLN122     -0.2717
    136  NE2      -36.0380   22.0540  -10.8200 N.am  122  GLN122     -0.0878
    137  N        -36.4580   28.2780   -6.1500 N.3   124  THR124     -0.1203
    138  CA       -36.1330   29.1500   -5.0160 C.3   124  THR124      0.1994
    139  C        -35.4600   30.4770   -5.4230 C.2   124  THR124      0.2617
    140  O        -34.9370   30.6120   -6.5310 O.2   124  THR124     -0.2717
    141  CB       -35.3090   28.3840   -3.9510 C.3   124  THR124      0.1784
    142  OG1      -33.9530   28.2400   -4.3700 O.3   124  THR124     -0.2211
    143  CG2      -35.9090   27.0270   -3.5920 C.3   124  THR124      0.0376
    144  N        -35.4720   31.4510   -4.4960 N.am  125  LEU125     -0.1979
    145  CA       -34.8670   32.7610   -4.6960 C.3   125  LEU125      0.1596
    146  C        -34.2030   33.2790   -3.3970 C.2   125  LEU125      0.2287
    147  O        -33.1080   32.8200   -3.0880 O.2   125  LEU125     -0.2864
    148  CB       -35.9140   33.7250   -5.2620 C.3   125  LEU125      0.0297
    149  CG       -35.4200   34.9150   -6.0540 C.3   125  LEU125      0.0022
    150  CD1      -34.9550   34.5130   -7.4160 C.3   125  LEU125      0.0001
    151  CD2      -36.5270   35.8660   -6.2530 C.3   125  LEU125      0.0001
    152  N        -28.2280   40.6110  -11.1490 N.3   144  ASN144     -0.1226
    153  CA       -28.1720   40.8430  -12.6030 C.3   144  ASN144      0.1770
    154  C        -29.0450   39.6870  -13.0890 C.2   144  ASN144      0.2439
    155  O        -28.6230   38.5350  -13.0450 O.2   144  ASN144     -0.2733
    156  CB       -26.7660   40.7830  -13.1930 C.3   144  ASN144      0.1168
    157  CG       -26.7640   41.1720  -14.6500 C.2   144  ASN144      0.2627
    158  OD1      -27.7800   41.6050  -15.2140 O.2   144  ASN144     -0.2716
    159  ND2      -25.6290   41.0230  -15.3060 N.am  144  ASN144     -0.0877
    160  N        -30.3290   39.9490  -13.3510 N.am  145  PRO145     -0.2718
    161  CA       -31.2680   38.8390  -13.5900 C.3   145  PRO145      0.1520
    162  C        -31.1090   38.0480  -14.8860 C.2   145  PRO145      0.2440
    163  O        -30.6660   38.6010  -15.8960 O.2   145  PRO145     -0.2731
    164  CB       -32.6350   39.5340  -13.5390 C.3   145  PRO145      0.0310
    165  CG       -32.3630   40.9350  -13.9430 C.3   145  PRO145      0.0237
    166  CD       -31.0200   41.2590  -13.3750 C.3   145  PRO145      0.0939
    167  N        -31.5340   36.7600  -14.8910 N.am  146  PRO146     -0.2727
    168  CA       -31.4860   35.9850  -16.1410 C.3   146  PRO146      0.1402
    169  C        -32.5880   36.4190  -17.1230 C.2   146  PRO146      0.2269
    170  O        -33.5540   37.0800  -16.7250 O.2   146  PRO146     -0.2865
    171  CB       -31.7040   34.5450  -15.6620 C.3   146  PRO146      0.0296
    172  CG       -32.5640   34.6970  -14.4550 C.3   146  PRO146      0.0237
    173  CD       -32.1020   35.9600  -13.7810 C.3   146  PRO146      0.0939
    174  N        -35.1610   34.6480  -19.1800 N.3   148  PHE148     -0.1241
    175  CA       -35.9040   33.4110  -19.4280 C.3   148  PHE148      0.1605
    176  C        -37.1240   33.7160  -20.2690 C.2   148  PHE148      0.2264
    177  O        -37.8570   34.6560  -19.9670 O.2   148  PHE148     -0.2867
    178  CB       -36.3720   32.7500  -18.1120 C.3   148  PHE148      0.0534
    179  CG       -35.3080   32.2110  -17.1890 C.ar  148  PHE148     -0.0203
    180  CD1      -34.2700   31.4190  -17.6750 C.ar  148  PHE148     -0.0042
    181  CD2      -35.3750   32.4390  -15.8200 C.ar  148  PHE148     -0.0042
    182  CE1      -33.2980   30.8990  -16.8080 C.ar  148  PHE148     -0.0003
    183  CE2      -34.4140   31.9040  -14.9550 C.ar  148  PHE148     -0.0003
    184  CZ       -33.3730   31.1570  -15.4600 C.ar  148  PHE148     -0.0000
    185  N        -39.0970   38.0670  -13.2560 N.3   166  PHE166     -0.1241
    186  CA       -38.0350   37.6870  -12.3390 C.3   166  PHE166      0.1605
    187  C        -37.8950   38.7100  -11.2000 C.2   166  PHE166      0.2264
    188  O        -37.7150   38.2960  -10.0570 O.2   166  PHE166     -0.2867
    189  CB       -36.6950   37.4790  -13.0650 C.3   166  PHE166      0.0534
    190  CG       -35.6680   36.7930  -12.1900 C.ar  166  PHE166     -0.0203
    191  CD1      -34.8290   37.5310  -11.3670 C.ar  166  PHE166     -0.0042
    192  CD2      -35.5780   35.4040  -12.1470 C.ar  166  PHE166     -0.0042
    193  CE1      -33.8970   36.8970  -10.5380 C.ar  166  PHE166     -0.0003
    194  CE2      -34.6450   34.7770  -11.3180 C.ar  166  PHE166     -0.0003
    195  CZ       -33.7940   35.5300  -10.5440 C.ar  166  PHE166     -0.0000
    196  N        -40.5870   38.4640   -8.6100 N.3   169  ARG169     -0.1245
    197  CA       -40.2930   37.3680   -7.6740 C.3   169  ARG169      0.1563
    198  C        -39.4340   37.8890   -6.5220 C.2   169  ARG169      0.2260
    199  O        -39.6470   37.4750   -5.3840 O.2   169  ARG169     -0.2867
    200  CB       -39.5770   36.1960   -8.3720 C.3   169  ARG169      0.0307
    201  CG       -40.4920   35.3060   -9.2060 C.3   169  ARG169      0.0489
    202  CD       -39.6810   34.2950  -10.0120 C.3   169  ARG169      0.2205
    203  NE       -39.0580   33.2610   -9.1700 N.pl3 169  ARG169     -0.0865
    204  CZ       -38.0530   32.4790   -9.5590 C.cat 169  ARG169      0.5346
    205  NH1      -37.5430   32.5990  -10.7830 N.pl3 169  ARG169      0.1354
    206  NH2      -37.5520   31.5680   -8.7290 N.pl3 169  ARG169      0.1354
@<TRIPOS>BOND
     1   176   177    2
     2   176   175    1
     3     7     6    1
     4     2     1    1
     5     2     3    1
     6     2     5    1
     7   175   174    1
     8   175   178    1
     9     3     4    2
    10     5     6    1
    11     6     8    1
    12    12    11    2
    13   178   179    1
    14     9    10    1
    15     9    15    1
    16    11    10    1
    17   180   179   ar
    18   180   182   ar
    19    10    13    1
    20   179   181   ar
    21   169   170    2
    22   169   168    1
    23    15    14    1
    24   182   184   ar
    25    26    24    1
    26    25    24    1
    27   168   171    1
    28   168   167    1
    29   113   112   ar
    30    13    14    1
    31   163   162    2
    32   181   183   ar
    33    24    23    2
    34   171   172    1
    35   114   112   ar
    36   184   183   ar
    37   112   111    1
    38   159   157   am
    39   158   157    2
    40   167   162   am
    41   167   173    1
    42   162   161    1
    43   120   119    1
    44   157   156    1
    45    23    22    1
    46   172   173    1
    47   111   108    1
    48   165   164    1
    49   165   166    1
    50   115   116    1
    51    16    17    1
    52    22    21    1
    53    21    20    1
    54    62    63    1
    55    62    59    1
    56   161   164    1
    57   161   160    1
    58   166   160    1
    59   160   154   am
    60    58    59    1
    61   185   186    1
    62   119   116    1
    63   156   153    1
    64   116   117    1
    65   154   155    2
    66   154   153    1
    67   189   186    1
    68   189   190    1
    69   108   109    1
    70   108   107    1
    71    59    60    1
    72    20    17    1
    73    55    56    1
    74    55    54    1
    75    17    18    1
    76   153   152    1
    77   109   110    2
    78    56    57    2
    79   186   187    1
    80   190   192   ar
    81   190   191   ar
    82   192   194   ar
    83    70    68    1
    84    83    82    1
    85    69    71    1
    86    69    68    1
    87   107   102   am
    88    68    65    1
    89   117   118    2
    90   106   104    1
    91    98    97   ar
    92    99    97   ar
    93    18    19    2
    94    60    61    2
    95    54    49   am
    96   191   193   ar
    97   194   195   ar
    98   187   188    2
    99   103   102    2
   100    97    96    1
   101   102   101    1
   102    82    80   ar
   103    82    81   ar
   104    46    45    2
   105    50    49    2
   106   136   134   am
   107   132   133    1
   108   132   129    1
   109   205   204    1
   110   133   134    1
   111    49    48    1
   112   195   193   ar
   113    80    78   ar
   114    81    79   ar
   115   104   101    1
   116   104   105    1
   117    65    64    1
   118    65    66    1
   119   134   135    2
   120    96    95    1
   121   202   201    1
   122   202   203    1
   123   101   100    1
   124    45    44    1
   125    45    47   am
   126    44    43    1
   127   100    93   am
   128   204   203    2
   129   204   206    1
   130   129   130    1
   131   129   128    1
   132   131   130    2
   133    78    77   ar
   134    79    77   ar
   135    66    72   am
   136    66    67    2
   137    48    47    1
   138    48    51    1
   139   201   200    1
   140    95    92    1
   141    38    37    2
   142    77    76    1
   143    72    73    1
   144   196   197    1
   145    93    92    1
   146    93    94    2
   147    92    91    1
   148   200   197    1
   149    43    37   am
   150    53    51    1
   151    37    36    1
   152    51    52    1
   153    73    76    1
   154    73    74    1
   155   197   198    1
   156    33    32   ar
   157    34    32   ar
   158    87    86    2
   159   150   149    1
   160    41    39    1
   161    91    86   am
   162   124   123    2
   163    32    31    1
   164    86    85    1
   165    36    39    1
   166    36    35    1
   167    39    40    1
   168   140   139    2
   169   198   199    2
   170    74    75    2
   171   151   149    1
   172   137   138    1
   173   149   148    1
   174    35    29   am
   175   123   122    1
   176   127   125    1
   177    29    30    2
   178    29    28    1
   179    31    28    1
   180   139   138    1
   181   139   144   am
   182    89    88    1
   183   121   122    1
   184   148   145    1
   185    40    42    1
   186    85    84    1
   187    85    88    1
   188   138   141    1
   189    28    27    1
   190   122   125    1
   191    88    90    1
   192   145   144    1
   193   145   146    1
   194   125   126    1
   195   142   141    1
   196   141   143    1
   197   146   147    2
