@<TRIPOS>MOLECULE
tmp/6gfzF00.pdb
 187 188 0 0 0
SMALL
GASTEIGER

@<TRIPOS>ATOM
      1  N         20.9690   14.3450   98.1250 N.3     6  ASN6       -0.1240
      2  CA        19.6280   13.7890   98.1950 C.3     6  ASN6        0.1653
      3  C         18.5470   14.8950   98.1510 C.2     6  ASN6        0.2266
      4  O         17.8730   15.1830   99.1500 O.2     6  ASN6       -0.2867
      5  CB        19.4890   12.9180   99.4450 C.3     6  ASN6        0.1155
      6  CG        18.2260   12.0780   99.4290 C.2     6  ASN6        0.2627
      7  OD1       17.4420   12.1170   98.4720 O.2     6  ASN6       -0.2716
      8  ND2       18.0180   11.3150  100.4910 N.am    6  ASN6       -0.0877
      9  N         15.7600   15.1420   96.1090 N.3     8  ARG8       -0.1245
     10  CA        14.3900   14.7330   95.7960 C.3     8  ARG8        0.1563
     11  C         13.6970   15.7410   94.8590 C.2     8  ARG8        0.2260
     12  O         12.4810   15.7760   94.7830 O.2     8  ARG8       -0.2867
     13  CB        13.5830   14.5280   97.0860 C.3     8  ARG8        0.0307
     14  CG        14.2690   13.6150   98.0990 C.3     8  ARG8        0.0489
     15  CD        13.8870   13.9290   99.5410 C.3     8  ARG8        0.2205
     16  NE        12.5000   13.5710   99.8370 N.pl3   8  ARG8       -0.0865
     17  CZ        12.0650   12.3440  100.1290 C.cat   8  ARG8        0.5346
     18  NH1       12.9000   11.3100  100.1740 N.pl3   8  ARG8        0.1354
     19  NH2       10.7750   12.1470  100.3800 N.pl3   8  ARG8        0.1354
     20  N         20.2680   11.5150   77.9190 N.3    15  PHE15      -0.1241
     21  CA        21.6060   11.0030   77.7410 C.3    15  PHE15       0.1605
     22  C         21.7520   10.7790   76.2560 C.2    15  PHE15       0.2264
     23  O         21.0340    9.9710   75.6920 O.2    15  PHE15      -0.2867
     24  CB        21.8090    9.6730   78.4710 C.3    15  PHE15       0.0534
     25  CG        21.9340    9.7840   79.9720 C.ar   15  PHE15      -0.0203
     26  CD1       22.1230   11.0050   80.6150 C.ar   15  PHE15      -0.0042
     27  CD2       21.9030    8.6360   80.7440 C.ar   15  PHE15      -0.0042
     28  CE1       22.2650   11.0650   81.9940 C.ar   15  PHE15      -0.0003
     29  CE2       22.0410    8.6940   82.1140 C.ar   15  PHE15      -0.0003
     30  CZ        22.2260    9.9100   82.7410 C.ar   15  PHE15      -0.0000
     31  N         26.6850    4.7020   81.7240 N.3    24  PRO24      -0.2116
     32  CA        26.4710    5.7690   82.6820 C.3    24  PRO24       0.1372
     33  C         26.6900    5.2650   84.0930 C.2    24  PRO24       0.2244
     34  O         26.2450    4.1620   84.4150 O.2    24  PRO24      -0.2868
     35  CB        25.0050    6.1470   82.4950 C.3    24  PRO24       0.0268
     36  CG        24.4490    5.2460   81.4640 C.3    24  PRO24       0.0207
     37  CD        25.4240    4.1380   81.2490 C.3    24  PRO24       0.0892
     38  N         26.1500    6.5340   88.1070 N.3    26  TRP26      -0.1241
     39  CA        25.5790    7.4820   89.0630 C.3    26  TRP26       0.1605
     40  C         26.3320    7.3620   90.3730 C.2    26  TRP26       0.2264
     41  O         26.5220    6.2550   90.8730 O.2    26  TRP26      -0.2867
     42  CB        24.1070    7.1670   89.3260 C.3    26  TRP26       0.0550
     43  CG        23.4880    8.0240   90.4140 C.ar   26  TRP26       0.0003
     44  CD1       23.3940    9.3810   90.4260 C.ar   26  TRP26       0.0946
     45  CD2       22.8790    7.5690   91.6380 C.ar   26  TRP26       0.0152
     46  NE1       22.7560    9.8070   91.5700 N.ar   26  TRP26      -0.2442
     47  CE2       22.4310    8.7160   92.3340 C.ar   26  TRP26       0.0810
     48  CE3       22.6680    6.3040   92.2120 C.ar   26  TRP26       0.0012
     49  CZ2       21.8000    8.6400   93.5870 C.ar   26  TRP26       0.0191
     50  CZ3       22.0220    6.2260   93.4600 C.ar   26  TRP26       0.0001
     51  CH2       21.6040    7.3880   94.1300 C.ar   26  TRP26       0.0015
     52  N         24.5690    8.2890   97.3190 N.3    29  PHE29      -0.1241
     53  CA        24.6340    9.2210   98.4440 C.3    29  PHE29       0.1605
     54  C         25.8550    9.0080   99.3280 C.2    29  PHE29       0.2264
     55  O         26.3110    9.9560   99.9740 O.2    29  PHE29      -0.2867
     56  CB        23.3360    9.1570   99.2460 C.3    29  PHE29       0.0534
     57  CG        22.1150    9.3940   98.4040 C.ar   29  PHE29      -0.0203
     58  CD1       21.9990   10.5670   97.6540 C.ar   29  PHE29      -0.0042
     59  CD2       21.1120    8.4390   98.3150 C.ar   29  PHE29      -0.0042
     60  CE1       20.8990   10.7930   96.8580 C.ar   29  PHE29      -0.0003
     61  CE2       20.0150    8.6620   97.5190 C.ar   29  PHE29      -0.0003
     62  CZ        19.9060    9.8390   96.7900 C.ar   29  PHE29      -0.0000
     63  N         27.3890    3.7800   91.0430 N.3    34  GLN34      -0.1245
     64  CA        26.3650    2.8000   90.6900 C.3    34  GLN34       0.1566
     65  C         26.1930    2.7610   89.1720 C.2    34  GLN34       0.2260
     66  O         25.8420    3.7700   88.5520 O.2    34  GLN34      -0.2867
     67  CB        25.0450    3.1120   91.3770 C.3    34  GLN34       0.0367
     68  CG        23.9170    2.1310   91.0110 C.3    34  GLN34       0.0905
     69  CD        22.6610    2.3080   91.8540 C.2    34  GLN34       0.2608
     70  OE1       21.5470    2.3750   91.3320 O.2    34  GLN34      -0.2717
     71  NE2       22.8350    2.3810   93.1620 N.am   34  GLN34      -0.0878
     72  N         24.5180    2.1120   85.5550 N.3    36  TYR36      -0.1228
     73  CA        23.1690    2.0910   84.9860 C.3    36  TYR36       0.1721
     74  C         23.2320    1.4480   83.5980 C.2    36  TYR36       0.2437
     75  O         24.3240    1.1640   83.1090 O.2    36  TYR36      -0.2733
     76  CB        22.6150    3.5160   84.9400 C.3    36  TYR36       0.0547
     77  CG        21.8960    3.8920   86.2020 C.ar   36  TYR36      -0.0200
     78  CD1       22.5960    4.0930   87.3840 C.ar   36  TYR36      -0.0009
     79  CD2       20.5050    3.9950   86.2400 C.ar   36  TYR36      -0.0009
     80  CE1       21.9320    4.3920   88.5740 C.ar   36  TYR36       0.0417
     81  CE2       19.8300    4.3150   87.4280 C.ar   36  TYR36       0.0417
     82  CZ        20.5490    4.5060   88.5890 C.ar   36  TYR36       0.1957
     83  OH        19.9030    4.8230   89.7700 O.3    36  TYR36      -0.2866
     84  N         22.0700    1.1680   82.9750 N.am   37  PRO37      -0.2718
     85  CA        22.0430    0.4940   81.6670 C.3    37  PRO37       0.1535
     86  C         22.8690    1.1730   80.5570 C.2    37  PRO37       0.2599
     87  O         22.9510    2.4120   80.5040 O.2    37  PRO37      -0.2715
     88  CB        20.5570    0.4960   81.3080 C.3    37  PRO37       0.0310
     89  CG        19.8500    0.4700   82.6310 C.3    37  PRO37       0.0237
     90  CD        20.7320    1.2060   83.6000 C.3    37  PRO37       0.0939
     91  N         23.4930    0.3630   79.6980 N.am   38  THR38      -0.1937
     92  CA        24.4070    0.8880   78.6820 C.3    38  THR38       0.2028
     93  C         23.6670    1.5900   77.5420 C.2    38  THR38       0.2642
     94  O         22.4930    1.3510   77.3420 O.2    38  THR38      -0.2714
     95  CB        25.3180   -0.2080   78.0840 C.3    38  THR38       0.1808
     96  OG1       24.5230   -1.2940   77.6110 O.3    38  THR38      -0.2208
     97  CG2       26.2890   -0.7150   79.1180 C.3    38  THR38       0.0379
     98  N         24.3690    2.4710   76.8240 N.am   39  LEU39      -0.1977
     99  CA        23.8370    3.1010   75.6120 C.3    39  LEU39       0.1596
    100  C         24.6860    2.7280   74.3970 C.2    39  LEU39       0.2287
    101  O         25.8870    3.0010   74.3850 O.2    39  LEU39      -0.2864
    102  CB        23.8410    4.6180   75.7220 C.3    39  LEU39       0.0297
    103  CG        22.8320    5.2700   76.6540 C.3    39  LEU39       0.0022
    104  CD1       23.4980    5.6060   77.9700 C.3    39  LEU39       0.0001
    105  CD2       22.2940    6.5360   76.0170 C.3    39  LEU39       0.0001
    106  N         18.5100    8.3600   75.3070 N.3    45  ARG45      -0.1231
    107  CA        17.4700    7.9280   76.2410 C.3    45  ARG45       0.1694
    108  C         17.0770    9.1140   77.1170 C.2    45  ARG45       0.2592
    109  O         17.9550    9.8200   77.6510 O.2    45  ARG45      -0.2718
    110  CB        17.9870    6.8340   77.1810 C.3    45  ARG45       0.0321
    111  CG        18.6220    5.6170   76.5400 C.3    45  ARG45       0.0489
    112  CD        17.6800    4.4410   76.4620 C.3    45  ARG45       0.2205
    113  NE        18.4100    3.2440   76.0440 N.pl3  45  ARG45      -0.0865
    114  CZ        18.6860    2.9210   74.7790 C.cat  45  ARG45       0.5346
    115  NH1       18.2960    3.6990   73.7810 N.pl3  45  ARG45       0.1354
    116  NH2       19.3580    1.8070   74.5070 N.pl3  45  ARG45       0.1354
    117  N         15.7710    9.3100   77.2850 N.am   46  ARG46      -0.1966
    118  CA        15.2440   10.3070   78.2040 C.3    46  ARG46       0.1729
    119  C         15.1130    9.6270   79.5490 C.2    46  ARG46       0.2616
    120  O         14.3560    8.6620   79.6590 O.2    46  ARG46      -0.2715
    121  CB        13.8800   10.8180   77.7360 C.3    46  ARG46       0.0348
    122  CG        13.2980   11.9230   78.6020 C.3    46  ARG46       0.0492
    123  CD        11.9770   12.4650   78.0580 C.3    46  ARG46       0.2205
    124  NE        11.0490   12.7680   79.1560 N.pl3  46  ARG46      -0.0865
    125  CZ        10.7450   13.9780   79.6280 C.cat  46  ARG46       0.5346
    126  NH1       11.2630   15.0760   79.0980 N.pl3  46  ARG46       0.1354
    127  NH2        9.8920   14.0910   80.6410 N.pl3  46  ARG46       0.1354
    128  N         15.8460   10.1290   80.5550 N.am   47  ILE47      -0.1963
    129  CA        15.8840    9.5170   81.8800 C.3    47  ILE47       0.1727
    130  C         15.5230   10.4690   83.0370 C.2    47  ILE47       0.2616
    131  O         15.7480   11.6830   82.9640 O.2    47  ILE47      -0.2715
    132  CB        17.2550    8.8620   82.1540 C.3    47  ILE47       0.0290
    133  CG1       18.3620    9.9110   82.2790 C.3    47  ILE47       0.0022
    134  CG2       17.6000    7.8650   81.0550 C.3    47  ILE47       0.0023
    135  CD1       18.6670   10.3330   83.6940 C.3    47  ILE47       0.0001
    136  N         14.9600    9.8930   84.1010 N.am   48  HIS48      -0.1959
    137  CA        14.5710   10.6290   85.3030 C.3    48  HIS48       0.1787
    138  C         15.7180   10.6950   86.3060 C.2    48  HIS48       0.2621
    139  O         16.1930    9.6680   86.7930 O.2    48  HIS48      -0.2715
    140  CB        13.3500    9.9710   85.9730 C.3    48  HIS48       0.0785
    141  CG        12.0560   10.2230   85.2560 C.ar   48  HIS48       0.0821
    142  ND1       11.9730   10.3740   83.8870 N.ar   48  HIS48      -0.2267
    143  CD2       10.7900   10.3350   85.7180 C.ar   48  HIS48       0.1154
    144  CE1       10.7180   10.5820   83.5390 C.ar   48  HIS48       0.1986
    145  NE2        9.9780   10.5590   84.6310 N.ar   48  HIS48      -0.2212
    146  N         16.1370   11.9110   86.6330 N.am   49  SER49      -0.1936
    147  CA        17.1400   12.1150   87.6580 C.3    49  SER49       0.2055
    148  C         16.7120   13.2380   88.5980 C.2    49  SER49       0.2643
    149  O         15.5310   13.6180   88.6380 O.2    49  SER49      -0.2714
    150  CB        18.4870   12.4100   86.9990 C.3    49  SER49       0.2130
    151  OG        19.5440   12.2380   87.9100 O.3    49  SER49      -0.2179
    152  N         17.6540   13.7450   89.3870 N.am   50  TYR50      -0.1973
    153  CA        17.3520   14.7950   90.3690 C.3    50  TYR50       0.1639
    154  C         18.4380   15.8640   90.3930 C.2    50  TYR50       0.2290
    155  O         19.5890   15.6190   90.0190 O.2    50  TYR50      -0.2864
    156  CB        17.1600   14.1900   91.7680 C.3    50  TYR50       0.0560
    157  CG        16.0360   13.1750   91.8200 C.ar   50  TYR50      -0.0198
    158  CD1       16.2570   11.8530   91.4860 C.ar   50  TYR50      -0.0009
    159  CD2       14.7510   13.5480   92.1670 C.ar   50  TYR50      -0.0009
    160  CE1       15.2330   10.9250   91.5020 C.ar   50  TYR50       0.0417
    161  CE2       13.7170   12.6250   92.1870 C.ar   50  TYR50       0.0417
    162  CZ        13.9680   11.3140   91.8510 C.ar   50  TYR50       0.1957
    163  OH        12.9610   10.3840   91.8780 O.3    50  TYR50      -0.2866
    164  N         22.4680   15.6480   91.6040 N.3    53  HIS53      -0.1241
    165  CA        23.0070   14.2920   91.4330 C.3    53  HIS53       0.1621
    166  C         24.2060   14.2880   90.4810 C.2    53  HIS53       0.2264
    167  O         24.2710   15.0910   89.5680 O.2    53  HIS53      -0.2867
    168  CB        21.9220   13.3430   90.9310 C.3    53  HIS53       0.0745
    169  CG        20.9550   12.9330   91.9960 C.ar   53  HIS53       0.0817
    170  ND1       20.1810   11.7960   91.9040 N.ar   53  HIS53      -0.2268
    171  CD2       20.6540   13.4990   93.1900 C.ar   53  HIS53       0.1154
    172  CE1       19.4380   11.6850   92.9950 C.ar   53  HIS53       0.1986
    173  NE2       19.7020   12.7080   93.7890 N.ar   53  HIS53      -0.2212
    174  N         26.8570   12.3670   87.8430 N.3    55  TRP55      -0.1241
    175  CA        26.9830   11.3340   86.8270 C.3    55  TRP55       0.1605
    176  C         28.3210   11.4390   86.1290 C.2    55  TRP55       0.2264
    177  O         28.8740   12.5340   85.9650 O.2    55  TRP55      -0.2867
    178  CB        25.9160   11.5120   85.7590 C.3    55  TRP55       0.0550
    179  CG        24.5170   11.1930   86.1780 C.ar   55  TRP55       0.0003
    180  CD1       23.5900   12.0630   86.6800 C.ar   55  TRP55       0.0946
    181  CD2       23.8610    9.9280   86.0710 C.ar   55  TRP55       0.0152
    182  NE1       22.3990   11.4150   86.8940 N.ar   55  TRP55      -0.2442
    183  CE2       22.5450   10.1010   86.5360 C.ar   55  TRP55       0.0810
    184  CE3       24.2630    8.6570   85.6400 C.ar   55  TRP55       0.0012
    185  CZ2       21.6390    9.0530   86.5940 C.ar   55  TRP55       0.0191
    186  CZ3       23.3610    7.6200   85.6910 C.ar   55  TRP55       0.0001
    187  CH2       22.0610    7.8220   86.1650 C.ar   55  TRP55       0.0015
@<TRIPOS>BOND
     1   115   114    1
     2   101   100    2
     3   100    99    1
     4   116   114    1
     5   114   113    2
     6   106   107    1
     7    99   102    1
     8    99    98    1
     9    23    22    2
    10   102   103    1
    11   105   103    1
    12   113   112    1
    13   107   108    1
    14   107   110    1
    15    22    21    1
    16   112   111    1
    17   111   110    1
    18   103   104    1
    19    98    93   am
    20   108   117   am
    21   108   109    2
    22   117   118    1
    23    94    93    2
    24    93    92    1
    25    96    95    1
    26   121   118    1
    27   121   122    1
    28    21    20    1
    29    21    24    1
    30   123   122    1
    31   123   124    1
    32    95    92    1
    33    95    97    1
    34   118   119    1
    35    24    25    1
    36    92    91    1
    37   126   125    1
    38   124   125    2
    39   119   120    2
    40   119   128   am
    41   125   127    1
    42    91    86   am
    43    25    26   ar
    44    25    27   ar
    45    87    86    2
    46   128   129    1
    47    86    85    1
    48    26    28   ar
    49    27    29   ar
    50   134   132    1
    51    37    36    1
    52    37    31    1
    53    88    85    1
    54    88    89    1
    55    36    35    1
    56    85    84    1
    57    31    32    1
    58   129   132    1
    59   129   130    1
    60    28    30   ar
    61    29    30   ar
    62   132   133    1
    63   133   135    1
    64    35    32    1
    65    89    90    1
    66    32    33    1
    67   131   130    2
    68    84    74   am
    69    84    90    1
    70   130   136   am
    71    75    74    2
    72   144   142   ar
    73   144   145   ar
    74    74    73    1
    75   142   141   ar
    76    33    34    2
    77   136   137    1
    78   145   143   ar
    79    76    73    1
    80    76    77    1
    81    73    72    1
    82   141   143   ar
    83   141   140    1
    84   137   140    1
    85   137   138    1
    86   184   186   ar
    87   184   181   ar
    88   186   187   ar
    89   178   179    1
    90   178   175    1
    91   177   176    2
    92   181   179   ar
    93   181   183   ar
    94   176   175    1
    95   187   185   ar
    96   179   180   ar
    97    77    79   ar
    98    77    78   ar
    99    79    81   ar
   100   138   146   am
   101   138   139    2
   102   183   185   ar
   103   183   182   ar
   104   146   147    1
   105   180   182   ar
   106   175   174    1
   107   150   147    1
   108   150   151    1
   109    78    80   ar
   110    81    82   ar
   111   147   148    1
   112    38    39    1
   113    66    65    2
   114    80    82   ar
   115    82    83    1
   116   148   149    2
   117   148   152   am
   118    39    42    1
   119    39    40    1
   120    65    64    1
   121    42    43    1
   122   152   153    1
   123   167   166    2
   124   155   154    2
   125   153   154    1
   126   153   156    1
   127    40    41    2
   128    43    44   ar
   129    43    45   ar
   130    44    46   ar
   131   166   165    1
   132    64    63    1
   133    64    67    1
   134   168   165    1
   135   168   169    1
   136    68    67    1
   137    68    69    1
   138    70    69    2
   139   165   164    1
   140   158   160   ar
   141   158   157   ar
   142   160   162   ar
   143    46    47   ar
   144    45    48   ar
   145    45    47   ar
   146   156   157    1
   147   157   159   ar
   148   162   163    1
   149   162   161   ar
   150    69    71   am
   151   170   169   ar
   152   170   172   ar
   153   169   171   ar
   154   159   161   ar
   155    48    50   ar
   156    47    49   ar
   157   172   173   ar
   158   171   173   ar
   159    50    51   ar
   160    49    51   ar
   161    12    11    2
   162    11    10    1
   163    10     9    1
   164    10    13    1
   165    62    60   ar
   166    62    61   ar
   167    60    58   ar
   168    13    14    1
   169    52    53    1
   170    61    59   ar
   171    58    57   ar
   172    14    15    1
   173     1     2    1
   174     3     2    1
   175     3     4    2
   176     2     5    1
   177    59    57   ar
   178    57    56    1
   179    53    56    1
   180    53    54    1
   181     7     6    2
   182    54    55    2
   183     6     5    1
   184     6     8   am
   185    15    16    1
   186    16    17    2
   187    17    18    1
   188    17    19    1
