@<TRIPOS>MOLECULE
tmp/6gg4A00.pdb
 124 122 0 0 0
SMALL
GASTEIGER

@<TRIPOS>ATOM
      1  N        361.3100  -83.6720  196.1800 N.3    20  ALA20      -0.1231
      2  CA       362.7710  -83.7740  196.1770 C.3    20  ALA20       0.1694
      3  C        363.3730  -83.2780  197.4900 C.2    20  ALA20       0.2592
      4  O        362.7610  -82.4990  198.2100 O.2    20  ALA20      -0.2718
      5  CB       363.3510  -82.9910  195.0110 C.3    20  ALA20       0.0304
      6  N        364.5780  -83.7460  197.7850 N.am   21  ARG21      -0.1966
      7  CA       365.3520  -83.2710  198.9260 C.3    21  ARG21       0.1729
      8  C        366.0240  -81.9790  198.5000 C.2    21  ARG21       0.2616
      9  O        366.8900  -82.0060  197.6390 O.2    21  ARG21      -0.2715
     10  CB       366.3840  -84.3320  199.3100 C.3    21  ARG21       0.0348
     11  CG       367.2070  -84.0310  200.5520 C.3    21  ARG21       0.0492
     12  CD       368.6030  -83.5240  200.2240 C.3    21  ARG21       0.2205
     13  NE       369.3980  -84.5200  199.5030 N.pl3  21  ARG21      -0.0865
     14  CZ       370.5430  -84.2640  198.8710 C.cat  21  ARG21       0.5346
     15  NH1      371.1000  -83.0570  198.8770 N.pl3  21  ARG21       0.1354
     16  NH2      371.1580  -85.2470  198.2430 N.pl3  21  ARG21       0.1354
     17  N        365.6210  -80.8530  199.0830 N.am   22  ASN22      -0.1958
     18  CA       366.0500  -79.5210  198.6220 C.3    22  ASN22       0.1819
     19  C        367.2300  -78.9270  199.3890 C.2    22  ASN22       0.2622
     20  O        367.7380  -77.8750  198.9960 O.2    22  ASN22      -0.2715
     21  CB       364.8740  -78.5310  198.6700 C.3    22  ASN22       0.1195
     22  CG       363.9350  -78.6710  197.4890 C.2    22  ASN22       0.2630
     23  OD1      364.0610  -77.9290  196.5230 O.2    22  ASN22      -0.2716
     24  ND2      362.9850  -79.5990  197.5680 N.am   22  ASN22      -0.0877
     25  N        367.6650  -79.5720  200.4720 N.am   23  THR23      -0.1937
     26  CA       368.7750  -79.0600  201.2610 C.3    23  THR23       0.2028
     27  C        370.0760  -79.7200  200.8000 C.2    23  THR23       0.2642
     28  O        370.0720  -80.8530  200.3300 O.2    23  THR23      -0.2714
     29  CB       368.5560  -79.3100  202.7640 C.3    23  THR23       0.1808
     30  OG1      368.2400  -80.6920  202.9870 O.3    23  THR23      -0.2208
     31  CG2      367.4190  -78.4600  203.2810 C.3    23  THR23       0.0379
     32  N        371.1890  -79.0130  200.9420 N.am   24  GLY24      -0.1954
     33  CA       372.4870  -79.5690  200.5910 C.3    24  GLY24       0.1869
     34  C        373.0000  -80.5500  201.6290 C.2    24  GLY24       0.2309
     35  O        372.6890  -80.4400  202.8100 O.2    24  GLY24      -0.2863
     36  N        376.8240  -83.4280  198.0480 N.3    48  ASN48      -0.1240
     37  CA       376.9790  -82.2370  197.2110 C.3    48  ASN48       0.1653
     38  C        378.2920  -81.4930  197.4490 C.2    48  ASN48       0.2266
     39  O        378.7630  -80.7770  196.5660 O.2    48  ASN48      -0.2867
     40  CB       375.8380  -81.2590  197.4980 C.3    48  ASN48       0.1155
     41  CG       374.4590  -81.8770  197.3050 C.2    48  ASN48       0.2627
     42  OD1      373.6210  -81.8120  198.2090 O.2    48  ASN48      -0.2716
     43  ND2      374.2040  -82.4480  196.1280 N.am   48  ASN48      -0.0877
     44  N        376.1970  -84.3150  188.3150 N.3    84  ARG84      -0.1245
     45  CA       375.9930  -83.4170  189.4480 C.3    84  ARG84       0.1563
     46  C        377.3120  -82.7460  189.8340 C.2    84  ARG84       0.2260
     47  O        378.2870  -83.4440  190.1070 O.2    84  ARG84      -0.2867
     48  CB       375.4590  -84.1940  190.6620 C.3    84  ARG84       0.0307
     49  CG       374.1810  -84.9930  190.4190 C.3    84  ARG84       0.0489
     50  CD       373.0530  -84.1630  189.8200 C.3    84  ARG84       0.2205
     51  NE       372.8160  -82.9250  190.5690 N.pl3  84  ARG84      -0.0865
     52  CZ       372.8150  -81.6810  190.0780 C.cat  84  ARG84       0.5346
     53  NH1      373.0180  -81.4190  188.7810 N.pl3  84  ARG84       0.1354
     54  NH2      372.5790  -80.6670  190.9020 N.pl3  84  ARG84       0.1354
     55  N        361.7690  -76.2280  192.4910 N.3   427  PRO427     -0.2116
     56  CA       363.2200  -76.2040  192.4210 C.3   427  PRO427      0.1372
     57  C        363.7320  -75.0960  191.5060 C.2   427  PRO427      0.2244
     58  O        363.0860  -74.7710  190.5060 O.2   427  PRO427     -0.2868
     59  CB       363.5770  -77.5930  191.8680 C.3   427  PRO427      0.0268
     60  CG       362.3340  -78.1330  191.2800 C.3   427  PRO427      0.0207
     61  CD       361.2150  -77.5200  192.0550 C.3   427  PRO427      0.0892
     62  N        375.2820  -75.2430  195.5940 N.3   442  HIS442     -0.1241
     63  CA       374.7650  -76.2230  196.5540 C.3   442  HIS442      0.1621
     64  C        374.6330  -75.6810  197.9730 C.2   442  HIS442      0.2264
     65  O        373.9260  -76.2830  198.7770 O.2   442  HIS442     -0.2867
     66  CB       375.6460  -77.4760  196.6080 C.3   442  HIS442      0.0745
     67  CG       375.5690  -78.3370  195.3900 C.ar  442  HIS442      0.0817
     68  ND1      374.3940  -78.8570  194.9010 N.ar  442  HIS442     -0.2268
     69  CD2      376.5540  -78.8280  194.6040 C.ar  442  HIS442      0.1154
     70  CE1      374.6600  -79.6130  193.8530 C.ar  442  HIS442      0.1986
     71  NE2      375.9630  -79.6070  193.6460 N.ar  442  HIS442     -0.2212
     72  N        372.9400  -73.1630  198.7530 N.3   444  TYR444     -0.1241
     73  CA       371.5920  -72.5840  198.8730 C.3   444  TYR444      0.1605
     74  C        370.5310  -73.6540  198.7840 C.2   444  TYR444      0.2264
     75  O        370.5220  -74.4730  197.8650 O.2   444  TYR444     -0.2867
     76  CB       371.3420  -71.5420  197.7810 C.3   444  TYR444      0.0534
     77  CG       372.2520  -70.3610  197.9110 C.ar  444  TYR444     -0.0201
     78  CD1      373.5730  -70.4410  197.4790 C.ar  444  TYR444     -0.0009
     79  CD2      371.8230  -69.1790  198.5030 C.ar  444  TYR444     -0.0009
     80  CE1      374.4350  -69.3710  197.6170 C.ar  444  TYR444      0.0417
     81  CE2      372.6820  -68.0980  198.6370 C.ar  444  TYR444      0.0417
     82  CZ       373.9870  -68.2070  198.1920 C.ar  444  TYR444      0.1957
     83  OH       374.8680  -67.1640  198.3140 O.3   444  TYR444     -0.2866
     84  N        367.2860  -75.3500  197.7730 N.3   446  GLY446     -0.1210
     85  CA       366.4060  -75.3040  196.6220 C.3   446  GLY446      0.1956
     86  C        367.0380  -74.9780  195.2880 C.2   446  GLY446      0.2612
     87  O        366.3140  -74.8820  194.3120 O.2   446  GLY446     -0.2717
     88  N        368.3510  -74.7890  195.2200 N.am  447  ILE447     -0.1965
     89  CA       369.0380  -74.5740  193.9570 C.3   447  ILE447      0.1727
     90  C        369.6180  -75.8950  193.4940 C.2   447  ILE447      0.2616
     91  O        370.3960  -76.5220  194.2130 O.2   447  ILE447     -0.2715
     92  CB       370.1570  -73.5140  194.0300 C.3   447  ILE447      0.0290
     93  CG1      369.5870  -72.1890  194.5390 C.3   447  ILE447      0.0022
     94  CG2      370.8100  -73.3500  192.6490 C.3   447  ILE447      0.0023
     95  CD1      370.5430  -71.0200  194.4550 C.3   447  ILE447      0.0001
     96  N        369.2090  -76.3020  192.2880 N.am  448  PHE448     -0.1960
     97  CA       369.6980  -77.4880  191.6220 C.3   448  PHE448      0.1756
     98  C        370.5730  -77.0040  190.4600 C.2   448  PHE448      0.2461
     99  O        370.0610  -76.7150  189.3760 O.2   448  PHE448     -0.2730
    100  CB       368.5200  -78.3240  191.1280 C.3   448  PHE448      0.0574
    101  CG       368.9120  -79.6680  190.5700 C.ar  448  PHE448     -0.0200
    102  CD1      369.0820  -80.7670  191.4110 C.ar  448  PHE448     -0.0042
    103  CD2      369.1000  -79.8450  189.1980 C.ar  448  PHE448     -0.0042
    104  CE1      369.4320  -82.0120  190.8870 C.ar  448  PHE448     -0.0003
    105  CE2      369.4580  -81.0750  188.6880 C.ar  448  PHE448     -0.0003
    106  CZ       369.6100  -82.1550  189.5220 C.ar  448  PHE448     -0.0000
    107  N        371.8990  -76.8850  190.6810 N.am  449  PRO449     -0.2727
    108  CA       372.7690  -76.3990  189.6170 C.3   449  PRO449      0.1402
    109  C        372.9830  -77.4180  188.4950 C.2   449  PRO449      0.2269
    110  O        373.0670  -78.6180  188.7660 O.2   449  PRO449     -0.2865
    111  CB       374.0830  -76.1280  190.3460 C.3   449  PRO449      0.0296
    112  CG       374.0840  -77.1150  191.4540 C.3   449  PRO449      0.0237
    113  CD       372.6670  -77.2300  191.8900 C.3   449  PRO449      0.0939
    114  N        361.1650  -83.5050  188.1350 N.3   479  PHE479     -0.1241
    115  CA       360.6170  -82.2300  188.6300 C.3   479  PHE479      0.1605
    116  C        359.3480  -81.8530  187.8740 C.2   479  PHE479      0.2264
    117  O        358.4440  -81.2370  188.4410 O.2   479  PHE479     -0.2867
    118  CB       361.6140  -81.0610  188.4790 C.3   479  PHE479      0.0534
    119  CG       362.9070  -81.2170  189.2520 C.ar  479  PHE479     -0.0203
    120  CD1      362.9620  -81.8870  190.4760 C.ar  479  PHE479     -0.0042
    121  CD2      364.0730  -80.6350  188.7630 C.ar  479  PHE479     -0.0042
    122  CE1      364.1620  -82.0010  191.1620 C.ar  479  PHE479     -0.0003
    123  CE2      365.2670  -80.7370  189.4560 C.ar  479  PHE479     -0.0003
    124  CZ       365.3110  -81.4140  190.6630 C.ar  479  PHE479     -0.0000
@<TRIPOS>BOND
     1   116   117    2
     2   116   115    1
     3   114   115    1
     4    44    45    1
     5   118   115    1
     6   118   119    1
     7   109   110    2
     8   109   108    1
     9   105   103   ar
    10   105   106   ar
    11   121   119   ar
    12   121   123   ar
    13    53    52    1
    14   103   101   ar
    15   119   120   ar
    16    99    98    2
    17    45    46    1
    18    45    48    1
    19   123   124   ar
    20   106   104   ar
    21   108   111    1
    22   108   107    1
    23    50    49    1
    24    50    51    1
    25    46    47    2
    26    52    51    2
    27    52    54    1
    28   111   112    1
    29    49    48    1
    30    98   107   am
    31    98    97    1
    32   120   122   ar
    33    58    57    2
    34   101   100    1
    35   101   102   ar
    36   124   122   ar
    37   107   113    1
    38   104   102   ar
    39   100    97    1
    40    60    59    1
    41    60    61    1
    42   112   113    1
    43    57    56    1
    44    97    96    1
    45    59    56    1
    46    61    55    1
    47    96    90   am
    48    56    55    1
    49    94    92    1
    50    90    89    1
    51    90    91    2
    52    71    70   ar
    53    71    69   ar
    54    70    68   ar
    55    89    92    1
    56    89    88    1
    57    92    93    1
    58    87    86    2
    59    95    93    1
    60    69    67   ar
    61    68    67   ar
    62     5     2    1
    63    88    86   am
    64    86    85    1
    65    67    66    1
    66    62    63    1
    67    43    41   am
    68     2     1    1
    69     2     3    1
    70    23    22    2
    71    63    66    1
    72    63    64    1
    73    39    38    2
    74    85    84    1
    75    37    38    1
    76    37    40    1
    77    37    36    1
    78    41    40    1
    79    41    42    2
    80    78    80   ar
    81    78    77   ar
    82    22    24   am
    83    22    21    1
    84     3     6   am
    85     3     4    2
    86    80    82   ar
    87     9     8    2
    88    76    77    1
    89    76    73    1
    90     6     7    1
    91    75    74    2
    92    77    79   ar
    93    64    65    2
    94    82    83    1
    95    82    81   ar
    96    16    14    1
    97     8     7    1
    98     8    17   am
    99    79    81   ar
   100    18    21    1
   101    18    17    1
   102    18    19    1
   103    72    73    1
   104    74    73    1
   105    14    15    1
   106    14    13    2
   107     7    10    1
   108    20    19    2
   109    10    11    1
   110    19    25   am
   111    13    12    1
   112    12    11    1
   113    28    27    2
   114    25    26    1
   115    33    32    1
   116    33    34    1
   117    27    32   am
   118    27    26    1
   119    26    29    1
   120    34    35    2
   121    29    30    1
   122    29    31    1
