@<TRIPOS>MOLECULE
tmp/6gg4D00.pdb
 124 122 0 0 0
SMALL
GASTEIGER

@<TRIPOS>ATOM
      1  N        355.1810  -66.8240  231.1200 N.3    20  ALA20      -0.1231
      2  CA       354.9420  -68.0160  231.9410 C.3    20  ALA20       0.1694
      3  C        355.0810  -69.3020  231.1270 C.2    20  ALA20       0.2592
      4  O        354.9240  -69.2900  229.9120 O.2    20  ALA20      -0.2718
      5  CB       353.5710  -67.9580  232.6010 C.3    20  ALA20       0.0304
      6  N        355.3720  -70.3960  231.8180 N.am   21  ARG21      -0.1966
      7  CA       355.4230  -71.7150  231.2250 C.3    21  ARG21       0.1729
      8  C        353.9920  -72.2310  231.1450 C.2    21  ARG21       0.2616
      9  O        353.3860  -72.4800  232.1730 O.2    21  ARG21      -0.2715
     10  CB       356.2900  -72.6290  232.1010 C.3    21  ARG21       0.0348
     11  CG       356.5430  -74.0240  231.5460 C.3    21  ARG21       0.0492
     12  CD       355.6730  -75.0720  232.2260 C.3    21  ARG21       0.2205
     13  NE       355.9430  -75.2010  233.6580 N.pl3  21  ARG21      -0.0865
     14  CZ       355.1690  -75.8570  234.5250 C.cat  21  ARG21       0.5346
     15  NH1      354.0760  -76.5210  234.1450 N.pl3  21  ARG21       0.1354
     16  NH2      355.5200  -75.8830  235.7990 N.pl3  21  ARG21       0.1354
     17  N        353.4570  -72.3880  229.9380 N.am   22  ASN22      -0.1958
     18  CA       352.0340  -72.7160  229.7330 C.3    22  ASN22       0.1819
     19  C        351.7270  -74.2030  229.5320 C.2    22  ASN22       0.2622
     20  O        350.5580  -74.5860  229.4430 O.2    22  ASN22      -0.2715
     21  CB       351.4580  -71.9260  228.5330 C.3    22  ASN22       0.1195
     22  CG       351.1480  -70.4780  228.8850 C.2    22  ASN22       0.2630
     23  OD1      351.9660  -69.5860  228.6670 O.2    22  ASN22      -0.2716
     24  ND2      349.9650  -70.2400  229.4140 N.am   22  ASN22      -0.0877
     25  N        352.7530  -75.0370  229.4160 N.am   23  THR23      -0.1937
     26  CA       352.5570  -76.4670  229.1870 C.3    23  THR23       0.2028
     27  C        352.5940  -77.2100  230.5180 C.2    23  THR23       0.2642
     28  O        353.2560  -76.7840  231.4540 O.2    23  THR23      -0.2714
     29  CB       353.6250  -77.0340  228.2300 C.3    23  THR23       0.1808
     30  OG1      354.9250  -76.6730  228.6900 O.3    23  THR23      -0.2208
     31  CG2      353.4410  -76.4830  226.8350 C.3    23  THR23       0.0379
     32  N        351.8830  -78.3270  230.6030 N.am   24  GLY24      -0.1954
     33  CA       351.8940  -79.1390  231.8150 C.3    24  GLY24       0.1869
     34  C        353.1640  -79.9640  231.9470 C.2    24  GLY24       0.2309
     35  O        353.7880  -80.3450  230.9480 O.2    24  GLY24      -0.2863
     36  N        352.8300  -80.8100  237.8410 N.3    48  ASN48      -0.1240
     37  CA       351.3710  -80.6890  237.8080 C.3    48  ASN48       0.1653
     38  C        350.6450  -82.0320  237.9280 C.2    48  ASN48       0.2266
     39  O        349.4890  -82.0780  238.3500 O.2    48  ASN48      -0.2867
     40  CB       350.9420  -80.0450  236.4950 C.3    48  ASN48       0.1155
     41  CG       351.6050  -78.6860  236.2470 C.2    48  ASN48       0.2627
     42  OD1      352.2110  -78.4710  235.1940 O.2    48  ASN48      -0.2716
     43  ND2      351.4780  -77.7630  237.1940 N.am   48  ASN48      -0.0877
     44  N        348.3010  -75.0340  244.3320 N.3    84  ARG84      -0.1245
     45  CA       348.2330  -75.5960  242.9860 C.3    84  ARG84       0.1563
     46  C        347.6670  -77.0240  243.0560 C.2    84  ARG84       0.2260
     47  O        348.2100  -77.8700  243.7790 O.2    84  ARG84      -0.2867
     48  CB       349.6270  -75.6430  242.3560 C.3    84  ARG84       0.0307
     49  CG       350.3680  -74.3160  242.3040 C.3    84  ARG84       0.0489
     50  CD       349.5630  -73.1970  241.6560 C.3    84  ARG84       0.2205
     51  NE       349.0170  -73.5800  240.3550 N.pl3  84  ARG84      -0.0865
     52  CZ       347.7360  -73.5230  239.9830 C.cat  84  ARG84       0.5346
     53  NH1      346.7680  -73.0730  240.7890 N.pl3  84  ARG84       0.1354
     54  NH2      347.4140  -73.9200  238.7560 N.pl3  84  ARG84       0.1354
     55  N        346.6420  -66.4550  229.6480 N.3   328  PRO328     -0.2116
     56  CA       346.3150  -67.6310  230.4370 C.3   328  PRO328      0.1372
     57  C        344.8150  -67.7650  230.6810 C.2   328  PRO328      0.2244
     58  O        344.1140  -66.7610  230.8010 O.2   328  PRO328     -0.2868
     59  CB       347.0770  -67.4070  231.7520 C.3   328  PRO328      0.0268
     60  CG       347.4190  -65.9690  231.7660 C.3   328  PRO328      0.0207
     61  CD       347.5530  -65.5470  230.3620 C.3   328  PRO328      0.0892
     62  N        345.0970  -79.5520  234.1070 N.3   343  HIS343     -0.1241
     63  CA       346.5160  -79.4570  233.7590 C.3   343  HIS343      0.1621
     64  C        346.8830  -80.1710  232.4590 C.2   343  HIS343      0.2264
     65  O        347.9460  -79.9020  231.9060 O.2   343  HIS343     -0.2867
     66  CB       347.4050  -80.0210  234.8740 C.3   343  HIS343      0.0745
     67  CG       347.4570  -79.1820  236.1080 C.ar  343  HIS343      0.0817
     68  ND1      347.8330  -77.8520  236.1090 N.ar  343  HIS343     -0.2268
     69  CD2      347.2410  -79.5140  237.4010 C.ar  343  HIS343      0.1154
     70  CE1      347.8250  -77.4020  237.3520 C.ar  343  HIS343      0.1986
     71  NE2      347.4670  -78.3890  238.1530 N.ar  343  HIS343     -0.2212
     72  N        345.5720  -79.5650  229.6760 N.3   345  TYR345     -0.1241
     73  CA       345.4150  -78.5970  228.5790 C.3   345  TYR345      0.1605
     74  C        346.4310  -77.4840  228.6830 C.2   345  TYR345      0.2264
     75  O        346.5920  -76.8670  229.7340 O.2   345  TYR345     -0.2867
     76  CB       344.0120  -77.9880  228.5860 C.3   345  TYR345      0.0534
     77  CG       342.9490  -79.0070  228.3220 C.ar  345  TYR345     -0.0201
     78  CD1      342.5290  -79.8660  229.3230 C.ar  345  TYR345     -0.0009
     79  CD2      342.3790  -79.1250  227.0680 C.ar  345  TYR345     -0.0009
     80  CE1      341.5720  -80.8350  229.0800 C.ar  345  TYR345      0.0417
     81  CE2      341.4120  -80.0900  226.8080 C.ar  345  TYR345      0.0417
     82  CZ       341.0190  -80.9440  227.8220 C.ar  345  TYR345      0.1957
     83  OH       340.0780  -81.9140  227.6060 O.3   345  TYR345     -0.2866
     84  N        347.8970  -73.9780  228.6420 N.3   347  GLY347     -0.1210
     85  CA       347.3890  -72.6470  228.9100 C.3   347  GLY347      0.1956
     86  C        346.2240  -72.5230  229.8810 C.2   347  GLY347      0.2612
     87  O        345.7180  -71.4270  230.0720 O.2   347  GLY347     -0.2717
     88  N        345.7890  -73.6220  230.4970 N.am  348  ILE348     -0.1965
     89  CA       344.7850  -73.5630  231.5540 C.3   348  ILE348      0.1727
     90  C        345.5020  -73.5790  232.8920 C.2   348  ILE348      0.2616
     91  O        346.2760  -74.5010  233.1790 O.2   348  ILE348     -0.2715
     92  CB       343.7640  -74.7190  231.5000 C.3   348  ILE348      0.0290
     93  CG1      343.0680  -74.7240  230.1350 C.3   348  ILE348      0.0022
     94  CG2      342.7540  -74.5780  232.6420 C.3   348  ILE348      0.0023
     95  CD1      341.8810  -75.6700  230.0360 C.3   348  ILE348      0.0001
     96  N        345.2390  -72.5440  233.6890 N.am  349  PHE349     -0.1960
     97  CA       345.7380  -72.4120  235.0400 C.3   349  PHE349      0.1756
     98  C        344.5460  -72.6300  235.9760 C.2   349  PHE349      0.2461
     99  O        343.7990  -71.6870  236.2560 O.2   349  PHE349     -0.2730
    100  CB       346.3530  -71.0230  235.2290 C.3   349  PHE349      0.0574
    101  CG       347.0680  -70.8400  236.5390 C.ar  349  PHE349     -0.0200
    102  CD1      348.3960  -71.2290  236.6830 C.ar  349  PHE349     -0.0042
    103  CD2      346.4260  -70.2570  237.6200 C.ar  349  PHE349     -0.0042
    104  CE1      349.0700  -71.0520  237.8910 C.ar  349  PHE349     -0.0003
    105  CE2      347.0900  -70.0830  238.8340 C.ar  349  PHE349     -0.0003
    106  CZ       348.4180  -70.4770  238.9660 C.ar  349  PHE349     -0.0000
    107  N        344.3390  -73.8820  236.4470 N.am  350  PRO350     -0.2727
    108  CA       343.1920  -74.1450  237.3080 C.3   350  PRO350      0.1402
    109  C        343.3610  -73.5730  238.7190 C.2   350  PRO350      0.2269
    110  O        344.4760  -73.5790  239.2630 O.2   350  PRO350     -0.2865
    111  CB       343.1510  -75.6680  237.3740 C.3   350  PRO350      0.0296
    112  CG       344.5710  -76.0790  237.2040 C.3   350  PRO350      0.0237
    113  CD       345.1590  -75.0900  236.2480 C.3   350  PRO350      0.0939
    114  N        350.1800  -62.4380  236.2250 N.3   380  PHE380     -0.1241
    115  CA       349.5270  -62.4540  234.8980 C.3   380  PHE380      0.1605
    116  C        349.0320  -61.0610  234.5180 C.2   380  PHE380      0.2264
    117  O        349.0160  -60.7030  233.3500 O.2   380  PHE380     -0.2867
    118  CB       348.3190  -63.4130  234.8510 C.3   380  PHE380      0.0534
    119  CG       348.6460  -64.8680  235.1090 C.ar  380  PHE380     -0.0203
    120  CD1      349.8660  -65.4350  234.7260 C.ar  380  PHE380     -0.0042
    121  CD2      347.6950  -65.6930  235.7010 C.ar  380  PHE380     -0.0042
    122  CE1      350.1310  -66.7750  234.9650 C.ar  380  PHE380     -0.0003
    123  CE2      347.9520  -67.0340  235.9320 C.ar  380  PHE380     -0.0003
    124  CZ       349.1710  -67.5790  235.5600 C.ar  380  PHE380     -0.0000
@<TRIPOS>BOND
     1    81    79   ar
     2    81    82   ar
     3    31    29    1
     4    79    77   ar
     5    83    82    1
     6    82    80   ar
     7    29    30    1
     8    29    26    1
     9    77    76    1
    10    77    78   ar
    11    21    22    1
    12    21    18    1
    13    73    76    1
    14    73    74    1
    15    73    72    1
    16    84    85    1
    17    23    22    2
    18    74    75    2
    19    22    24   am
    20    85    86    1
    21    80    78   ar
    22    26    25    1
    23    26    27    1
    24    25    19   am
    25    20    19    2
    26    19    18    1
    27    55    61    1
    28    55    56    1
    29    18    17    1
    30    86    87    2
    31    86    88   am
    32     4     3    2
    33    17     8   am
    34    95    93    1
    35    93    92    1
    36    61    60    1
    37    56    57    1
    38    56    59    1
    39    88    89    1
    40    27    32   am
    41    27    28    2
    42    32    33    1
    43    57    58    2
    44    35    34    2
    45     1     2    1
    46     3     6   am
    47     3     2    1
    48     8     7    1
    49     8     9    2
    50     7     6    1
    51     7    10    1
    52    92    89    1
    53    92    94    1
    54    11    10    1
    55    11    12    1
    56    89    90    1
    57    59    60    1
    58    33    34    1
    59    65    64    2
    60     2     5    1
    61    12    13    1
    62    64    63    1
    63    90    91    2
    64    90    96   am
    65   117   116    2
    66    13    14    2
    67    96    97    1
    68    63    62    1
    69    63    66    1
    70    15    14    1
    71   116   115    1
    72    14    16    1
    73   120   122   ar
    74   120   119   ar
    75   118   115    1
    76   118   119    1
    77    66    67    1
    78   115   114    1
    79   122   124   ar
    80    97   100    1
    81    97    98    1
    82   119   121   ar
    83    42    41    2
    84   100   101    1
    85   124   123   ar
    86   121   123   ar
    87    98    99    2
    88    98   107   am
    89    67    68   ar
    90    67    69   ar
    91    68    70   ar
    92    41    40    1
    93    41    43   am
    94   113   107    1
    95   113   112    1
    96   107   108    1
    97    40    37    1
    98   101   102   ar
    99   101   103   ar
   100   102   104   ar
   101   112   111    1
   102   108   111    1
   103   108   109    1
   104    70    71   ar
   105    69    71   ar
   106   103   105   ar
   107    37    36    1
   108    37    38    1
   109   104   106   ar
   110    38    39    2
   111   109   110    2
   112    54    52    1
   113   105   106   ar
   114    52    51    2
   115    52    53    1
   116    51    50    1
   117    50    49    1
   118    49    48    1
   119    48    45    1
   120    45    46    1
   121    45    44    1
   122    46    47    2
