@<TRIPOS>MOLECULE
tmp/6gg5B00.pdb
 135 132 0 0 0
SMALL
GASTEIGER

@<TRIPOS>ATOM
      1  N        313.2080  -56.6670  204.1800 N.3    20  ALA20      -0.1231
      2  CA       312.4230  -55.5470  204.7500 C.3    20  ALA20       0.1694
      3  C        313.2430  -54.2690  204.7800 C.2    20  ALA20       0.2592
      4  O        314.4730  -54.3060  204.8010 O.2    20  ALA20      -0.2718
      5  CB       311.9160  -55.8720  206.1460 C.3    20  ALA20       0.0304
      6  N        312.5420  -53.1440  204.7720 N.am   21  ARG21      -0.1966
      7  CA       313.1660  -51.8250  204.6990 C.3    21  ARG21       0.1729
      8  C        313.9210  -51.5360  205.9670 C.2    21  ARG21       0.2616
      9  O        313.4700  -51.9410  207.0370 O.2    21  ARG21      -0.2715
     10  CB       312.0880  -50.7670  204.4980 C.3    21  ARG21       0.0348
     11  CG       312.5920  -49.3540  204.2270 C.3    21  ARG21       0.0492
     12  CD       312.2790  -48.4230  205.3930 C.3    21  ARG21       0.2205
     13  NE       310.8560  -48.2690  205.6590 N.pl3  21  ARG21      -0.0865
     14  CZ       310.3410  -47.4960  206.6120 C.cat  21  ARG21       0.5346
     15  NH1      311.1120  -46.7720  207.4270 N.pl3  21  ARG21       0.1354
     16  NH2      309.0200  -47.4420  206.7480 N.pl3  21  ARG21       0.1354
     17  N        315.0680  -50.8520  205.8470 N.am   22  ASN22      -0.1958
     18  CA       315.9820  -50.7000  206.9890 C.3    22  ASN22       0.1819
     19  C        316.4920  -49.2810  207.2690 C.2    22  ASN22       0.2622
     20  O        317.3090  -49.1010  208.1760 O.2    22  ASN22      -0.2715
     21  CB       317.1620  -51.6570  206.7780 C.3    22  ASN22       0.1195
     22  CG       317.5270  -52.4320  208.0380 C.2    22  ASN22       0.2630
     23  OD1      318.7090  -52.6510  208.2990 O.2    22  ASN22      -0.2716
     24  ND2      316.5210  -52.8820  208.8040 N.am   22  ASN22      -0.0877
     25  N        315.9890  -48.2980  206.5180 N.am   23  THR23      -0.1937
     26  CA       316.3770  -46.8980  206.6520 C.3    23  THR23       0.2028
     27  C        315.1740  -46.0400  207.0310 C.2    23  THR23       0.2642
     28  O        314.0770  -46.2980  206.5880 O.2    23  THR23      -0.2714
     29  CB       316.9560  -46.3620  205.3270 C.3    23  THR23       0.1808
     30  OG1      316.2260  -46.8960  204.2230 O.3    23  THR23      -0.2208
     31  CG2      318.4020  -46.7590  205.1790 C.3    23  THR23       0.0379
     32  N        315.3730  -45.0180  207.8550 N.am   24  GLY24      -0.1954
     33  CA       314.2720  -44.1540  208.3020 C.3    24  GLY24       0.1869
     34  C        313.6600  -43.3710  207.1570 C.2    24  GLY24       0.2309
     35  O        314.3200  -43.1310  206.1460 O.2    24  GLY24      -0.2863
     36  N        308.3470  -42.1920  209.6960 N.3    48  ASN48      -0.1240
     37  CA       309.0030  -42.3760  210.9930 C.3    48  ASN48       0.1653
     38  C        309.2780  -41.0850  211.7470 C.2    48  ASN48       0.2266
     39  O        309.4690  -41.1250  212.9630 O.2    48  ASN48      -0.2867
     40  CB       310.3270  -43.0940  210.8090 C.3    48  ASN48       0.1155
     41  CG       310.1550  -44.5450  210.4080 C.2    48  ASN48       0.2627
     42  OD1      310.5200  -44.9520  209.2890 O.2    48  ASN48      -0.2716
     43  ND2      309.5900  -45.3360  211.3200 N.am   48  ASN48      -0.0877
     44  N        304.1660  -48.0320  216.6590 N.3    84  ARG84      -0.1245
     45  CA       305.4260  -47.5310  216.1300 C.3    84  ARG84       0.1563
     46  C        305.6160  -46.0800  216.5820 C.2    84  ARG84       0.2260
     47  O        304.7430  -45.2500  216.3670 O.2    84  ARG84      -0.2867
     48  CB       305.3770  -47.5520  214.6120 C.3    84  ARG84       0.0307
     49  CG       305.0350  -48.8990  214.0060 C.3    84  ARG84       0.0489
     50  CD       306.0200  -49.9830  214.4090 C.3    84  ARG84       0.2205
     51  NE       307.4190  -49.5820  214.2180 N.pl3  84  ARG84      -0.0865
     52  CZ       308.3860  -49.6560  215.1370 C.cat  84  ARG84       0.5346
     53  NH1      308.1790  -50.1490  216.3540 N.pl3  84  ARG84       0.1354
     54  NH2      309.6090  -49.2530  214.8210 N.pl3  84  ARG84       0.1354
     55  N        318.0050  -56.9190  212.2290 N.3   427  PRO427     -0.2116
     56  CA       317.3620  -55.7490  212.8070 C.3   427  PRO427      0.1372
     57  C        317.8340  -55.5420  214.2470 C.2   427  PRO427      0.2244
     58  O        318.0580  -56.5180  214.9490 O.2   427  PRO427     -0.2868
     59  CB       315.8660  -56.0980  212.7350 C.3   427  PRO427      0.0268
     60  CG       315.7940  -57.5780  212.5310 C.3   427  PRO427      0.0207
     61  CD       317.0290  -57.9340  211.7840 C.3   427  PRO427      0.0892
     62  N        314.8080  -43.5550  215.3810 N.3   442  HIS442     -0.1241
     63  CA       314.6080  -43.6900  213.9330 C.3   442  HIS442      0.1621
     64  C        315.7150  -43.0870  213.0640 C.2   442  HIS442      0.2264
     65  O        315.9150  -43.5410  211.9260 O.2   442  HIS442     -0.2867
     66  CB       313.2640  -43.1360  213.4980 C.3   442  HIS442      0.0745
     67  CG       312.1000  -43.9560  213.9460 C.ar  442  HIS442      0.0817
     68  ND1      311.9240  -45.2850  213.6190 N.ar  442  HIS442     -0.2268
     69  CD2      311.0340  -43.6080  214.6950 C.ar  442  HIS442      0.1154
     70  CE1      310.8050  -45.7250  214.1590 C.ar  442  HIS442      0.1986
     71  NE2      310.2450  -44.7240  214.8160 N.ar  442  HIS442     -0.2212
     72  N        318.7450  -43.5850  213.2660 N.3   444  TYR444     -0.1241
     73  CA       319.7580  -44.6010  213.0140 C.3   444  TYR444      0.1605
     74  C        319.2610  -45.7040  212.0700 C.2   444  TYR444      0.2264
     75  O        318.0930  -46.0820  212.0560 O.2   444  TYR444     -0.2867
     76  CB       320.2490  -45.1780  214.3590 C.3   444  TYR444      0.0534
     77  CG       320.9850  -44.1370  215.1900 C.ar  444  TYR444     -0.0201
     78  CD1      320.3020  -43.1790  215.9430 C.ar  444  TYR444     -0.0009
     79  CD2      322.3620  -44.0960  215.1940 C.ar  444  TYR444     -0.0009
     80  CE1      320.9860  -42.2180  216.6740 C.ar  444  TYR444      0.0417
     81  CE2      323.0500  -43.1290  215.9150 C.ar  444  TYR444      0.0417
     82  CZ       322.3680  -42.1990  216.6550 C.ar  444  TYR444      0.1957
     83  OH       323.1110  -41.2750  217.3640 O.3   444  TYR444     -0.2866
     84  N        318.6600  -49.2920  210.6470 N.3   446  GLY446     -0.1210
     85  CA       318.5090  -50.6400  211.1700 C.3   446  GLY446      0.1956
     86  C        318.1360  -50.7710  212.6470 C.2   446  GLY446      0.2612
     87  O        318.0490  -51.8920  213.1390 O.2   446  GLY446     -0.2717
     88  N        317.9190  -49.6550  213.3570 N.am  447  ILE447     -0.1965
     89  CA       317.2700  -49.7200  214.6640 C.3   447  ILE447      0.1727
     90  C        315.7570  -49.7600  214.4630 C.2   447  ILE447      0.2616
     91  O        315.2100  -48.9200  213.7850 O.2   447  ILE447     -0.2715
     92  CB       317.6170  -48.5220  215.5780 C.3   447  ILE447      0.0290
     93  CG1      319.1220  -48.4960  215.8260 C.3   447  ILE447      0.0022
     94  CG2      316.8450  -48.6220  216.9000 C.3   447  ILE447      0.0023
     95  CD1      319.5840  -47.5240  216.8910 C.3   447  ILE447      0.0001
     96  N        315.1020  -50.7390  215.0620 N.am  448  PHE448     -0.1960
     97  CA       313.6550  -50.8320  215.1020 C.3   448  PHE448      0.1756
     98  C        313.2910  -50.6080  216.5700 C.2   448  PHE448      0.2461
     99  O        313.4870  -51.5050  217.3800 O.2   448  PHE448     -0.2730
    100  CB       313.2370  -52.2240  214.6240 C.3   448  PHE448      0.0574
    101  CG       311.7590  -52.4220  214.5250 C.ar  448  PHE448     -0.0200
    102  CD1      311.0260  -52.8980  215.6040 C.ar  448  PHE448     -0.0042
    103  CD2      311.0900  -52.1510  213.3480 C.ar  448  PHE448     -0.0042
    104  CE1      309.6570  -53.0870  215.5040 C.ar  448  PHE448     -0.0003
    105  CE2      309.7120  -52.3340  213.2360 C.ar  448  PHE448     -0.0003
    106  CZ       309.0060  -52.8070  214.3180 C.ar  448  PHE448     -0.0000
    107  N        312.8310  -49.4060  216.9340 N.am  449  PRO449     -0.2727
    108  CA       312.5320  -49.1700  218.3380 C.3   449  PRO449      0.1402
    109  C        311.1630  -49.6970  218.7510 C.2   449  PRO449      0.2269
    110  O        310.2540  -49.7090  217.9250 O.2   449  PRO449     -0.2865
    111  CB       312.5670  -47.6480  218.4470 C.3   449  PRO449      0.0296
    112  CG       312.1710  -47.1770  217.1070 C.3   449  PRO449      0.0237
    113  CD       312.7700  -48.1630  216.1530 C.3   449  PRO449      0.0939
    114  N        306.3260  -59.2250  213.8160 N.3   477  ARG477     -0.1245
    115  CA       306.8500  -58.5550  212.6020 C.3   477  ARG477      0.1563
    116  C        307.4910  -59.4760  211.5550 C.2   477  ARG477      0.2260
    117  O        307.9500  -58.9960  210.5300 O.2   477  ARG477     -0.2867
    118  CB       307.8830  -57.4670  212.9680 C.3   477  ARG477      0.0307
    119  CG       307.3300  -56.2180  213.6510 C.3   477  ARG477      0.0489
    120  CD       306.5080  -55.4070  212.6560 C.3   477  ARG477      0.2205
    121  NE       305.7710  -54.3550  213.3480 N.pl3 477  ARG477     -0.0865
    122  CZ       304.6350  -53.8110  212.9260 C.cat 477  ARG477      0.5346
    123  NH1      304.0410  -54.1930  211.7960 N.pl3 477  ARG477      0.1354
    124  NH2      304.0520  -52.8670  213.6550 N.pl3 477  ARG477      0.1354
    125  N        310.3340  -61.0060  211.8980 N.3   479  PHE479     -0.1241
    126  CA       311.8080  -60.9430  212.0080 C.3   479  PHE479      0.1605
    127  C        312.4180  -62.3130  212.3260 C.2   479  PHE479      0.2264
    128  O        313.5580  -62.5930  211.9490 O.2   479  PHE479     -0.2867
    129  CB       312.2770  -59.9840  213.1260 C.3   479  PHE479      0.0534
    130  CG       311.8770  -58.5280  212.9680 C.ar  479  PHE479     -0.0203
    131  CD1      311.2380  -58.0300  211.8350 C.ar  479  PHE479     -0.0042
    132  CD2      312.1810  -57.6340  213.9930 C.ar  479  PHE479     -0.0042
    133  CE1      310.8910  -56.6890  211.7560 C.ar  479  PHE479     -0.0003
    134  CE2      311.8360  -56.2930  213.9060 C.ar  479  PHE479     -0.0003
    135  CZ       311.1910  -55.8270  212.7880 C.ar  479  PHE479     -0.0000
@<TRIPOS>BOND
     1     1     2    1
     2    30    29    1
     3    11    10    1
     4    11    12    1
     5    10     7    1
     6     7     6    1
     7     7     8    1
     8     2     3    1
     9     2     5    1
    10     6     3   am
    11     3     4    2
    12    31    29    1
    13    29    26    1
    14    12    13    1
    15    13    14    2
    16    17     8   am
    17    17    18    1
    18     8     9    2
    19    35    34    2
    20    25    26    1
    21    25    19   am
    22    28    27    2
    23    14    16    1
    24    14    15    1
    25    26    27    1
    26    21    18    1
    27    21    22    1
    28    18    19    1
    29    27    32   am
    30    34    33    1
    31    19    20    2
    32    32    33    1
    33    22    23    2
    34    22    24   am
    35    42    41    2
    36    36    37    1
    37    41    40    1
    38    41    43   am
    39   117   116    2
    40    84    85    1
    41    40    37    1
    42    37    38    1
    43    85    86    1
    44   116   115    1
    45    38    39    2
    46   133   131   ar
    47   133   135   ar
    48    61    55    1
    49    61    60    1
    50   123   122    1
    51   131   130   ar
    52   125   126    1
    53    65    64    2
    54   128   127    2
    55   126   127    1
    56   126   129    1
    57    75    74    2
    58    74    73    1
    59    55    56    1
    60    60    59    1
    61   115   118    1
    62   115   114    1
    63    86    87    2
    64    86    88   am
    65   120   121    1
    66   120   119    1
    67    59    56    1
    68   135   134   ar
    69    56    57    1
    70   122   121    2
    71   122   124    1
    72   130   129    1
    73   130   132   ar
    74   118   119    1
    75    73    72    1
    76    73    76    1
    77    64    63    1
    78   105   103   ar
    79   105   106   ar
    80   103   101   ar
    81    88    89    1
    82    66    63    1
    83    66    67    1
    84    68    67   ar
    85    68    70   ar
    86    91    90    2
    87   134   132   ar
    88    63    62    1
    89    67    69   ar
    90    49    50    1
    91    49    48    1
    92    70    71   ar
    93    51    50    1
    94    51    52    2
    95    57    58    2
    96   106   104   ar
    97    76    77    1
    98    90    89    1
    99    90    96   am
   100   101   100    1
   101   101   102   ar
   102    48    45    1
   103   100    97    1
   104    89    92    1
   105    69    71   ar
   106    54    52    1
   107    96    97    1
   108    97    98    1
   109    52    53    1
   110    77    79   ar
   111    77    78   ar
   112    79    81   ar
   113   104   102   ar
   114    92    93    1
   115    92    94    1
   116    93    95    1
   117    81    82   ar
   118    78    80   ar
   119    45    46    1
   120    45    44    1
   121   113   107    1
   122   113   112    1
   123    47    46    2
   124    98   107   am
   125    98    99    2
   126    82    80   ar
   127    82    83    1
   128   107   108    1
   129   112   111    1
   130   110   109    2
   131   108   111    1
   132   108   109    1
