@<TRIPOS>MOLECULE
tmp/6gg5D00.pdb
 135 132 0 0 0
SMALL
GASTEIGER

@<TRIPOS>ATOM
      1  N        354.2940  -66.8930  231.0370 N.3    20  ALA20      -0.1231
      2  CA       354.0460  -68.0100  231.9700 C.3    20  ALA20       0.1694
      3  C        353.6750  -69.2790  231.2180 C.2    20  ALA20       0.2592
      4  O        353.1880  -69.2380  230.1020 O.2    20  ALA20      -0.2718
      5  CB       352.9610  -67.6670  232.9820 C.3    20  ALA20       0.0304
      6  N        353.9250  -70.4040  231.8600 N.am   21  ARG21      -0.1966
      7  CA       353.7120  -71.7230  231.2610 C.3    21  ARG21       0.1729
      8  C        352.2310  -71.9750  231.0740 C.2    21  ARG21       0.2616
      9  O        351.4430  -71.5380  231.8960 O.2    21  ARG21      -0.2715
     10  CB       354.3020  -72.7800  232.1910 C.3    21  ARG21       0.0348
     11  CG       354.3120  -74.1970  231.6510 C.3    21  ARG21       0.0492
     12  CD       353.3510  -75.0910  232.4200 C.3    21  ARG21       0.2205
     13  NE       353.6720  -75.2350  233.8340 N.pl3  21  ARG21      -0.0865
     14  CZ       353.0040  -75.9920  234.6910 C.cat  21  ARG21       0.5346
     15  NH1      351.9550  -76.7150  234.3210 N.pl3  21  ARG21       0.1354
     16  NH2      353.3950  -76.0240  235.9500 N.pl3  21  ARG21       0.1354
     17  N        351.8620  -72.6750  230.0130 N.am   22  ASN22      -0.1958
     18  CA       350.4470  -72.8310  229.6330 C.3    22  ASN22       0.1819
     19  C        349.9710  -74.2520  229.3040 C.2    22  ASN22       0.2622
     20  O        348.8120  -74.4290  228.9160 O.2    22  ASN22      -0.2715
     21  CB       350.1700  -71.9010  228.4340 C.3    22  ASN22       0.1195
     22  CG       348.8890  -71.1050  228.5800 C.2    22  ASN22       0.2630
     23  OD1      348.1910  -70.9000  227.5950 O.2    22  ASN22      -0.2716
     24  ND2      348.5930  -70.6210  229.7980 N.am   22  ASN22      -0.0877
     25  N        350.8480  -75.2390  229.4780 N.am   23  THR23      -0.1937
     26  CA       350.5560  -76.6420  229.1880 C.3    23  THR23       0.2028
     27  C        350.6790  -77.4890  230.4590 C.2    23  THR23       0.2642
     28  O        351.5320  -77.2280  231.2800 O.2    23  THR23      -0.2714
     29  CB       351.5370  -77.2000  228.1420 C.3    23  THR23       0.1808
     30  OG1      352.8500  -76.6750  228.3770 O.3    23  THR23      -0.2208
     31  CG2      351.0940  -76.8230  226.7520 C.3    23  THR23       0.0379
     32  N        349.8380  -78.5040  230.6190 N.am   24  GLY24      -0.1954
     33  CA       349.8740  -79.3550  231.8090 C.3    24  GLY24       0.1869
     34  C        351.1660  -80.1440  231.9250 C.2    24  GLY24       0.2309
     35  O        351.8350  -80.3990  230.9160 O.2    24  GLY24      -0.2863
     36  N        350.9610  -81.2180  237.8420 N.3    48  ASN48      -0.1240
     37  CA       349.5110  -81.0250  237.7650 C.3    48  ASN48       0.1653
     38  C        348.7000  -82.3070  237.8540 C.2    48  ASN48       0.2266
     39  O        347.5160  -82.2540  238.1550 O.2    48  ASN48      -0.2867
     40  CB       349.1500  -80.3350  236.4570 C.3    48  ASN48       0.1155
     41  CG       349.5940  -78.8930  236.4190 C.2    48  ASN48       0.2627
     42  OD1      350.4660  -78.5070  235.6280 O.2    48  ASN48      -0.2716
     43  ND2      348.9890  -78.0780  237.2870 N.am   48  ASN48      -0.0877
     44  N        346.3030  -75.2340  244.3010 N.3    84  ARG84      -0.1245
     45  CA       346.2660  -75.7630  242.9470 C.3    84  ARG84       0.1563
     46  C        345.7590  -77.2070  242.9970 C.2    84  ARG84       0.2260
     47  O        346.3070  -78.0250  243.7300 O.2    84  ARG84      -0.2867
     48  CB       347.6740  -75.7730  242.3720 C.3    84  ARG84       0.0307
     49  CG       348.3840  -74.4330  242.4100 C.3    84  ARG84       0.0489
     50  CD       347.6280  -73.3570  241.6610 C.3    84  ARG84       0.2205
     51  NE       347.2370  -73.7820  240.3110 N.pl3  84  ARG84      -0.0865
     52  CZ       346.0070  -73.7070  239.7930 C.cat  84  ARG84       0.5346
     53  NH1      344.9790  -73.1840  240.4700 N.pl3  84  ARG84       0.1354
     54  NH2      345.8070  -74.1330  238.5560 N.pl3  84  ARG84       0.1354
     55  N        344.8480  -66.5960  229.7090 N.3   328  PRO328     -0.2116
     56  CA       344.5630  -67.7400  230.5470 C.3   328  PRO328      0.1372
     57  C        343.0510  -67.9310  230.6920 C.2   328  PRO328      0.2244
     58  O        342.3300  -66.9570  230.7460 O.2   328  PRO328     -0.2868
     59  CB       345.2400  -67.3820  231.8680 C.3   328  PRO328      0.0268
     60  CG       345.4640  -65.9060  231.8190 C.3   328  PRO328      0.0207
     61  CD       345.6750  -65.5960  230.4100 C.3   328  PRO328      0.0892
     62  N        343.1630  -79.8660  234.1540 N.3   343  HIS343     -0.1241
     63  CA       344.5740  -79.7330  233.7490 C.3   343  HIS343      0.1621
     64  C        344.9290  -80.3480  232.3960 C.2   343  HIS343      0.2264
     65  O        345.8900  -79.9080  231.7530 O.2   343  HIS343     -0.2867
     66  CB       345.5160  -80.2910  234.8190 C.3   343  HIS343      0.0745
     67  CG       345.5730  -79.4620  236.0580 C.ar  343  HIS343      0.0817
     68  ND1      345.9530  -78.1370  236.0670 N.ar  343  HIS343     -0.2268
     69  CD2      345.3050  -79.7840  237.3380 C.ar  343  HIS343      0.1154
     70  CE1      345.9020  -77.6770  237.3030 C.ar  343  HIS343      0.1986
     71  NE2      345.5200  -78.6600  238.0950 N.ar  343  HIS343     -0.2212
     72  N        343.5230  -79.9020  229.6920 N.3   345  TYR345     -0.1241
     73  CA       343.3560  -78.8910  228.6520 C.3   345  TYR345      0.1605
     74  C        344.4190  -77.7840  228.7190 C.2   345  TYR345      0.2264
     75  O        344.8950  -77.3970  229.7750 O.2   345  TYR345     -0.2867
     76  CB       341.9410  -78.3260  228.7190 C.3   345  TYR345      0.0534
     77  CG       340.8880  -79.3650  228.3740 C.ar  345  TYR345     -0.0201
     78  CD1      340.4650  -80.3160  229.3090 C.ar  345  TYR345     -0.0009
     79  CD2      340.3240  -79.3960  227.1120 C.ar  345  TYR345     -0.0009
     80  CE1      339.5100  -81.2650  228.9810 C.ar  345  TYR345      0.0417
     81  CE2      339.3820  -80.3440  226.7710 C.ar  345  TYR345      0.0417
     82  CZ       338.9670  -81.2800  227.6950 C.ar  345  TYR345      0.1957
     83  OH       338.0110  -82.2070  227.3100 O.3   345  TYR345     -0.2866
     84  N        346.0180  -74.2170  228.6440 N.3   347  GLY347     -0.1210
     85  CA       345.6140  -72.8610  228.9660 C.3   347  GLY347      0.1956
     86  C        344.4050  -72.7040  229.8770 C.2   347  GLY347      0.2612
     87  O        343.9840  -71.5910  230.1290 O.2   347  GLY347     -0.2717
     88  N        343.8220  -73.8010  230.3680 N.am  348  ILE348     -0.1965
     89  CA       342.8800  -73.7420  231.4770 C.3   348  ILE348      0.1727
     90  C        343.6660  -73.7030  232.7730 C.2   348  ILE348      0.2616
     91  O        344.5040  -74.5490  233.0130 O.2   348  ILE348     -0.2715
     92  CB       341.9030  -74.9400  231.5220 C.3   348  ILE348      0.0290
     93  CG1      341.0730  -74.9550  230.2330 C.3   348  ILE348      0.0022
     94  CG2      341.0040  -74.8390  232.7650 C.3   348  ILE348      0.0023
     95  CD1      339.9080  -75.9260  230.2560 C.3   348  ILE348      0.0001
     96  N        343.3750  -72.7100  233.6030 N.am  349  PHE349     -0.1960
     97  CA       343.9240  -72.5980  234.9410 C.3   349  PHE349      0.1756
     98  C        342.7320  -72.8020  235.8590 C.2   349  PHE349      0.2461
     99  O        341.9180  -71.8990  235.9900 O.2   349  PHE349     -0.2730
    100  CB       344.5340  -71.2060  235.1070 C.3   349  PHE349      0.0574
    101  CG       345.2340  -70.9980  236.4140 C.ar  349  PHE349     -0.0200
    102  CD1      344.5540  -70.4980  237.5030 C.ar  349  PHE349     -0.0042
    103  CD2      346.5960  -71.2850  236.5490 C.ar  349  PHE349     -0.0042
    104  CE1      345.2050  -70.2900  238.7080 C.ar  349  PHE349     -0.0003
    105  CE2      347.2510  -71.0860  237.7540 C.ar  349  PHE349     -0.0003
    106  CZ       346.5550  -70.5730  238.8350 C.ar  349  PHE349     -0.0000
    107  N        342.5780  -73.9970  236.4470 N.am  350  PRO350     -0.2727
    108  CA       341.4050  -74.2110  237.2870 C.3   350  PRO350      0.1402
    109  C        341.5890  -73.6590  238.6960 C.2   350  PRO350      0.2269
    110  O        342.7120  -73.6450  239.1970 O.2   350  PRO350     -0.2865
    111  CB       341.2840  -75.7290  237.3330 C.3   350  PRO350      0.0296
    112  CG       342.6670  -76.2140  237.1550 C.3   350  PRO350      0.0237
    113  CD       343.3080  -75.2510  236.2100 C.3   350  PRO350      0.0939
    114  N        348.1840  -64.0930  240.9030 N.3   378  ARG378     -0.1245
    115  CA       349.0790  -64.7940  239.9500 C.3   378  ARG378      0.1563
    116  C        349.7730  -63.8950  238.9170 C.2   378  ARG378      0.2260
    117  O        350.5210  -64.3970  238.0880 O.2   378  ARG378     -0.2867
    118  CB       348.3230  -65.8980  239.1870 C.3   378  ARG378      0.0307
    119  CG       347.9040  -67.1290  240.0000 C.3   378  ARG378      0.0489
    120  CD       349.1300  -67.9470  240.3770 C.3   378  ARG378      0.2205
    121  NE       348.7680  -68.9680  241.3560 N.pl3 378  ARG378     -0.0865
    122  CZ       349.6070  -69.5220  242.2290 C.cat 378  ARG378      0.5346
    123  NH1      350.9050  -69.1900  242.2800 N.pl3 378  ARG378      0.1354
    124  NH2      349.1500  -70.4500  243.0760 N.pl3 378  ARG378      0.1354
    125  N        348.3010  -62.4240  236.4230 N.3   380  PHE380     -0.1241
    126  CA       347.5860  -62.5220  235.1240 C.3   380  PHE380      0.1605
    127  C        347.0580  -61.1650  234.6560 C.2   380  PHE380      0.2264
    128  O        346.9420  -60.9170  233.4570 O.2   380  PHE380     -0.2867
    129  CB       346.3710  -63.4720  235.1790 C.3   380  PHE380      0.0534
    130  CG       346.6750  -64.9240  235.5350 C.ar  380  PHE380     -0.0203
    131  CD1      347.9650  -65.4230  235.6560 C.ar  380  PHE380     -0.0042
    132  CD2      345.6120  -65.8100  235.7050 C.ar  380  PHE380     -0.0042
    133  CE1      348.1750  -66.7570  235.9690 C.ar  380  PHE380     -0.0003
    134  CE2      345.8210  -67.1420  236.0070 C.ar  380  PHE380     -0.0003
    135  CZ       347.0980  -67.6190  236.1480 C.ar  380  PHE380     -0.0000
@<TRIPOS>BOND
     1    31    29    1
     2    81    79   ar
     3    81    82   ar
     4    79    77   ar
     5    83    82    1
     6    23    22    2
     7    82    80   ar
     8    29    30    1
     9    29    26    1
    10    77    76    1
    11    77    78   ar
    12    21    22    1
    13    21    18    1
    14    22    24   am
    15    84    85    1
    16    73    74    1
    17    73    76    1
    18    73    72    1
    19    74    75    2
    20    20    19    2
    21    85    86    1
    22    80    78   ar
    23    26    25    1
    24    26    27    1
    25    19    25   am
    26    19    18    1
    27    18    17    1
    28    55    61    1
    29    55    56    1
    30    86    87    2
    31    86    88   am
    32    17     8   am
    33     4     3    2
    34    93    95    1
    35    93    92    1
    36    88    89    1
    37    61    60    1
    38    27    32   am
    39    27    28    2
    40    56    57    1
    41    56    59    1
    42    32    33    1
    43    57    58    2
    44    35    34    2
    45     1     2    1
    46     8     7    1
    47     8     9    2
    48     3     6   am
    49     3     2    1
    50     7     6    1
    51     7    10    1
    52    89    92    1
    53    89    90    1
    54    92    94    1
    55    11    10    1
    56    11    12    1
    57    65    64    2
    58    33    34    1
    59    60    59    1
    60     2     5    1
    61    64    63    1
    62    12    13    1
    63    90    91    2
    64    90    96   am
    65   128   127    2
    66    96    97    1
    67    63    62    1
    68    63    66    1
    69    13    14    2
    70    15    14    1
    71   127   126    1
    72    14    16    1
    73    66    67    1
    74    97   100    1
    75    97    98    1
    76   100   101    1
    77   126   129    1
    78   126   125    1
    79   129   130    1
    80   130   131   ar
    81   130   132   ar
    82    42    41    2
    83   131   133   ar
    84   132   134   ar
    85    98    99    2
    86    98   107   am
    87   133   135   ar
    88   134   135   ar
    89    67    68   ar
    90    67    69   ar
    91    68    70   ar
    92   113   107    1
    93   113   112    1
    94   101   103   ar
    95   101   102   ar
    96    41    40    1
    97    41    43   am
    98   107   108    1
    99    40    37    1
   100   103   105   ar
   101   112   111    1
   102   108   111    1
   103   108   109    1
   104    70    71   ar
   105    69    71   ar
   106   102   104   ar
   107   105   106   ar
   108    37    36    1
   109    37    38    1
   110    38    39    2
   111   117   116    2
   112    54    52    1
   113   109   110    2
   114   104   106   ar
   115   116   115    1
   116   118   115    1
   117   118   119    1
   118    52    51    2
   119    52    53    1
   120   115   114    1
   121   119   120    1
   122    51    50    1
   123   120   121    1
   124   121   122    2
   125    50    49    1
   126   122   123    1
   127   122   124    1
   128    48    49    1
   129    48    45    1
   130    45    46    1
   131    45    44    1
   132    46    47    2
