@<TRIPOS>MOLECULE
tmp/6gg6B00.pdb
 106 103 0 0 0
SMALL
GASTEIGER

@<TRIPOS>ATOM
      1  N        -74.7990  -61.4840  -52.4440 N.3    21  ALA21      -0.1231
      2  CA       -75.4670  -61.4380  -51.1320 C.3    21  ALA21       0.1694
      3  C        -76.8270  -60.7420  -51.1780 C.2    21  ALA21       0.2592
      4  O        -77.0570  -59.8630  -52.0020 O.2    21  ALA21      -0.2718
      5  CB       -74.5710  -60.7570  -50.1100 C.3    21  ALA21       0.0304
      6  N        -77.7130  -61.1510  -50.2740 N.am   22  ARG22      -0.1966
      7  CA       -79.0610  -60.6000  -50.1640 C.3    22  ARG22       0.1729
      8  C        -79.3090  -60.2160  -48.7110 C.2    22  ARG22       0.2616
      9  O        -79.4590  -61.0830  -47.8630 O.2    22  ARG22      -0.2715
     10  CB       -80.0820  -61.6360  -50.6380 C.3    22  ARG22       0.0348
     11  CG       -81.5320  -61.1670  -50.6060 C.3    22  ARG22       0.0492
     12  CD       -82.2850  -61.6480  -49.3820 C.3    22  ARG22       0.2205
     13  NE       -82.4590  -63.0970  -49.4080 N.pl3  22  ARG22      -0.0865
     14  CZ       -82.7060  -63.8650  -48.3480 C.cat  22  ARG22       0.5346
     15  NH1      -82.8550  -63.3550  -47.1240 N.pl3  22  ARG22       0.1354
     16  NH2      -82.8290  -65.1760  -48.5270 N.pl3  22  ARG22       0.1354
     17  N        -79.3550  -58.9170  -48.4380 N.am   23  ASN23      -0.1972
     18  CA       -79.4100  -58.4000  -47.0610 C.3    23  ASN23       0.1688
     19  C        -80.7600  -58.5070  -46.3440 C.2    23  ASN23       0.2292
     20  O        -80.7920  -58.6760  -45.1270 O.2    23  ASN23      -0.2864
     21  CB       -78.9520  -56.9370  -47.0440 C.3    23  ASN23       0.1181
     22  CG       -77.5080  -56.7800  -47.4670 C.2    23  ASN23       0.2629
     23  OD1      -76.6250  -57.4600  -46.9550 O.2    23  ASN23      -0.2716
     24  ND2      -77.2600  -55.8800  -48.4050 N.am   23  ASN23      -0.0877
     25  N        -84.0490  -59.8320  -44.7340 N.3    25  GLY25      -0.1225
     26  CA       -84.5180  -61.1100  -44.1920 C.3    25  GLY25       0.1811
     27  C        -85.8340  -61.5460  -44.8130 C.2    25  GLY25       0.2280
     28  O        -86.6570  -60.7020  -45.1620 O.2    25  GLY25      -0.2866
     29  N        -85.4580  -67.6090  -43.8920 N.3    49  ASN49      -0.1240
     30  CA       -84.6720  -67.2730  -42.7050 C.3    49  ASN49       0.1653
     31  C        -85.4480  -67.4300  -41.3970 C.2    49  ASN49       0.2266
     32  O        -84.8450  -67.7200  -40.3670 O.2    49  ASN49      -0.2867
     33  CB       -84.1780  -65.8340  -42.8390 C.3    49  ASN49       0.1155
     34  CG       -83.2240  -65.6530  -43.9950 C.2    49  ASN49       0.2627
     35  OD1      -83.4890  -64.8840  -44.9140 O.2    49  ASN49      -0.2716
     36  ND2      -82.1100  -66.3670  -43.9610 N.am   49  ASN49      -0.0877
     37  N        -77.2060  -72.7210  -42.7210 N.3    85  ARG85      -0.1245
     38  CA       -77.9680  -71.4960  -42.4930 C.3    85  ARG85       0.1563
     39  C        -78.8900  -71.7020  -41.2940 C.2    85  ARG85       0.2260
     40  O        -79.7650  -72.5650  -41.3400 O.2    85  ARG85      -0.2867
     41  CB       -78.8170  -71.1540  -43.7220 C.3    85  ARG85       0.0307
     42  CG       -78.0420  -71.0000  -45.0280 C.3    85  ARG85       0.0489
     43  CD       -76.9130  -69.9800  -44.9490 C.3    85  ARG85       0.2205
     44  NE       -77.3320  -68.7080  -44.3420 N.pl3  85  ARG85      -0.0865
     45  CZ       -76.7410  -68.0810  -43.3160 C.cat  85  ARG85       0.5346
     46  NH1      -75.6420  -68.5630  -42.7250 N.pl3  85  ARG85       0.1354
     47  NH2      -77.2490  -66.9280  -42.8840 N.pl3  85  ARG85       0.1354
     48  N        -72.6340  -57.1350  -46.6720 N.3   428  PRO428     -0.2116
     49  CA       -73.2830  -57.9950  -45.6890 C.3   428  PRO428      0.1372
     50  C        -72.4780  -58.1140  -44.4070 C.2   428  PRO428      0.2244
     51  O        -71.2520  -58.0470  -44.4380 O.2   428  PRO428     -0.2868
     52  CB       -73.3450  -59.3490  -46.4010 C.3   428  PRO428      0.0268
     53  CG       -72.1900  -59.3250  -47.3300 C.3   428  PRO428      0.0207
     54  CD       -72.1330  -57.9120  -47.8170 C.3   428  PRO428      0.0892
     55  N        -81.5310  -62.8520  -37.9020 N.3   443  HIS443     -0.1241
     56  CA       -82.2500  -62.6980  -39.1780 C.3   443  HIS443      0.1621
     57  C        -83.1960  -61.4920  -39.2110 C.2   443  HIS443      0.2264
     58  O        -83.4570  -60.9370  -40.2880 O.2   443  HIS443     -0.2867
     59  CB       -83.0300  -63.9660  -39.5250 C.3   443  HIS443      0.0745
     60  CG       -82.1620  -65.1170  -39.9250 C.ar  443  HIS443      0.0817
     61  ND1      -81.2530  -65.0430  -40.9580 N.ar  443  HIS443     -0.2268
     62  CD2      -82.0820  -66.3810  -39.4430 C.ar  443  HIS443      0.1154
     63  CE1      -80.6430  -66.2080  -41.0870 C.ar  443  HIS443      0.1986
     64  NE2      -81.1290  -67.0370  -40.1820 N.ar  443  HIS443     -0.2212
     65  N        -82.5320  -58.5370  -38.3890 N.3   445  TYR445     -0.1241
     66  CA       -81.8000  -57.3240  -38.7590 C.3   445  TYR445      0.1605
     67  C        -81.3060  -57.3710  -40.2030 C.2   445  TYR445      0.2264
     68  O        -80.7660  -58.3820  -40.6560 O.2   445  TYR445     -0.2867
     69  CB       -80.6290  -57.1160  -37.7990 C.3   445  TYR445      0.0534
     70  CG       -81.0680  -56.8190  -36.3780 C.ar  445  TYR445     -0.0201
     71  CD1      -81.5040  -57.8390  -35.5370 C.ar  445  TYR445     -0.0009
     72  CD2      -81.0520  -55.5160  -35.8760 C.ar  445  TYR445     -0.0009
     73  CE1      -81.9160  -57.5810  -34.2400 C.ar  445  TYR445      0.0417
     74  CE2      -81.4540  -55.2380  -34.5750 C.ar  445  TYR445      0.0417
     75  CZ       -81.8910  -56.2820  -33.7610 C.ar  445  TYR445      0.1957
     76  OH       -82.2940  -56.0290  -32.4700 O.3   445  TYR445     -0.2866
     77  N        -79.2510  -57.2690  -43.3450 N.3   447  GLY447     -0.1210
     78  CA       -77.8640  -57.4650  -43.7480 C.3   447  GLY447      0.1956
     79  C        -77.0180  -58.3470  -42.8640 C.2   447  GLY447      0.2612
     80  O        -75.8940  -58.6780  -43.2510 O.2   447  GLY447     -0.2717
     81  N        -77.5200  -58.7300  -41.6860 N.am  448  ILE448     -0.1965
     82  CA       -76.8030  -59.6740  -40.8260 C.3   448  ILE448      0.1727
     83  C        -76.9920  -61.0750  -41.3900 C.2   448  ILE448      0.2616
     84  O        -78.1150  -61.5720  -41.4500 O.2   448  ILE448     -0.2715
     85  CB       -77.2550  -59.6470  -39.3550 C.3   448  ILE448      0.0290
     86  CG1      -77.0730  -58.2400  -38.7700 C.3   448  ILE448      0.0022
     87  CG2      -76.4570  -60.6760  -38.5530 C.3   448  ILE448      0.0023
     88  CD1      -77.4120  -58.1150  -37.2920 C.3   448  ILE448      0.0001
     89  N        -75.8790  -61.6840  -41.7960 N.am  449  PHE449     -0.1960
     90  CA       -75.8210  -63.0450  -42.3120 C.3   449  PHE449      0.1756
     91  C        -75.1570  -63.9050  -41.2230 C.2   449  PHE449      0.2461
     92  O        -73.9320  -64.0110  -41.1890 O.2   449  PHE449     -0.2730
     93  CB       -75.0050  -63.0420  -43.6120 C.3   449  PHE449      0.0574
     94  CG       -75.0310  -64.3420  -44.3670 C.ar  449  PHE449     -0.0200
     95  CD1      -76.0470  -64.6130  -45.2790 C.ar  449  PHE449     -0.0042
     96  CD2      -74.0200  -65.2840  -44.1960 C.ar  449  PHE449     -0.0042
     97  CE1      -76.0700  -65.8060  -45.9900 C.ar  449  PHE449     -0.0003
     98  CE2      -74.0360  -66.4820  -44.9030 C.ar  449  PHE449     -0.0003
     99  CZ       -75.0600  -66.7430  -45.8060 C.ar  449  PHE449     -0.0000
    100  N        -75.9570  -64.4910  -40.2990 N.am  450  PRO450     -0.2727
    101  CA       -75.3720  -65.2140  -39.1680 C.3   450  PRO450      0.1402
    102  C        -74.7200  -66.5320  -39.5710 C.2   450  PRO450      0.2269
    103  O        -75.1910  -67.2000  -40.4930 O.2   450  PRO450     -0.2865
    104  CB       -76.5780  -65.4760  -38.2630 C.3   450  PRO450      0.0296
    105  CG       -77.7160  -65.5640  -39.2090 C.3   450  PRO450      0.0237
    106  CD       -77.4290  -64.5190  -40.2370 C.3   450  PRO450      0.0939
@<TRIPOS>BOND
     1     1     2    1
     2     4     3    2
     3     3     2    1
     4     3     6   am
     5     2     5    1
     6    10    11    1
     7    10     7    1
     8    11    12    1
     9     6     7    1
    10     7     8    1
    11    13    12    1
    12    13    14    2
    13     8    17   am
    14     8     9    2
    15    16    14    1
    16    17    18    1
    17    24    22   am
    18    14    15    1
    19    54    53    1
    20    54    48    1
    21    22    21    1
    22    22    23    2
    23    53    52    1
    24    18    21    1
    25    18    19    1
    26    48    49    1
    27    52    49    1
    28    19    20    2
    29    97    99   ar
    30    97    95   ar
    31    99    98   ar
    32    49    50    1
    33    95    94   ar
    34    28    27    2
    35    42    43    1
    36    42    41    1
    37    43    44    1
    38    35    34    2
    39    98    96   ar
    40    27    26    1
    41    25    26    1
    42    51    50    2
    43    94    96   ar
    44    94    93    1
    45    44    45    2
    46    34    36   am
    47    34    33    1
    48    29    30    1
    49    78    77    1
    50    78    79    1
    51    41    38    1
    52    93    90    1
    53    45    47    1
    54    45    46    1
    55    80    79    2
    56    79    81   am
    57    33    30    1
    58    37    38    1
    59    30    31    1
    60    38    39    1
    61    90    89    1
    62    90    91    1
    63    89    83   am
    64    81    82    1
    65    84    83    2
    66    31    32    2
    67    83    82    1
    68    40    39    2
    69    91    92    2
    70    91   100   am
    71    63    61   ar
    72    63    64   ar
    73    61    60   ar
    74    82    85    1
    75    68    67    2
    76   103   102    2
    77   100   106    1
    78   100   101    1
    79    58    57    2
    80   106   105    1
    81    67    66    1
    82    64    62   ar
    83    60    59    1
    84    60    62   ar
    85   102   101    1
    86    59    56    1
    87    85    86    1
    88    85    87    1
    89    57    56    1
    90   105   104    1
    91    56    55    1
    92   101   104    1
    93    86    88    1
    94    66    65    1
    95    66    69    1
    96    69    70    1
    97    70    72   ar
    98    70    71   ar
    99    72    74   ar
   100    71    73   ar
   101    74    75   ar
   102    73    75   ar
   103    75    76    1
