@<TRIPOS>MOLECULE
tmp/6gg8A02.pdb
 198 185 0 0 0
SMALL
GASTEIGER

@<TRIPOS>ATOM
      1  N        -14.3570   23.5070  -18.9630 N.3    30  LEU30      -0.1245
      2  CA       -13.0250   23.0900  -19.4310 C.3    30  LEU30       0.1561
      3  C        -11.9490   24.1200  -19.0590 C.2    30  LEU30       0.2260
      4  O        -10.8460   23.7330  -18.6440 O.2    30  LEU30      -0.2867
      5  CB       -13.0390   22.7950  -20.9410 C.3    30  LEU30       0.0270
      6  CG       -13.9410   21.6340  -21.3800 C.3    30  LEU30       0.0019
      7  CD1      -13.8840   21.4510  -22.8780 C.3    30  LEU30       0.0001
      8  CD2      -13.5830   20.3310  -20.6330 C.3    30  LEU30       0.0001
      9  N        -11.1270   23.5090  -15.5120 N.3    33  LEU33      -0.1231
     10  CA       -10.2800   22.3170  -15.4010 C.3    33  LEU33       0.1693
     11  C         -8.8230   22.6370  -15.7770 C.2    33  LEU33       0.2592
     12  O         -7.8990   22.1550  -15.1290 O.2    33  LEU33      -0.2718
     13  CB       -10.8140   21.1780  -16.2600 C.3    33  LEU33       0.0284
     14  CG       -12.1890   20.5810  -15.8930 C.3    33  LEU33       0.0019
     15  CD1      -12.4780   19.3090  -16.7360 C.3    33  LEU33       0.0001
     16  CD2      -12.2850   20.2740  -14.4290 C.3    33  LEU33       0.0001
     17  N         -8.6310   23.4570  -16.8200 N.am   34  ASN34      -0.1974
     18  CA        -7.3000   23.8490  -17.2700 C.3    34  ASN34       0.1688
     19  C         -6.5670   24.7350  -16.2420 C.2    34  ASN34       0.2292
     20  O         -5.3670   24.5650  -16.0640 O.2    34  ASN34      -0.2864
     21  CB        -7.3680   24.5130  -18.6530 C.3    34  ASN34       0.1181
     22  CG        -7.7390   23.5200  -19.7220 C.2    34  ASN34       0.2629
     23  OD1       -7.6030   22.3080  -19.5350 O.2    34  ASN34      -0.2716
     24  ND2       -8.2920   23.9890  -20.8140 N.am   34  ASN34      -0.0877
     25  N         -7.1960   24.6090  -13.0290 N.3    36  LEU36      -0.1231
     26  CA        -6.9260   23.5880  -12.0130 C.3    36  LEU36       0.1693
     27  C         -5.6600   22.7640  -12.3680 C.2    36  LEU36       0.2591
     28  O         -4.7610   22.6310  -11.5220 O.2    36  LEU36      -0.2718
     29  CB        -8.1830   22.6980  -11.8370 C.3    36  LEU36       0.0284
     30  CG        -8.1190   21.5840  -10.8120 C.3    36  LEU36       0.0019
     31  CD1       -7.7690   22.1280   -9.4130 C.3    36  LEU36       0.0001
     32  CD2       -9.4500   20.8310  -10.7760 C.3    36  LEU36       0.0001
     33  N         -5.5510   22.2850  -13.6320 N.am   37  ALA37      -0.1980
     34  CA        -4.3840   21.5340  -14.1310 C.3    37  ALA37       0.1597
     35  C         -3.0880   22.3540  -14.0120 C.2    37  ALA37       0.2287
     36  O         -2.0580   21.8040  -13.6300 O.2    37  ALA37      -0.2864
     37  CB        -4.6080   21.0860  -15.5710 C.3    37  ALA37       0.0319
     38  N         -2.0900   22.4440  -10.3320 N.3    40  GLN40      -0.1245
     39  CA        -1.5960   21.0960  -10.0060 C.3    40  GLN40       0.1566
     40  C         -0.2020   20.8860  -10.5500 C.2    40  GLN40       0.2260
     41  O          0.6150   20.2450   -9.8900 O.2    40  GLN40      -0.2867
     42  CB        -2.5430   20.0230  -10.5630 C.3    40  GLN40       0.0367
     43  CG        -3.8510   19.9180   -9.7850 C.3    40  GLN40       0.0905
     44  CD        -4.8700   19.0890  -10.5530 C.2    40  GLN40       0.2608
     45  OE1       -4.6350   18.6710  -11.6950 O.2    40  GLN40      -0.2717
     46  NE2       -6.0650   18.9600  -10.0100 N.am   40  GLN40      -0.0878
     47  N          2.3130   14.3920  -17.0870 N.3    70  TRP70      -0.1227
     48  CA         1.3830   15.3210  -16.4190 C.3    70  TRP70       0.1737
     49  C         -0.0720   14.8220  -16.3570 C.2    70  TRP70       0.2595
     50  O         -0.6690   14.8680  -15.2740 O.2    70  TRP70      -0.2718
     51  CB         1.4840   16.7320  -17.0010 C.3    70  TRP70       0.0564
     52  CG         0.7350   16.9990  -18.2700 C.ar   70  TRP70       0.0003
     53  CD1        1.2140   16.9110  -19.5440 C.ar   70  TRP70       0.0946
     54  CD2       -0.6000   17.5010  -18.3750 C.ar   70  TRP70       0.0152
     55  NE1        0.2460   17.3050  -20.4390 N.ar   70  TRP70      -0.2442
     56  CE2       -0.8670   17.7010  -19.7480 C.ar   70  TRP70       0.0810
     57  CE3       -1.6050   17.7990  -17.4380 C.ar   70  TRP70       0.0012
     58  CZ2       -2.1040   18.1760  -20.2100 C.ar   70  TRP70       0.0191
     59  CZ3       -2.8180   18.2920  -17.8960 C.ar   70  TRP70       0.0001
     60  CH2       -3.0550   18.4840  -19.2650 C.ar   70  TRP70       0.0015
     61  N         -0.6110   14.3000  -17.4760 N.am   71  MET71      -0.1979
     62  CA        -1.9950   13.8010  -17.5360 C.3    71  MET71       0.1605
     63  C         -2.1640   12.5200  -16.7250 C.2    71  MET71       0.2287
     64  O         -3.2380   12.2970  -16.1560 O.2    71  MET71      -0.2864
     65  CB        -2.4370   13.5900  -18.9890 C.3    71  MET71       0.0413
     66  CG        -3.9410   13.3410  -19.1560 C.3    71  MET71       0.0598
     67  SD        -4.9600   14.7690  -18.7080 S.3    71  MET71      -0.1393
     68  CE        -4.9180   15.7090  -20.3010 C.3    71  MET71       0.0692
     69  N         -2.0760   13.5210  -13.0010 N.3    74  SER74      -0.1202
     70  CA        -3.2910   14.2930  -12.7400 C.3    74  SER74       0.2020
     71  C         -4.5220   13.4050  -12.6890 C.2    74  SER74       0.2619
     72  O         -5.3710   13.5630  -11.7910 O.2    74  SER74      -0.2717
     73  CB        -3.4630   15.3820  -13.8000 C.3    74  SER74       0.2103
     74  OG        -4.4830   16.2520  -13.3420 O.3    74  SER74      -0.2182
     75  N         -4.6250   12.4620  -13.6490 N.am   75  SER75      -0.1951
     76  CA        -5.8010   11.5920  -13.7010 C.3    75  SER75       0.1924
     77  C         -5.7660   10.5860  -12.5610 C.2    75  SER75       0.2314
     78  O         -6.8040   10.3160  -11.9660 O.2    75  SER75      -0.2863
     79  CB        -5.9310   10.9280  -15.0730 C.3    75  SER75       0.2116
     80  OG        -4.8460   10.0670  -15.3630 O.3    75  SER75      -0.2180
     81  N         -6.8700   12.4170   -9.4740 N.3    78  LEU78      -0.1245
     82  CA        -8.3300   12.6660   -9.5180 C.3    78  LEU78       0.1561
     83  C         -9.0670   11.3920   -9.0420 C.2    78  LEU78       0.2260
     84  O        -10.0080   11.4660   -8.2370 O.2    78  LEU78      -0.2867
     85  CB        -8.7740   13.0620  -10.9420 C.3    78  LEU78       0.0270
     86  CG       -10.3070   13.0810  -11.1990 C.3    78  LEU78       0.0019
     87  CD1      -11.0090   14.1400  -10.3290 C.3    78  LEU78       0.0001
     88  CD2      -10.5960   13.3940  -12.6650 C.3    78  LEU78       0.0001
     89  N         -8.7420   11.2580   -5.1900 N.3    81  ARG81      -0.1245
     90  CA        -9.6550   12.1690   -4.4990 C.3    81  ARG81       0.1563
     91  C        -11.0930   11.6660   -4.5680 C.2    81  ARG81       0.2260
     92  O        -11.8120   11.7720   -3.5700 O.2    81  ARG81      -0.2867
     93  CB        -9.5840   13.5910   -5.0390 C.3    81  ARG81       0.0307
     94  CG        -8.2200   14.2650   -4.8180 C.3    81  ARG81       0.0489
     95  CD        -8.2490   15.7310   -5.2150 C.3    81  ARG81       0.2205
     96  NE        -8.5930   15.9860   -6.6210 N.pl3  81  ARG81      -0.0865
     97  CZ        -7.7340   15.9540   -7.6350 C.cat  81  ARG81       0.5346
     98  NH1       -6.4830   15.5630   -7.4400 N.pl3  81  ARG81       0.1354
     99  NH2       -8.1330   16.2720   -8.8620 N.pl3  81  ARG81       0.1354
    100  N        -16.7940   12.3730   -9.3740 N.3    91  LEU91      -0.1245
    101  CA       -15.4320   12.8050   -9.7310 C.3    91  LEU91       0.1561
    102  C        -15.1100   14.0530   -8.9140 C.2    91  LEU91       0.2260
    103  O        -15.6850   15.1240   -9.1660 O.2    91  LEU91      -0.2867
    104  CB       -15.2690   13.0630  -11.2590 C.3    91  LEU91       0.0270
    105  CG       -15.3740   11.8030  -12.1540 C.3    91  LEU91       0.0019
    106  CD1      -15.3090   12.1750  -13.6120 C.3    91  LEU91       0.0001
    107  CD2      -14.2240   10.7930  -11.8430 C.3    91  LEU91       0.0001
    108  N        -12.9260   16.6840   -8.5040 N.3    93  PHE93      -0.1241
    109  CA       -11.8810   17.4880   -9.1340 C.3    93  PHE93       0.1605
    110  C        -11.2390   18.3740   -8.0750 C.2    93  PHE93       0.2264
    111  O        -10.0180   18.4280   -7.9940 O.2    93  PHE93      -0.2867
    112  CB       -12.4400   18.3110  -10.3100 C.3    93  PHE93       0.0534
    113  CG       -12.7030   17.4700  -11.5410 C.ar   93  PHE93      -0.0203
    114  CD1      -11.7120   17.2800  -12.5000 C.ar   93  PHE93      -0.0042
    115  CD2      -13.9500   16.8890  -11.7570 C.ar   93  PHE93      -0.0042
    116  CE1      -11.9600   16.5070  -13.6430 C.ar   93  PHE93      -0.0003
    117  CE2      -14.1810   16.0830  -12.8830 C.ar   93  PHE93      -0.0003
    118  CZ       -13.1900   15.9100  -13.8220 C.ar   93  PHE93      -0.0000
    119  N        -17.1410   16.0550  -22.1600 N.3   109  MET109     -0.1245
    120  CA       -16.1830   14.9650  -21.9390 C.3   109  MET109      0.1570
    121  C        -16.8740   13.7960  -21.2590 C.2   109  MET109      0.2261
    122  O        -16.2250   13.0780  -20.5040 O.2   109  MET109     -0.2867
    123  CB       -15.0220   15.4310  -21.0220 C.3   109  MET109      0.0387
    124  CG       -14.2080   16.5230  -21.5700 C.3   109  MET109      0.0595
    125  SD       -12.7270   16.8350  -20.5810 S.3   109  MET109     -0.1393
    126  CE       -11.8670   15.2380  -20.6860 C.3   109  MET109      0.0692
    127  N        -15.1880   10.3290  -21.5090 N.3   112  LEU112     -0.1231
    128  CA       -13.8890   10.3450  -20.8340 C.3   112  LEU112      0.1693
    129  C        -14.0780   10.3670  -19.3220 C.2   112  LEU112      0.2592
    130  O        -13.3600    9.6680  -18.6110 O.2   112  LEU112     -0.2718
    131  CB       -13.0300   11.5160  -21.3220 C.3   112  LEU112      0.0284
    132  CG       -12.5630   11.3460  -22.7810 C.3   112  LEU112      0.0019
    133  CD1      -12.2380   12.6650  -23.4240 C.3   112  LEU112      0.0001
    134  CD2      -11.3650   10.4430  -22.8570 C.3   112  LEU112      0.0001
    135  N        -15.0900   11.1170  -18.8500 N.am  113  CYS113     -0.1970
    136  CA       -15.4800   11.1780  -17.4290 C.3   113  CYS113      0.1712
    137  C        -15.9150    9.7830  -16.9280 C.2   113  CYS113      0.2296
    138  O        -15.5510    9.4190  -15.8170 O.2   113  CYS113     -0.2864
    139  CB       -16.5650   12.2240  -17.1900 C.3   113  CYS113      0.0983
    140  SG       -15.9600   13.9260  -17.1880 S.3   113  CYS113     -0.0798
    141  N        -12.7950    7.6830  -16.4920 N.3   116  MET116     -0.1245
    142  CA       -12.1390    8.1050  -15.2560 C.3   116  MET116      0.1570
    143  C        -12.8660    7.4920  -14.0500 C.2   116  MET116      0.2261
    144  O        -12.2130    7.0200  -13.1120 O.2   116  MET116     -0.2867
    145  CB       -12.1140    9.6440  -15.1500 C.3   116  MET116      0.0387
    146  CG       -11.3240   10.1390  -13.9620 C.3   116  MET116      0.0595
    147  SD        -9.5280   10.0900  -14.2120 S.3   116  MET116     -0.1393
    148  CE        -9.0950    8.4650  -13.4710 C.3   116  MET116      0.0692
    149  N         -7.5810   11.0180  -23.0140 N.3   196  LEU196     -0.1245
    150  CA        -7.6550   12.3420  -22.3710 C.3   196  LEU196      0.1561
    151  C         -6.7820   13.3410  -23.1350 C.2   196  LEU196      0.2260
    152  O         -7.2180   14.4590  -23.4060 O.2   196  LEU196     -0.2867
    153  CB        -7.2070   12.2820  -20.8900 C.3   196  LEU196      0.0270
    154  CG        -8.1980   11.6180  -19.9270 C.3   196  LEU196      0.0019
    155  CD1       -7.5580   11.4090  -18.5630 C.3   196  LEU196      0.0001
    156  CD2       -9.5210   12.4480  -19.7880 C.3   196  LEU196      0.0001
    157  N         -8.2300   14.5010  -26.5450 N.3   199  PHE199     -0.1227
    158  CA        -9.2260   15.5530  -26.3990 C.3   199  PHE199      0.1736
    159  C         -8.5890   16.8720  -26.0230 C.2   199  PHE199      0.2595
    160  O         -8.9970   17.9050  -26.5430 O.2   199  PHE199     -0.2718
    161  CB       -10.3270   15.1700  -25.3980 C.3   199  PHE199      0.0547
    162  CG       -11.4800   16.1440  -25.4570 C.ar  199  PHE199     -0.0202
    163  CD1      -12.2610   16.2570  -26.6070 C.ar  199  PHE199     -0.0042
    164  CD2      -11.8230   16.9050  -24.3520 C.ar  199  PHE199     -0.0042
    165  CE1      -13.3520   17.1430  -26.6500 C.ar  199  PHE199     -0.0003
    166  CE2      -12.9060   17.7990  -24.4010 C.ar  199  PHE199     -0.0003
    167  CZ       -13.6740   17.8950  -25.5400 C.ar  199  PHE199     -0.0000
    168  N         -7.5750   16.8350  -25.1390 N.am  200  CYS200     -0.1970
    169  CA        -6.8550   18.0340  -24.7180 C.3   200  CYS200      0.1712
    170  C         -6.1250   18.6950  -25.8860 C.2   200  CYS200      0.2296
    171  O         -6.1780   19.9210  -26.0210 O.2   200  CYS200     -0.2864
    172  CB        -5.9080   17.7040  -23.5690 C.3   200  CYS200      0.0983
    173  SG        -5.2280   19.1640  -22.7510 S.3   200  CYS200     -0.0798
    174  N         -8.8920   20.4770  -28.1640 N.3   203  THR203     -0.1218
    175  CA        -9.3510   21.7710  -27.6280 C.3   203  THR203      0.1862
    176  C         -8.2090   22.8190  -27.6370 C.2   203  THR203      0.2287
    177  O         -8.4860   24.0020  -27.7870 O.2   203  THR203     -0.2866
    178  CB        -9.9790   21.6380  -26.2230 C.3   203  THR203      0.1770
    179  OG1       -8.9450   21.3450  -25.2940 O.3   203  THR203     -0.2211
    180  CG2      -11.0860   20.5540  -26.1570 C.3   203  THR203      0.0375
    181  N        -12.0500   27.7910  -25.1410 N.3   212  VAL212     -0.1245
    182  CA       -11.4370   27.0770  -24.0130 C.3   212  VAL212      0.1561
    183  C        -10.0990   27.7450  -23.6760 C.2   212  VAL212      0.2260
    184  O         -9.2320   27.8490  -24.5370 O.2   212  VAL212     -0.2867
    185  CB       -11.3220   25.5550  -24.2780 C.3   212  VAL212      0.0252
    186  CG1      -10.6540   24.8330  -23.1050 C.3   212  VAL212      0.0019
    187  CG2      -12.6980   24.9400  -24.5730 C.3   212  VAL212      0.0019
    188  N         -6.4360   28.2670  -21.5870 N.3   214  PHE214     -0.1241
    189  CA        -5.3020   27.4990  -21.0550 C.3   214  PHE214      0.1605
    190  C         -4.3480   28.4220  -20.2970 C.2   214  PHE214      0.2264
    191  O         -3.9000   29.4410  -20.8610 O.2   214  PHE214     -0.2867
    192  CB        -4.5400   26.7780  -22.1960 C.3   214  PHE214      0.0534
    193  CG        -5.2640   25.5850  -22.7880 C.ar  214  PHE214     -0.0203
    194  CD1       -6.2640   25.7610  -23.7420 C.ar  214  PHE214     -0.0042
    195  CD2       -4.9180   24.2870  -22.4180 C.ar  214  PHE214     -0.0042
    196  CE1       -6.9380   24.6640  -24.2820 C.ar  214  PHE214     -0.0003
    197  CE2       -5.5880   23.1850  -22.9650 C.ar  214  PHE214     -0.0003
    198  CZ        -6.5860   23.3840  -23.8990 C.ar  214  PHE214     -0.0000
@<TRIPOS>BOND
     1   174   175    1
     2   177   176    2
     3   176   175    1
     4   175   178    1
     5   165   163   ar
     6   165   167   ar
     7   163   162   ar
     8   157   158    1
     9   160   159    2
    10   158   159    1
    11   158   161    1
    12   178   180    1
    13   178   179    1
    14   159   168   am
    15   171   170    2
    16   170   169    1
    17   167   166   ar
    18   162   161    1
    19   162   164   ar
    20   181   182    1
    21   168   169    1
    22   169   172    1
    23   187   185    1
    24   184   183    2
    25   166   164   ar
    26   196   198   ar
    27   196   194   ar
    28   185   182    1
    29   185   186    1
    30   182   183    1
    31   198   197   ar
    32   194   193   ar
    33   172   173    1
    34   133   132    1
    35   152   151    2
    36   151   150    1
    37   149   150    1
    38   197   195   ar
    39     7     6    1
    40   134   132    1
    41   193   195   ar
    42   193   192    1
    43   132   131    1
    44   150   153    1
    45   192   189    1
    46   119   120    1
    47   120   121    1
    48   120   123    1
    49   188   189    1
    50   124   123    1
    51   124   125    1
    52   127   128    1
    53     6     5    1
    54     6     8    1
    55   131   128    1
    56   121   122    2
    57   189   190    1
    58     5     2    1
    59   153   154    1
    60   191   190    2
    61   128   129    1
    62    24    22   am
    63   126   125    1
    64    55    56   ar
    65    55    53   ar
    66    68    67    1
    67    58    56   ar
    68    58    60   ar
    69   154   156    1
    70   154   155    1
    71    56    54   ar
    72    22    23    2
    73    22    21    1
    74    53    52   ar
    75     2     3    1
    76     2     1    1
    77   129   135   am
    78   129   130    2
    79    60    59   ar
    80    66    65    1
    81    66    67    1
    82     3     4    2
    83    65    62    1
    84   135   136    1
    85    21    18    1
    86    54    52   ar
    87    54    57   ar
    88    52    51    1
    89    59    57   ar
    90    62    61    1
    91    62    63    1
    92    61    49   am
    93   136   139    1
    94   136   137    1
    95    18    17    1
    96    18    19    1
    97   139   140    1
    98    47    48    1
    99    51    48    1
   100   137   138    2
   101    17    11   am
   102    15    14    1
   103    63    64    2
   104   141   142    1
   105    48    49    1
   106    49    50    2
   107    13    14    1
   108    13    10    1
   109    19    20    2
   110    14    16    1
   111    11    10    1
   112    11    12    2
   113    37    34    1
   114     9    10    1
   115    80    79    1
   116   142   145    1
   117   142   143    1
   118   145   146    1
   119    79    76    1
   120   147   146    1
   121   147   148    1
   122    34    35    1
   123    34    33    1
   124   143   144    2
   125    35    36    2
   126   118   116   ar
   127   118   117   ar
   128    73    74    1
   129    73    70    1
   130    76    75    1
   131    76    77    1
   132    75    71   am
   133   116   114   ar
   134    33    27   am
   135   106   105    1
   136    25    26    1
   137    69    70    1
   138   117   115   ar
   139    70    71    1
   140    71    72    2
   141    88    86    1
   142    77    78    2
   143   114   113   ar
   144    27    26    1
   145    27    28    2
   146   105   107    1
   147   105   104    1
   148    26    29    1
   149    29    30    1
   150   115   113   ar
   151    45    44    2
   152   113   112    1
   153   104   101    1
   154    86    85    1
   155    86    87    1
   156    85    82    1
   157    30    32    1
   158    30    31    1
   159    42    39    1
   160    42    43    1
   161    44    46   am
   162    44    43    1
   163    40    39    1
   164    40    41    2
   165    38    39    1
   166   112   109    1
   167   101   100    1
   168   101   102    1
   169    82    81    1
   170    82    83    1
   171   103   102    2
   172   109   108    1
   173   109   110    1
   174    83    84    2
   175    99    97    1
   176   110   111    2
   177    97    98    1
   178    97    96    2
   179    96    95    1
   180    95    94    1
   181    89    90    1
   182    93    94    1
   183    93    90    1
   184    91    90    1
   185    91    92    2
