@<TRIPOS>MOLECULE
tmp/6gg8A01.pdb
 94 89 0 0 0
SMALL
GASTEIGER

@<TRIPOS>ATOM
      1  N          3.1340   14.6680    0.0210 N.3    10  GLU10      -0.1231
      2  CA         1.9150   14.7790   -0.7500 C.3    10  GLU10       0.1684
      3  C          1.3720   16.2330   -0.6840 C.2    10  GLU10       0.2434
      4  O          1.2950   16.8410    0.3790 O.2    10  GLU10      -0.2733
      5  CB         0.8850   13.7100   -0.3270 C.3    10  GLU10       0.0402
      6  CG        -0.1970   13.3940   -1.3570 C.3    10  GLU10       0.1161
      7  CD         0.2130   13.1280   -2.7950 C.2    10  GLU10       0.3649
      8  OE1       -0.4870   13.6210   -3.7090 O.co2  10  GLU10      -0.2457
      9  OE2        1.2700   12.4950   -3.0150 O.co2  10  GLU10      -0.2457
     10  N          1.1320   16.8520   -1.8380 N.am   11  PRO11      -0.2729
     11  CA         0.7220   18.2690   -1.8390 C.3    11  PRO11       0.1401
     12  C         -0.6540   18.5310   -1.2460 C.2    11  PRO11       0.2269
     13  O         -1.4880   17.6340   -1.2030 O.2    11  PRO11      -0.2865
     14  CB         0.7640   18.6310   -3.3260 C.3    11  PRO11       0.0296
     15  CG         1.7290   17.6180   -3.9140 C.3    11  PRO11       0.0237
     16  CD         1.3260   16.3660   -3.2150 C.3    11  PRO11       0.0939
     17  N         -2.0900   22.4440  -10.3320 N.3    40  GLN40      -0.1245
     18  CA        -1.5960   21.0960  -10.0060 C.3    40  GLN40       0.1566
     19  C         -0.2020   20.8860  -10.5500 C.2    40  GLN40       0.2260
     20  O          0.6150   20.2450   -9.8900 O.2    40  GLN40      -0.2867
     21  CB        -2.5430   20.0230  -10.5630 C.3    40  GLN40       0.0367
     22  CG        -3.8510   19.9180   -9.7850 C.3    40  GLN40       0.0905
     23  CD        -4.8700   19.0890  -10.5530 C.2    40  GLN40       0.2608
     24  OE1       -4.6350   18.6710  -11.6950 O.2    40  GLN40      -0.2717
     25  NE2       -6.0650   18.9600  -10.0100 N.am   40  GLN40      -0.0878
     26  N          2.3950   22.2010   -8.2540 N.3    43  GLN43      -0.1231
     27  CA         2.5160   21.2550   -7.1460 C.3    43  GLN43       0.1698
     28  C          3.3430   20.0340   -7.5370 C.2    43  GLN43       0.2592
     29  O          4.1610   19.5820   -6.7250 O.2    43  GLN43      -0.2718
     30  CB         1.1430   20.8150   -6.6640 C.3    43  GLN43       0.0381
     31  CG         0.3390   21.9250   -6.0280 C.3    43  GLN43       0.0905
     32  CD        -0.8470   21.2830   -5.3840 C.2    43  GLN43       0.2608
     33  OE1       -1.5010   20.4100   -5.9730 O.2    43  GLN43      -0.2717
     34  NE2       -1.1450   21.6940   -4.1660 N.am   43  GLN43      -0.0878
     35  N          3.1640   19.5220   -8.7800 N.am   44  VAL44      -0.1980
     36  CA         3.9520   18.3790   -9.3080 C.3    44  VAL44       0.1595
     37  C          5.4380   18.7450   -9.2820 C.2    44  VAL44       0.2287
     38  O          6.2550   17.9410   -8.8370 O.2    44  VAL44      -0.2864
     39  CB         3.5310   17.9770  -10.7450 C.3    44  VAL44       0.0276
     40  CG1        4.5600   17.0240  -11.3770 C.3    44  VAL44       0.0022
     41  CG2        2.1380   17.3470  -10.7500 C.3    44  VAL44       0.0022
     42  N          6.7470   18.8260   -5.6620 N.3    47  TRP47      -0.1241
     43  CA         6.7830   17.4440   -5.1840 C.3    47  TRP47       0.1605
     44  C          7.9510   16.6790   -5.8130 C.2    47  TRP47       0.2264
     45  O          8.7030   16.0240   -5.0930 O.2    47  TRP47      -0.2867
     46  CB         5.4450   16.7800   -5.5110 C.3    47  TRP47       0.0550
     47  CG         5.3770   15.2870   -5.4220 C.ar   47  TRP47       0.0003
     48  CD1        5.1250   14.5420   -4.3070 C.ar   47  TRP47       0.0946
     49  CD2        5.4030   14.3630   -6.5270 C.ar   47  TRP47       0.0152
     50  NE1        5.0480   13.2110   -4.6380 N.ar   47  TRP47      -0.2442
     51  CE2        5.2310   13.0700   -5.9910 C.ar   47  TRP47       0.0810
     52  CE3        5.6320   14.5000   -7.9160 C.ar   47  TRP47       0.0012
     53  CZ2        5.2090   11.9190   -6.7980 C.ar   47  TRP47       0.0191
     54  CZ3        5.5960   13.3650   -8.7170 C.ar   47  TRP47       0.0001
     55  CH2        5.3880   12.0920   -8.1580 C.ar   47  TRP47       0.0015
     56  N         -0.3020   11.6200  -13.9390 N.3    73  LEU73      -0.1231
     57  CA        -0.2620   11.9890  -12.5140 C.3    73  LEU73       0.1693
     58  C         -1.5880   12.6430  -12.1340 C.2    73  LEU73       0.2592
     59  O         -2.1490   12.3530  -11.0860 O.2    73  LEU73      -0.2718
     60  CB         0.9050   12.9790  -12.1940 C.3    73  LEU73       0.0284
     61  CG         2.3630   12.4780  -12.3790 C.3    73  LEU73       0.0019
     62  CD1        3.3620   13.5960  -12.0460 C.3    73  LEU73       0.0001
     63  CD2        2.6660   11.3130  -11.4780 C.3    73  LEU73       0.0001
     64  N         -2.0760   13.5210  -13.0010 N.am   74  SER74      -0.1952
     65  CA        -3.2910   14.2930  -12.7400 C.3    74  SER74       0.1924
     66  C         -4.5220   13.4050  -12.6890 C.2    74  SER74       0.2314
     67  O         -5.3710   13.5630  -11.7910 O.2    74  SER74      -0.2863
     68  CB        -3.4630   15.3820  -13.8000 C.3    74  SER74       0.2116
     69  OG        -4.4830   16.2520  -13.3420 O.3    74  SER74      -0.2180
     70  N         -4.4470   11.0940   -9.5690 N.3    77  ALA77      -0.1245
     71  CA        -4.7850   11.8420   -8.3590 C.3    77  ALA77       0.1562
     72  C         -6.2680   12.1570   -8.3160 C.2    77  ALA77       0.2260
     73  O         -6.8740   12.1350   -7.2460 O.2    77  ALA77      -0.2867
     74  CB        -3.9790   13.1240   -8.2900 C.3    77  ALA77       0.0290
     75  N         -8.7420   11.2580   -5.1900 N.3    81  ARG81      -0.1245
     76  CA        -9.6550   12.1690   -4.4990 C.3    81  ARG81       0.1563
     77  C        -11.0930   11.6660   -4.5680 C.2    81  ARG81       0.2260
     78  O        -11.8120   11.7720   -3.5700 O.2    81  ARG81      -0.2867
     79  CB        -9.5840   13.5910   -5.0390 C.3    81  ARG81       0.0307
     80  CG        -8.2200   14.2650   -4.8180 C.3    81  ARG81       0.0489
     81  CD        -8.2490   15.7310   -5.2150 C.3    81  ARG81       0.2205
     82  NE        -8.5930   15.9860   -6.6210 N.pl3  81  ARG81      -0.0865
     83  CZ        -7.7340   15.9540   -7.6350 C.cat  81  ARG81       0.5346
     84  NH1       -6.4830   15.5630   -7.4400 N.pl3  81  ARG81       0.1354
     85  NH2       -8.1330   16.2720   -8.8620 N.pl3  81  ARG81       0.1354
     86  N          1.9810    6.5160   -7.9190 N.3   137  LYS137     -0.1245
     87  CA         2.0460    7.8410   -8.5250 C.3   137  LYS137      0.1561
     88  C          3.4880    8.1530   -9.0020 C.2   137  LYS137      0.2260
     89  O          3.6550    8.6740  -10.0940 O.2   137  LYS137     -0.2867
     90  CB         1.5040    8.8880   -7.5430 C.3   137  LYS137      0.0271
     91  CG         1.1770   10.2160   -8.2010 C.3   137  LYS137      0.0035
     92  CD         0.1000   11.0260   -7.4320 C.3   137  LYS137      0.0206
     93  CE         0.3830   11.2040   -5.9510 C.3   137  LYS137      0.1093
     94  NZ         1.6600   11.9290   -5.6990 N.3   137  LYS137     -0.1314
@<TRIPOS>BOND
     1    56    57    1
     2    68    69    1
     3    68    65    1
     4    64    65    1
     5    64    58   am
     6    65    66    1
     7    66    67    2
     8    57    60    1
     9    57    58    1
    10    61    60    1
    11    61    62    1
    12    61    63    1
    13    58    59    2
    14    24    23    2
    15    40    39    1
    16    41    39    1
    17    39    36    1
    18    21    18    1
    19    21    22    1
    20    23    25   am
    21    23    22    1
    22    19    18    1
    23    19    20    2
    24    17    18    1
    25    89    88    2
    26    70    71    1
    27    36    37    1
    28    36    35    1
    29    37    38    2
    30    88    87    1
    31    85    83    1
    32    35    28   am
    33    54    55   ar
    34    54    52   ar
    35    87    86    1
    36    87    90    1
    37    71    72    1
    38    71    74    1
    39    72    73    2
    40    26    27    1
    41    91    90    1
    42    91    92    1
    43    55    53   ar
    44    52    49   ar
    45    83    84    1
    46    83    82    2
    47    28    27    1
    48    28    29    2
    49    92    93    1
    50    27    30    1
    51    53    51   ar
    52    30    31    1
    53    82    81    1
    54    49    51   ar
    55    49    47   ar
    56    31    32    1
    57    51    50   ar
    58    33    32    2
    59    93    94    1
    60    44    43    1
    61    44    45    2
    62    42    43    1
    63    46    47    1
    64    46    43    1
    65    47    48   ar
    66    32    34   am
    67    81    80    1
    68    75    76    1
    69    79    80    1
    70    79    76    1
    71    50    48   ar
    72    77    76    1
    73    77    78    2
    74    15    14    1
    75    15    16    1
    76     8     7   ar
    77    14    11    1
    78    16    10    1
    79     9     7   ar
    80     7     6    1
    81    11    10    1
    82    11    12    1
    83    10     3   am
    84     6     5    1
    85    12    13    2
    86     2     3    1
    87     2     5    1
    88     2     1    1
    89     3     4    2
