@<TRIPOS>MOLECULE
tmp/6gg9D00.pdb
 176 161 0 0 0
SMALL
GASTEIGER

@<TRIPOS>ATOM
      1  N         14.9010  -33.8100    9.9830 N.3    19  VAL19      -0.1245
      2  CA        13.7520  -34.6310    9.6190 C.3    19  VAL19       0.1561
      3  C         12.8400  -33.8520    8.6830 C.2    19  VAL19       0.2260
      4  O         12.8410  -32.6210    8.6460 O.2    19  VAL19      -0.2867
      5  CB        12.9360  -35.1000   10.8430 C.3    19  VAL19       0.0252
      6  CG1       13.8160  -35.8130   11.8380 C.3    19  VAL19       0.0019
      7  CG2       12.2540  -33.9220   11.5080 C.3    19  VAL19       0.0019
      8  N          8.6180  -34.0450    7.8180 N.3    21  ALA21      -0.1245
      9  CA         7.3300  -34.5600    8.2580 C.3    21  ALA21       0.1562
     10  C          6.2180  -33.9820    7.3890 C.2    21  ALA21       0.2260
     11  O          6.3720  -32.9090    6.7850 O.2    21  ALA21      -0.2867
     12  CB         7.0950  -34.2130    9.7280 C.3    21  ALA21       0.0290
     13  N         -4.2420  -34.0280   13.1650 N.3    26  ASP26      -0.1239
     14  CA        -3.5500  -33.5350   14.3470 C.3    26  ASP26       0.1674
     15  C         -2.1330  -34.0950   14.4650 C.2    26  ASP26       0.2266
     16  O         -1.4320  -33.7680   15.4280 O.2    26  ASP26      -0.2867
     17  CB        -4.3580  -33.8740   15.6140 C.3    26  ASP26       0.1410
     18  CG        -5.7130  -33.1930   15.6420 C.2    26  ASP26       0.3668
     19  OD1       -5.8380  -32.0960   15.0560 O.co2  26  ASP26      -0.2456
     20  OD2       -6.6560  -33.7490   16.2500 O.co2  26  ASP26      -0.2456
     21  N          1.7250  -34.7780   12.5350 N.3    28  THR28      -0.1218
     22  CA         2.6740  -34.5190   11.4550 C.3    28  THR28       0.1862
     23  C          3.6670  -35.6760   11.4730 C.2    28  THR28       0.2287
     24  O          4.4910  -35.7750   12.3880 O.2    28  THR28      -0.2866
     25  CB         3.3660  -33.1710   11.6500 C.3    28  THR28       0.1770
     26  OG1        2.4440  -32.2410   12.2270 O.3    28  THR28      -0.2211
     27  CG2        3.8740  -32.6070   10.3110 C.3    28  THR28       0.0375
     28  N          4.2610  -39.3490   14.3730 N.3    52  ASP52      -0.1225
     29  CA         4.5170  -38.0080   14.8640 C.3    52  ASP52       0.1805
     30  C          5.6910  -38.0310   15.8350 C.2    52  ASP52       0.2598
     31  O          5.8630  -38.9810   16.6020 O.2    52  ASP52      -0.2718
     32  CB         3.2740  -37.4610   15.5640 C.3    52  ASP52       0.1424
     33  CG         3.3740  -35.9840   15.8490 C.2    52  ASP52       0.3668
     34  OD1        4.1280  -35.6130   16.7690 O.co2  52  ASP52      -0.2456
     35  OD2        2.6710  -35.1930   15.1810 O.co2  52  ASP52      -0.2456
     36  N          6.5070  -36.9730   15.7960 N.am   53  CYS53      -0.1956
     37  CA         7.7090  -36.8960   16.6240 C.3    53  CYS53       0.1843
     38  C          7.4230  -36.8100   18.1140 C.2    53  CYS53       0.2625
     39  O          8.3600  -36.9280   18.9100 O.2    53  CYS53      -0.2714
     40  CB         8.5270  -35.6840   16.2210 C.3    53  CYS53       0.0997
     41  SG         9.5500  -36.0400   14.8150 S.3    53  CYS53      -0.0797
     42  N          6.1690  -36.6020   18.5100 N.am   54  ARG54      -0.1977
     43  CA         5.8590  -36.3700   19.9170 C.3    54  ARG54       0.1597
     44  C          6.2610  -37.5330   20.8150 C.2    54  ARG54       0.2287
     45  O          6.3390  -37.3530   22.0350 O.2    54  ARG54      -0.2864
     46  CB         4.3560  -36.1100   20.0960 C.3    54  ARG54       0.0334
     47  CG         3.5130  -37.3120   19.7530 C.3    54  ARG54       0.0492
     48  CD         2.0350  -37.1000   20.1490 C.3    54  ARG54       0.2205
     49  NE         1.4410  -35.9920   19.4060 N.pl3  54  ARG54      -0.0865
     50  CZ         0.8100  -36.1160   18.2440 C.cat  54  ARG54       0.5346
     51  NH1        0.6850  -37.3040   17.6700 N.pl3  54  ARG54       0.1354
     52  NH2        0.3070  -35.0440   17.6530 N.pl3  54  ARG54       0.1354
     53  N          9.0140  -38.4990   21.2530 N.3    56  LEU56      -0.1231
     54  CA        10.2690  -38.0600   21.8610 C.3    56  LEU56       0.1693
     55  C         10.0490  -37.3320   23.1780 C.2    56  LEU56       0.2591
     56  O         11.0160  -37.1360   23.9270 O.2    56  LEU56      -0.2718
     57  CB        11.0360  -37.1490   20.9020 C.3    56  LEU56       0.0284
     58  CG        11.6260  -37.8180   19.6610 C.3    56  LEU56       0.0019
     59  CD1       12.2040  -36.8020   18.6660 C.3    56  LEU56       0.0001
     60  CD2       12.7140  -38.7890   20.0800 C.3    56  LEU56       0.0001
     61  N          8.8060  -36.9180   23.4680 N.am   57  GLN57      -0.1979
     62  CA         8.4640  -36.2870   24.7390 C.3    57  GLN57       0.1601
     63  C          8.2550  -37.2930   25.8570 C.2    57  GLN57       0.2287
     64  O          8.1770  -36.8850   27.0230 O.2    57  GLN57      -0.2864
     65  CB         7.1970  -35.4230   24.5870 C.3    57  GLN57       0.0394
     66  CG         7.4390  -34.1610   23.7510 C.3    57  GLN57       0.0908
     67  CD         6.2610  -33.7720   22.8750 C.2    57  GLN57       0.2608
     68  OE1        5.0950  -33.9430   23.2490 O.2    57  GLN57      -0.2717
     69  NE2        6.5650  -33.2570   21.6850 N.am   57  GLN57      -0.0878
     70  N          5.4430  -26.9980   23.7720 N.3    66  ILE66      -0.1245
     71  CA         4.6000  -27.8110   22.9000 C.3    66  ILE66       0.1561
     72  C          3.3870  -27.0230   22.4100 C.2    66  ILE66       0.2260
     73  O          3.0350  -27.0740   21.2220 O.2    66  ILE66      -0.2867
     74  CB         4.2050  -29.1020   23.6360 C.3    66  ILE66       0.0252
     75  CG1        5.4740  -29.8720   24.0040 C.3    66  ILE66       0.0019
     76  CG2        3.2760  -29.9550   22.7800 C.3    66  ILE66       0.0019
     77  CD1        5.2460  -31.0550   24.9170 C.3    66  ILE66       0.0001
     78  N          4.3920  -24.7300   19.7860 N.3    69  ILE69      -0.1231
     79  CA         4.5960  -25.4620   18.5350 C.3    69  ILE69       0.1692
     80  C          3.2610  -25.6730   17.8350 C.2    69  ILE69       0.2591
     81  O          3.1310  -25.4470   16.6290 O.2    69  ILE69      -0.2718
     82  CB         5.3070  -26.8010   18.7920 C.3    69  ILE69       0.0266
     83  CG1        6.7600  -26.5680   19.2150 C.3    69  ILE69       0.0019
     84  CG2        5.2730  -27.6710   17.5290 C.3    69  ILE69       0.0020
     85  CD1        7.3830  -27.7720   19.8280 C.3    69  ILE69       0.0001
     86  N          2.2450  -26.0950   18.5900 N.am   70  ARG70      -0.1980
     87  CA         0.9270  -26.3010   18.0000 C.3    70  ARG70       0.1597
     88  C          0.4080  -25.0090   17.3690 C.2    70  ARG70       0.2287
     89  O         -0.0330  -25.0040   16.2110 O.2    70  ARG70      -0.2864
     90  CB        -0.0350  -26.8260   19.0710 C.3    70  ARG70       0.0334
     91  CG        -1.1180  -27.7570   18.5570 C.3    70  ARG70       0.0492
     92  CD        -2.1000  -28.1530   19.6690 C.3    70  ARG70       0.2205
     93  NE        -1.4160  -28.7550   20.8110 N.pl3  70  ARG70      -0.0865
     94  CZ        -1.3670  -28.2280   22.0310 C.cat  70  ARG70       0.5346
     95  NH1       -1.9850  -27.0840   22.2960 N.pl3  70  ARG70       0.1354
     96  NH2       -0.6990  -28.8560   22.9930 N.pl3  70  ARG70       0.1354
     97  N          2.2980  -24.1400   14.2110 N.3    73  MET73      -0.1245
     98  CA         1.9330  -25.0420   13.1270 C.3    73  MET73       0.1570
     99  C          0.5950  -24.6370   12.5230 C.2    73  MET73       0.2261
    100  O          0.4620  -24.5130   11.2990 O.2    73  MET73      -0.2867
    101  CB         1.8510  -26.4770   13.6500 C.3    73  MET73       0.0387
    102  CG         3.1770  -27.0770   14.0740 C.3    73  MET73       0.0595
    103  SD         4.2490  -27.5730   12.7260 S.3    73  MET73      -0.1393
    104  CE         3.2770  -28.8380   11.9010 C.3    73  MET73       0.0692
    105  N         12.8400  -28.3470   24.1060 N.3    83  LEU83      -0.1245
    106  CA        11.9690  -29.3590   24.6880 C.3    83  LEU83       0.1561
    107  C         12.7720  -30.4010   25.4520 C.2    83  LEU83       0.2260
    108  O         13.8900  -30.7640   25.0620 O.2    83  LEU83      -0.2867
    109  CB        11.1540  -30.0740   23.6130 C.3    83  LEU83       0.0270
    110  CG        10.3340  -29.2180   22.6620 C.3    83  LEU83       0.0019
    111  CD1        9.6900  -30.1160   21.6280 C.3    83  LEU83       0.0001
    112  CD2        9.2660  -28.4890   23.4590 C.3    83  LEU83       0.0001
    113  N         13.3270  -34.0430   25.8980 N.3    85  ASN85      -0.1240
    114  CA        13.0760  -35.2160   25.0820 C.3    85  ASN85       0.1653
    115  C         13.7690  -36.4180   25.6970 C.2    85  ASN85       0.2266
    116  O         14.6420  -36.2930   26.5620 O.2    85  ASN85      -0.2867
    117  CB        13.5630  -35.0150   23.6430 C.3    85  ASN85       0.1155
    118  CG        12.5300  -34.3510   22.7570 C.2    85  ASN85       0.2627
    119  OD1       12.7600  -34.1910   21.5570 O.2    85  ASN85      -0.2716
    120  ND2       11.3840  -33.9640   23.3350 N.am   85  ASN85      -0.0877
    121  N         16.4760  -30.7870   23.7470 N.3    95  ASN95      -0.1240
    122  CA        16.4420  -30.7080   22.2930 C.3    95  ASN95       0.1653
    123  C         16.0020  -29.3040   21.9020 C.2    95  ASN95       0.2266
    124  O         14.8510  -28.9090   22.1490 O.2    95  ASN95      -0.2867
    125  CB        15.5100  -31.7800   21.7350 C.3    95  ASN95       0.1155
    126  CG        15.3100  -31.6770   20.2470 C.2    95  ASN95       0.2627
    127  OD1       15.8580  -30.7940   19.5890 O.2    95  ASN95      -0.2716
    128  ND2       14.4970  -32.5740   19.7050 N.am   95  ASN95      -0.0877
    129  N         14.7710  -27.4170   19.0280 N.3    97  LEU97      -0.1245
    130  CA        14.0290  -27.8850   17.8670 C.3    97  LEU97       0.1561
    131  C         13.5740  -26.6790   17.0570 C.2    97  LEU97       0.2260
    132  O         12.8620  -25.8170   17.5790 O.2    97  LEU97      -0.2867
    133  CB        12.7990  -28.6970   18.3090 C.3    97  LEU97       0.0270
    134  CG        11.7810  -28.9450   17.1990 C.3    97  LEU97       0.0019
    135  CD1       12.3580  -29.9400   16.2010 C.3    97  LEU97       0.0001
    136  CD2       10.4290  -29.4240   17.7570 C.3    97  LEU97       0.0001
    137  N         11.4340  -25.7290   13.5180 N.3    99  ILE99      -0.1245
    138  CA        10.5070  -26.2360   12.5100 C.3    99  ILE99       0.1561
    139  C         10.2570  -25.1480   11.4710 C.2    99  ILE99       0.2260
    140  O          9.9500  -24.0030   11.8210 O.2    99  ILE99      -0.2867
    141  CB         9.1660  -26.6840   13.1220 C.3    99  ILE99       0.0252
    142  CG1        9.3650  -27.8110   14.1570 C.3    99  ILE99       0.0019
    143  CG2        8.2770  -27.1500   12.0210 C.3    99  ILE99       0.0019
    144  CD1        8.1530  -27.9370   15.1560 C.3    99  ILE99       0.0001
    145  N          7.2650  -30.1530    6.5310 N.3   112  PHE112     -0.1227
    146  CA         7.8330  -29.4680    7.6750 C.3   112  PHE112      0.1736
    147  C          9.2210  -30.0270    7.9200 C.2   112  PHE112      0.2595
    148  O          9.3890  -31.2370    8.1080 O.2   112  PHE112     -0.2718
    149  CB         6.9140  -29.6410    8.8860 C.3   112  PHE112      0.0547
    150  CG         5.5410  -29.1020    8.6450 C.ar  112  PHE112     -0.0202
    151  CD1        4.5840  -29.8750    8.0240 C.ar  112  PHE112     -0.0042
    152  CD2        5.2340  -27.7890    8.9610 C.ar  112  PHE112     -0.0042
    153  CE1        3.3070  -29.3600    7.7690 C.ar  112  PHE112     -0.0003
    154  CE2        3.9610  -27.2730    8.7070 C.ar  112  PHE112     -0.0003
    155  CZ         3.0090  -28.0580    8.1160 C.ar  112  PHE112     -0.0000
    156  N         10.2040  -29.1430    7.9270 N.am  113  ILE113     -0.1966
    157  CA        11.5930  -29.5200    8.1840 C.3   113  ILE113      0.1727
    158  C         11.8860  -29.2860    9.6520 C.2   113  ILE113      0.2616
    159  O         11.6490  -28.1860   10.1650 O.2   113  ILE113     -0.2715
    160  CB        12.5620  -28.7310    7.3040 C.3   113  ILE113      0.0290
    161  CG1       12.3290  -29.0730    5.8300 C.3   113  ILE113      0.0022
    162  CG2       14.0400  -29.0290    7.7480 C.3   113  ILE113      0.0023
    163  CD1       12.9090  -28.0660    4.9210 C.3   113  ILE113      0.0001
    164  N         12.2570  -30.3520   10.3580 N.am  114  GLY114     -0.1955
    165  CA        12.7300  -30.2380   11.7210 C.3   114  GLY114      0.1869
    166  C         14.2410  -30.3350   11.8170 C.2   114  GLY114      0.2309
    167  O         14.8600  -31.1740   11.1730 O.2   114  GLY114     -0.2863
    168  N         17.0290  -30.7910   15.0120 N.3   116  GLN116     -0.1245
    169  CA        17.1880  -31.0950   16.4320 C.3   116  GLN116      0.1566
    170  C         18.6440  -30.9260   16.8210 C.2   116  GLN116      0.2260
    171  O         19.5080  -31.6750   16.3500 O.2   116  GLN116     -0.2867
    172  CB        16.7340  -32.5160   16.7560 C.3   116  GLN116      0.0367
    173  CG        15.2410  -32.7290   16.5500 C.3   116  GLN116      0.0905
    174  CD        14.9120  -33.2780   15.1960 C.2   116  GLN116      0.2608
    175  OE1       15.7990  -33.6160   14.4020 O.2   116  GLN116     -0.2717
    176  NE2       13.6230  -33.3270   14.8920 N.am  116  GLN116     -0.0878
@<TRIPOS>BOND
     1   163   161    1
     2   161   160    1
     3   145   146    1
     4    11    10    2
     5   160   162    1
     6   160   157    1
     7    10     9    1
     8   146   147    1
     9   146   149    1
    10   153   151   ar
    11   153   155   ar
    12     8     9    1
    13   147   156   am
    14   147   148    2
    15   156   157    1
    16   151   150   ar
    17   155   154   ar
    18   157   158    1
    19     9    12    1
    20   150   149    1
    21   150   152   ar
    22     4     3    2
    23     3     2    1
    24   154   152   ar
    25     2     1    1
    26     2     5    1
    27   158   159    2
    28   158   164   am
    29    27    25    1
    30   164   165    1
    31     5     7    1
    32     5     6    1
    33   167   166    2
    34   100    99    2
    35    22    23    1
    36    22    25    1
    37    22    21    1
    38   139   140    2
    39   139   138    1
    40    23    24    2
    41    25    26    1
    42   165   166    1
    43   104   103    1
    44   143   141    1
    45   138   141    1
    46   138   137    1
    47    99    98    1
    48   103   102    1
    49   141   142    1
    50    98   101    1
    51    98    97    1
    52    13    14    1
    53   101   102    1
    54   142   144    1
    55    14    15    1
    56    14    17    1
    57    28    29    1
    58   175   174    2
    59    15    16    2
    60    41    40    1
    61    29    32    1
    62    29    30    1
    63   176   174   am
    64   168   169    1
    65    19    18   ar
    66    35    33   ar
    67   174   173    1
    68    32    33    1
    69    17    18    1
    70    18    20   ar
    71    36    30   am
    72    36    37    1
    73    30    31    2
    74    33    34   ar
    75   135   134    1
    76    89    88    2
    77    40    37    1
    78   171   170    2
    79   169   172    1
    80   169   170    1
    81   173   172    1
    82    37    38    1
    83    81    80    2
    84   131   132    2
    85   131   130    1
    86   134   136    1
    87   134   133    1
    88    88    87    1
    89    84    82    1
    90    52    50    1
    91    51    50    1
    92    80    79    1
    93    80    86   am
    94   130   133    1
    95   130   129    1
    96    87    86    1
    97    87    90    1
    98    38    42   am
    99    38    39    2
   100    50    49    2
   101    42    43    1
   102    79    82    1
   103    79    78    1
   104    91    90    1
   105    91    92    1
   106    59    58    1
   107    82    83    1
   108    83    85    1
   109    49    48    1
   110   127   126    2
   111    58    60    1
   112    58    57    1
   113    92    93    1
   114   128   126   am
   115    47    46    1
   116    47    48    1
   117    43    46    1
   118    43    44    1
   119   126   125    1
   120    93    94    2
   121    44    45    2
   122    57    54    1
   123    73    72    2
   124    53    54    1
   125   119   118    2
   126   111   110    1
   127    69    67   am
   128   125   122    1
   129    54    55    1
   130   123   124    2
   131   123   122    1
   132    94    95    1
   133    94    96    1
   134   122   121    1
   135    72    71    1
   136   110   112    1
   137   110   109    1
   138   118   120   am
   139   118   117    1
   140    76    74    1
   141    67    68    2
   142    67    66    1
   143    71    74    1
   144    71    70    1
   145    55    61   am
   146    55    56    2
   147    61    62    1
   148   109   106    1
   149    74    75    1
   150   117   114    1
   151    66    65    1
   152    75    77    1
   153   105   106    1
   154    65    62    1
   155   106   107    1
   156    62    63    1
   157   108   107    2
   158   114   115    1
   159   114   113    1
   160   115   116    2
   161    63    64    2
