@<TRIPOS>MOLECULE
tmp/6gggA00.pdb
 227 213 0 0 0
SMALL
GASTEIGER

@<TRIPOS>ATOM
      1  N        -35.7520   -4.2420    0.4830 N.3    15  LEU15      -0.1231
      2  CA       -35.5500   -2.8890    1.0000 C.3    15  LEU15       0.1693
      3  C        -34.1150   -2.4100    0.6890 C.2    15  LEU15       0.2591
      4  O        -33.9480   -1.2990    0.1950 O.2    15  LEU15      -0.2718
      5  CB       -35.8280   -2.8340    2.5130 C.3    15  LEU15       0.0284
      6  CG       -35.5090   -1.5190    3.2270 C.3    15  LEU15       0.0019
      7  CD1      -36.2470   -0.3260    2.6000 C.3    15  LEU15       0.0001
      8  CD2      -35.8170   -1.6290    4.7120 C.3    15  LEU15       0.0001
      9  N        -33.1010   -3.2540    0.9360 N.am   16  LEU16      -0.1980
     10  CA       -31.7010   -2.8760    0.6660 C.3    16  LEU16       0.1596
     11  C        -31.4610   -2.5900   -0.8190 C.2    16  LEU16       0.2287
     12  O        -30.7950   -1.6060   -1.1510 O.2    16  LEU16      -0.2864
     13  CB       -30.7200   -3.9320    1.2190 C.3    16  LEU16       0.0297
     14  CG       -30.7250   -4.0680    2.7760 C.3    16  LEU16       0.0022
     15  CD1      -29.8330   -5.1900    3.2250 C.3    16  LEU16       0.0001
     16  CD2      -30.3630   -2.7190    3.4740 C.3    16  LEU16       0.0001
     17  N        -32.9330    0.7960   -1.5320 N.3    19  LEU19      -0.1231
     18  CA       -32.0460    1.8280   -0.9790 C.3    19  LEU19       0.1693
     19  C        -30.7770    1.9870   -1.8170 C.2    19  LEU19       0.2592
     20  O        -30.3580    3.1040   -2.0620 O.2    19  LEU19      -0.2718
     21  CB       -31.6700    1.4640    0.4680 C.3    19  LEU19       0.0284
     22  CG       -32.7950    1.6450    1.4790 C.3    19  LEU19       0.0019
     23  CD1      -32.3750    1.0720    2.8340 C.3    19  LEU19       0.0001
     24  CD2      -33.1450    3.1200    1.6180 C.3    19  LEU19       0.0001
     25  N        -30.1990    0.8880   -2.3270 N.am   20  ASN20      -0.1974
     26  CA       -28.9690    0.9680   -3.1350 C.3    20  ASN20       0.1688
     27  C        -29.1870    1.6770   -4.4610 C.2    20  ASN20       0.2292
     28  O        -28.3710    2.5140   -4.8520 O.2    20  ASN20      -0.2864
     29  CB       -28.3480   -0.4100   -3.3140 C.3    20  ASN20       0.1181
     30  CG       -27.8540   -0.9790   -2.0040 C.2    20  ASN20       0.2629
     31  OD1      -27.6460   -0.2520   -1.0300 O.2    20  ASN20      -0.2716
     32  ND2      -27.7010   -2.2920   -1.9400 N.am   20  ASN20      -0.0877
     33  N        -31.5960    3.8420   -4.9820 N.3    22  LEU22      -0.1231
     34  CA       -31.8020    5.2350   -4.5690 C.3    22  LEU22       0.1693
     35  C        -30.4540    5.9300   -4.2740 C.2    22  LEU22       0.2591
     36  O        -30.2110    7.0330   -4.7740 O.2    22  LEU22      -0.2718
     37  CB       -32.7720    5.2940   -3.3760 C.3    22  LEU22       0.0284
     38  CG       -33.0430    6.6890   -2.7870 C.3    22  LEU22       0.0019
     39  CD1      -33.6260    7.6260   -3.8490 C.3    22  LEU22       0.0001
     40  CD2      -33.9840    6.5830   -1.5540 C.3    22  LEU22       0.0001
     41  N        -29.5600    5.2620   -3.5200 N.am   23  ALA23      -0.1980
     42  CA       -28.2160    5.7880   -3.1820 C.3    23  ALA23       0.1597
     43  C        -27.4070    6.0980   -4.4510 C.2    23  ALA23       0.2287
     44  O        -26.7670    7.1470   -4.5190 O.2    23  ALA23      -0.2864
     45  CB       -27.4720    4.7810   -2.3170 C.3    23  ALA23       0.0319
     46  N        -28.8650    9.2980   -5.8880 N.3    26  GLN26      -0.1245
     47  CA       -28.4420   10.4070   -5.0250 C.3    26  GLN26       0.1566
     48  C        -26.9680   10.7390   -5.2800 C.2    26  GLN26       0.2260
     49  O        -26.5990   11.9130   -5.2630 O.2    26  GLN26      -0.2867
     50  CB       -28.6220   10.0290   -3.5490 C.3    26  GLN26       0.0367
     51  CG       -30.1180    9.9320   -3.1350 C.3    26  GLN26       0.0905
     52  CD       -30.2450    9.4510   -1.7090 C.2    26  GLN26       0.2608
     53  OE1      -29.2630    9.0480   -1.0730 O.2    26  GLN26      -0.2717
     54  NE2      -31.4620    9.4420   -1.1730 N.am   26  GLN26      -0.0878
     55  N        -18.6530    9.0180    0.4860 N.3    56  TRP56      -0.1227
     56  CA       -19.9980    8.9130   -0.0850 C.3    56  TRP56       0.1737
     57  C        -21.0830    8.5570    0.9470 C.2    56  TRP56       0.2595
     58  O        -22.1340    9.2090    0.9770 O.2    56  TRP56      -0.2718
     59  CB       -20.0140    7.9530   -1.2830 C.3    56  TRP56       0.0564
     60  CG       -19.8900    6.5050   -0.9230 C.ar   56  TRP56       0.0003
     61  CD1      -18.7430    5.8050   -0.6860 C.ar   56  TRP56       0.0946
     62  CD2      -20.9660    5.5750   -0.7920 C.ar   56  TRP56       0.0152
     63  NE1      -19.0420    4.4830   -0.4350 N.ar   56  TRP56      -0.2442
     64  CE2      -20.4020    4.3180   -0.4780 C.ar   56  TRP56       0.0810
     65  CE3      -22.3700    5.6810   -0.9130 C.ar   56  TRP56       0.0012
     66  CZ2      -21.1860    3.1750   -0.2710 C.ar   56  TRP56       0.0191
     67  CZ3      -23.1450    4.5340   -0.7460 C.ar   56  TRP56       0.0001
     68  CH2      -22.5570    3.3040   -0.4140 C.ar   56  TRP56       0.0015
     69  N        -20.8290    7.5390    1.7860 N.am   57  MET57      -0.1979
     70  CA       -21.8440    7.1210    2.7820 C.3    57  MET57       0.1605
     71  C        -22.0990    8.2390    3.8140 C.2    57  MET57       0.2287
     72  O        -23.2330    8.4110    4.2450 O.2    57  MET57      -0.2864
     73  CB       -21.4380    5.8080    3.4890 C.3    57  MET57       0.0413
     74  CG       -22.5400    5.2140    4.3830 C.3    57  MET57       0.0598
     75  SD       -23.9880    4.5980    3.4970 S.3    57  MET57      -0.1393
     76  CE       -23.3540    2.9190    2.9530 C.3    57  MET57       0.0692
     77  N        -24.3180   10.8350    2.1110 N.3    60  LEU60      -0.1231
     78  CA       -25.7110   10.3760    2.0370 C.3    60  LEU60       0.1693
     79  C        -26.4220   10.3220    3.4050 C.2    60  LEU60       0.2592
     80  O        -27.6340   10.5820    3.4740 O.2    60  LEU60      -0.2718
     81  CB       -25.8240    8.9830    1.3760 C.3    60  LEU60       0.0284
     82  CG       -25.3590    8.9050   -0.0880 C.3    60  LEU60       0.0019
     83  CD1      -25.7040    7.5350   -0.6670 C.3    60  LEU60       0.0001
     84  CD2      -25.9270   10.0620   -0.9400 C.3    60  LEU60       0.0001
     85  N        -25.6820    9.9620    4.4700 N.am   61  SER61      -0.1952
     86  CA       -26.2110    9.8600    5.8400 C.3    61  SER61       0.1924
     87  C        -26.5910   11.2340    6.3500 C.2    61  SER61       0.2314
     88  O        -27.6630   11.4080    6.9340 O.2    61  SER61      -0.2863
     89  CB       -25.1620    9.2650    6.7710 C.3    61  SER61       0.2116
     90  OG       -24.8830    7.9240    6.4250 O.3    61  SER61      -0.2180
     91  N        -29.6060   12.4590    4.5520 N.3    64  LEU64      -0.1245
     92  CA       -30.7820   11.7430    5.0970 C.3    64  LEU64       0.1561
     93  C        -31.2340   12.3990    6.4230 C.2    64  LEU64       0.2260
     94  O        -32.4420   12.6290    6.6130 O.2    64  LEU64      -0.2867
     95  CB       -30.4680   10.2460    5.3200 C.3    64  LEU64       0.0270
     96  CG       -31.5260    9.4350    6.0900 C.3    64  LEU64       0.0019
     97  CD1      -32.8900    9.4160    5.3600 C.3    64  LEU64       0.0001
     98  CD2      -31.0290    8.0470    6.3590 C.3    64  LEU64       0.0001
     99  N        -33.0410   15.7050    5.5630 N.3    67  ARG67      -0.1245
    100  CA       -34.4060   15.4430    5.0650 C.3    67  ARG67       0.1563
    101  C        -35.3480   15.0300    6.1940 C.2    67  ARG67       0.2260
    102  O        -36.4860   15.4890    6.2530 O.2    67  ARG67      -0.2867
    103  CB       -34.4000   14.3500    3.9890 C.3    67  ARG67       0.0307
    104  CG       -33.7290   14.8430    2.6800 C.3    67  ARG67       0.0489
    105  CD       -33.9770   13.8840    1.5110 C.3    67  ARG67       0.2205
    106  NE       -33.6070   12.4890    1.8030 N.pl3  67  ARG67      -0.0865
    107  CZ       -32.3880   11.9760    1.6390 C.cat  67  ARG67       0.5346
    108  NH1      -31.3790   12.7510    1.2580 N.pl3  67  ARG67       0.1354
    109  NH2      -32.1600   10.6900    1.9010 N.pl3  67  ARG67       0.1354
    110  N        -37.0850    8.3940    9.3370 N.3    77  LEU77      -0.1245
    111  CA       -35.9870    8.5620    8.3760 C.3    77  LEU77       0.1561
    112  C        -36.6370    8.7630    7.0040 C.2    77  LEU77       0.2260
    113  O        -37.3320    7.8660    6.4940 O.2    77  LEU77      -0.2867
    114  CB       -35.0760    7.3280    8.3750 C.3    77  LEU77       0.0270
    115  CG       -34.4250    6.9780    9.7260 C.3    77  LEU77       0.0019
    116  CD1      -33.5740    5.7440    9.5800 C.3    77  LEU77       0.0001
    117  CD2      -33.6200    8.1600   10.2690 C.3    77  LEU77       0.0001
    118  N        -36.1090    8.7880    3.6490 N.3    79  PHE79      -0.1241
    119  CA       -35.2000    8.3880    2.5480 C.3    79  PHE79       0.1605
    120  C        -35.5650    9.0820    1.2320 C.2    79  PHE79       0.2264
    121  O        -34.6970    9.6180    0.5260 O.2    79  PHE79      -0.2867
    122  CB       -35.2240    6.8630    2.3760 C.3    79  PHE79       0.0534
    123  CG       -34.5850    6.1620    3.5470 C.ar   79  PHE79      -0.0203
    124  CD1      -33.2040    5.9980    3.6120 C.ar   79  PHE79      -0.0042
    125  CD2      -35.3580    5.6860    4.5990 C.ar   79  PHE79      -0.0042
    126  CE1      -32.6180    5.3350    4.6920 C.ar   79  PHE79      -0.0003
    127  CE2      -34.7660    5.0550    5.6890 C.ar   79  PHE79      -0.0003
    128  CZ       -33.4020    4.8870    5.7310 C.ar   79  PHE79      -0.0000
    129  N        -39.6570    5.7830    7.1090 N.3    85  PHE85      -0.1241
    130  CA       -39.8810    4.8440    8.2210 C.3    85  PHE85       0.1605
    131  C        -38.7990    5.0380    9.2930 C.2    85  PHE85       0.2264
    132  O        -37.8130    5.7170    9.0500 O.2    85  PHE85      -0.2867
    133  CB       -39.8780    3.3710    7.6980 C.3    85  PHE85       0.0534
    134  CG       -38.5720    2.9120    7.0670 C.ar   85  PHE85      -0.0203
    135  CD1      -37.5680    2.3330    7.8430 C.ar   85  PHE85      -0.0042
    136  CD2      -38.3510    3.0530    5.6970 C.ar   85  PHE85      -0.0042
    137  CE1      -36.3610    1.9180    7.2630 C.ar   85  PHE85      -0.0003
    138  CE2      -37.1440    2.6420    5.1150 C.ar   85  PHE85      -0.0003
    139  CZ       -36.1640    2.0570    5.8980 C.ar   85  PHE85      -0.0000
    140  N        -38.1120   -2.1670   11.5830 N.3    90  MET90      -0.1245
    141  CA       -37.0340   -3.1470   11.4180 C.3    90  MET90       0.1570
    142  C        -37.1650   -4.3710   12.3300 C.2    90  MET90       0.2261
    143  O        -37.1940   -4.2350   13.5560 O.2    90  MET90      -0.2867
    144  CB       -35.6530   -2.5000   11.5740 C.3    90  MET90       0.0387
    145  CG       -35.3790   -1.3320   10.6110 C.3    90  MET90       0.0595
    146  SD       -35.2110   -1.7880    8.8510 S.3    90  MET90      -0.1393
    147  CE       -36.8400   -1.4260    8.2570 C.3    90  MET90       0.0692
    148  N        -30.2210   -4.1400   11.4350 N.3    95  MET95      -0.1245
    149  CA       -30.9540   -3.1180   10.6780 C.3    95  MET95       0.1570
    150  C        -31.7110   -2.1570   11.6060 C.2    95  MET95       0.2261
    151  O        -31.6970   -0.9360   11.3890 O.2    95  MET95      -0.2867
    152  CB       -31.8540   -3.7600    9.6310 C.3    95  MET95       0.0387
    153  CG       -31.0550   -4.3070    8.4640 C.3    95  MET95       0.0595
    154  SD       -32.0480   -5.2470    7.3090 S.3    95  MET95      -0.1393
    155  CE       -32.7310   -3.9390    6.3270 C.3    95  MET95       0.0692
    156  N        -28.8890    0.1030   13.1570 N.3    98  LEU98      -0.1231
    157  CA       -28.4080    1.1230   12.2190 C.3    98  LEU98       0.1693
    158  C        -29.4530    2.2200   12.0460 C.2    98  LEU98       0.2592
    159  O        -29.0850    3.3860   12.0890 O.2    98  LEU98      -0.2718
    160  CB       -28.0450    0.4830   10.8770 C.3    98  LEU98       0.0284
    161  CG       -26.8680   -0.4940   10.9470 C.3    98  LEU98       0.0019
    162  CD1      -26.7300   -1.2370    9.6540 C.3    98  LEU98       0.0001
    163  CD2      -25.5660    0.2230   11.2710 C.3    98  LEU98       0.0001
    164  N        -30.7490    1.8630   11.9200 N.am   99  CYS99      -0.1970
    165  CA       -31.8120    2.8870   11.8290 C.3    99  CYS99       0.1712
    166  C        -31.8930    3.7390   13.0830 C.2    99  CYS99       0.2296
    167  O        -32.0650    4.9540   12.9870 O.2    99  CYS99      -0.2864
    168  CB       -33.1590    2.2560   11.5330 C.3    99  CYS99       0.0983
    169  SG       -33.3010    1.6240    9.8610 S.3    99  CYS99      -0.0798
    170  N        -29.0370    6.2300   13.1310 N.3   102  MET102     -0.1245
    171  CA       -29.3070    7.3120   12.1930 C.3   102  MET102      0.1570
    172  C        -30.3930    8.2440   12.8020 C.2   102  MET102      0.2261
    173  O        -30.2970    9.4730   12.7010 O.2   102  MET102     -0.2867
    174  CB       -29.7830    6.7220   10.8470 C.3   102  MET102      0.0387
    175  CG       -30.0120    7.7730    9.8040 C.3   102  MET102      0.0595
    176  SD       -28.4820    8.4000    9.1000 S.3   102  MET102     -0.1393
    177  CE       -28.2180    9.8860    9.9960 C.3   102  MET102      0.0692
    178  N        -22.5420    1.6880    9.1370 N.3   188  LEU188     -0.1245
    179  CA       -23.3100    1.5760    7.8820 C.3   188  LEU188      0.1561
    180  C        -22.4360    0.9580    6.7950 C.2   188  LEU188      0.2260
    181  O        -22.9070    0.0890    6.0600 O.2   188  LEU188     -0.2867
    182  CB       -23.7990    2.9640    7.4180 C.3   188  LEU188      0.0270
    183  CG       -24.8910    3.6320    8.2750 C.3   188  LEU188      0.0019
    184  CD1      -25.0960    5.0810    7.7980 C.3   188  LEU188      0.0001
    185  CD2      -26.2180    2.8840    8.1790 C.3   188  LEU188      0.0001
    186  N        -21.9660   -2.8210    7.1500 N.3   191  PHE191     -0.1227
    187  CA       -23.1500   -3.5350    6.6520 C.3   191  PHE191      0.1736
    188  C        -23.1460   -3.5590    5.1230 C.2   191  PHE191      0.2595
    189  O        -23.3540   -4.6090    4.5060 O.2   191  PHE191     -0.2718
    190  CB       -24.4320   -2.8690    7.1880 C.3   191  PHE191      0.0547
    191  CG       -25.7020   -3.6490    6.9120 C.ar  191  PHE191     -0.0202
    192  CD1      -25.7200   -5.0380    6.9940 C.ar  191  PHE191     -0.0042
    193  CD2      -26.8920   -2.9920    6.6360 C.ar  191  PHE191     -0.0042
    194  CE1      -26.9030   -5.7560    6.7640 C.ar  191  PHE191     -0.0003
    195  CE2      -28.0750   -3.7120    6.4050 C.ar  191  PHE191     -0.0003
    196  CZ       -28.0660   -5.0870    6.4550 C.ar  191  PHE191     -0.0000
    197  N        -22.8570   -2.4030    4.5210 N.am  192  CYS192     -0.1970
    198  CA       -22.7630   -2.2640    3.0800 C.3   192  CYS192      0.1712
    199  C        -21.6930   -3.1700    2.4530 C.2   192  CYS192      0.2296
    200  O        -21.9580   -3.8240    1.4410 O.2   192  CYS192     -0.2864
    201  CB       -22.5100   -0.8060    2.7350 C.3   192  CYS192      0.0983
    202  SG       -22.8430   -0.4400    1.0050 S.3   192  CYS192     -0.0798
    203  N        -23.1070   -6.8370    2.5340 N.3   195  THR195     -0.1218
    204  CA       -24.1260   -7.1630    1.5160 C.3   195  THR195      0.1862
    205  C        -23.5140   -7.0910    0.1130 C.2   195  THR195      0.2287
    206  O        -23.9490   -7.8150   -0.7700 O.2   195  THR195     -0.2866
    207  CB       -25.3560   -6.2950    1.6590 C.3   195  THR195      0.1770
    208  OG1      -24.9720   -4.9500    1.3840 O.3   195  THR195     -0.2211
    209  CG2      -26.0310   -6.4310    3.0630 C.3   195  THR195      0.0375
    210  N        -28.9360   -9.0670   -2.7030 N.3   204  VAL204     -0.1245
    211  CA       -28.9540   -7.6090   -2.5230 C.3   204  VAL204      0.1561
    212  C        -28.3370   -6.9890   -3.7820 C.2   204  VAL204      0.2260
    213  O        -27.1780   -7.2630   -4.0970 O.2   204  VAL204     -0.2867
    214  CB       -28.3050   -7.0700   -1.2220 C.3   204  VAL204      0.0252
    215  CG1      -28.2490   -5.5390   -1.2510 C.3   204  VAL204      0.0019
    216  CG2      -29.0740   -7.5550    0.0150 C.3   204  VAL204      0.0019
    217  N        -26.9960   -3.8720   -6.3350 N.3   206  PHE206     -0.1241
    218  CA       -26.2940   -2.5980   -6.3030 C.3   206  PHE206      0.1605
    219  C        -26.2870   -2.0000   -7.7200 C.2   206  PHE206      0.2264
    220  O        -26.0510   -2.7430   -8.6770 O.2   206  PHE206     -0.2867
    221  CB       -24.8430   -2.7720   -5.8090 C.3   206  PHE206      0.0534
    222  CG       -24.7040   -3.0020   -4.3220 C.ar  206  PHE206     -0.0203
    223  CD1      -24.8910   -4.2710   -3.7770 C.ar  206  PHE206     -0.0042
    224  CD2      -24.3720   -1.9560   -3.4690 C.ar  206  PHE206     -0.0042
    225  CE1      -24.7620   -4.4840   -2.4020 C.ar  206  PHE206     -0.0003
    226  CE2      -24.2570   -2.1690   -2.0900 C.ar  206  PHE206     -0.0003
    227  CZ       -24.4390   -3.4370   -1.5740 C.ar  206  PHE206     -0.0000
@<TRIPOS>BOND
     1   220   219    2
     2   219   218    1
     3   217   218    1
     4   218   221    1
     5    46    47    1
     6   221   222    1
     7    48    49    2
     8    48    47    1
     9    47    50    1
    10    33    34    1
    11    28    27    2
    12    36    35    2
    13    34    35    1
    14    34    37    1
    15    44    43    2
    16    27    26    1
    17    43    42    1
    18   222   223   ar
    19   222   224   ar
    20    35    41   am
    21   213   212    2
    22    39    38    1
    23   212   211    1
    24   223   225   ar
    25    50    51    1
    26    41    42    1
    27   224   226   ar
    28    37    38    1
    29    29    26    1
    30    29    30    1
    31    42    45    1
    32    26    25    1
    33    51    52    1
    34    38    40    1
    35   210   211    1
    36   211   214    1
    37   225   227   ar
    38    25    19   am
    39   226   227   ar
    40    20    19    2
    41    30    32   am
    42    30    31    2
    43    19    18    1
    44    52    54   am
    45    52    53    2
    46    17    18    1
    47    59    60    1
    48    59    56    1
    49   215   214    1
    50   214   216    1
    51    12    11    2
    52    18    21    1
    53    84    82    1
    54    60    62   ar
    55    60    61   ar
    56    65    62   ar
    57    65    67   ar
    58    11    10    1
    59    62    64   ar
    60   206   205    2
    61    67    68   ar
    62    61    63   ar
    63    83    82    1
    64    64    63   ar
    65    64    66   ar
    66    68    66   ar
    67    82    81    1
    68    56    55    1
    69    56    57    1
    70   205   204    1
    71     4     3    2
    72    21    22    1
    73     1     2    1
    74   121   120    2
    75    10     9    1
    76    10    13    1
    77     3     9   am
    78     3     2    1
    79    57    58    2
    80    57    69   am
    81     2     5    1
    82   202   201    1
    83    13    14    1
    84   120   119    1
    85   108   107    1
    86    81    78    1
    87   208   207    1
    88   200   199    2
    89    22    24    1
    90    22    23    1
    91   105   106    1
    92   105   104    1
    93   204   207    1
    94   204   203    1
    95   107   106    2
    96   107   109    1
    97   207   209    1
    98    69    70    1
    99    78    77    1
   100    78    79    1
   101   122   119    1
   102   122   123    1
   103   199   198    1
   104     5     6    1
   105   119   118    1
   106     7     6    1
   107   104   103    1
   108   201   198    1
   109    14    15    1
   110    14    16    1
   111    70    73    1
   112    70    71    1
   113    76    75    1
   114   198   197    1
   115     6     8    1
   116    79    80    2
   117    79    85   am
   118    73    74    1
   119    75    74    1
   120   123   124   ar
   121   123   125   ar
   122   124   126   ar
   123    71    72    2
   124   103   100    1
   125    85    86    1
   126   189   188    2
   127   197   188   am
   128    91    92    1
   129   125   127   ar
   130   126   128   ar
   131   100    99    1
   132   100   101    1
   133    92    95    1
   134    92    93    1
   135   138   136   ar
   136   138   139   ar
   137   188   187    1
   138    95    96    1
   139    97    96    1
   140   127   128   ar
   141   136   134   ar
   142    86    87    1
   143    86    89    1
   144   139   137   ar
   145   181   180    2
   146    96    98    1
   147   101   102    2
   148   155   154    1
   149    87    88    2
   150   195   196   ar
   151   195   193   ar
   152    93    94    2
   153    90    89    1
   154   196   194   ar
   155   113   112    2
   156   193   191   ar
   157   187   186    1
   158   187   190    1
   159   194   192   ar
   160   180   179    1
   161   191   192   ar
   162   191   190    1
   163   112   111    1
   164   134   133    1
   165   134   135   ar
   166   129   130    1
   167   137   135   ar
   168   154   153    1
   169   182   179    1
   170   182   183    1
   171   133   130    1
   172   184   183    1
   173   179   178    1
   174   185   183    1
   175   130   131    1
   176   147   146    1
   177   114   111    1
   178   114   115    1
   179   111   110    1
   180   153   152    1
   181   146   145    1
   182   132   131    2
   183   176   175    1
   184   176   177    1
   185   116   115    1
   186   152   149    1
   187   162   161    1
   188   115   117    1
   189   175   174    1
   190   169   168    1
   191   145   144    1
   192   149   148    1
   193   149   150    1
   194   174   171    1
   195   160   161    1
   196   160   157    1
   197   161   163    1
   198   151   150    2
   199   141   144    1
   200   141   140    1
   201   141   142    1
   202   168   165    1
   203   165   164    1
   204   165   166    1
   205   164   158   am
   206   158   159    2
   207   158   157    1
   208   171   172    1
   209   171   170    1
   210   157   156    1
   211   142   143    2
   212   173   172    2
   213   167   166    2
