@<TRIPOS>MOLECULE
tmp/6ggiB02.pdb
 169 162 0 0 0
SMALL
GASTEIGER

@<TRIPOS>ATOM
      1  N         -8.4590  -18.0130   48.3520 N.3    72  VAL72      -0.1245
      2  CA        -9.4150  -17.4440   47.4040 C.3    72  VAL72       0.1561
      3  C        -10.5760  -18.4080   47.2040 C.2    72  VAL72       0.2260
      4  O        -11.7340  -17.9890   47.1220 O.2    72  VAL72      -0.2867
      5  CB        -8.7380  -17.0580   46.0700 C.3    72  VAL72       0.0252
      6  CG1       -8.1800  -18.2610   45.3390 C.3    72  VAL72       0.0019
      7  CG2       -9.7170  -16.2550   45.1880 C.3    72  VAL72       0.0019
      8  N         -6.8500  -24.8770   41.8330 N.3    95  ASN95      -0.1240
      9  CA        -6.4790  -23.4750   41.9940 C.3    95  ASN95       0.1653
     10  C         -5.0440  -23.3390   42.4930 C.2    95  ASN95       0.2266
     11  O         -4.2610  -22.5440   41.9570 O.2    95  ASN95      -0.2867
     12  CB        -7.4420  -22.7950   42.9640 C.3    95  ASN95       0.1155
     13  CG        -6.9680  -21.4110   43.3770 C.2    95  ASN95       0.2627
     14  OD1       -7.2090  -20.4420   42.6590 O.2    95  ASN95      -0.2716
     15  ND2       -6.2930  -21.3060   44.5420 N.am   95  ASN95      -0.0877
     16  N         -2.1020  -24.5450   40.0420 N.3    98  THR98      -0.1203
     17  CA        -1.9010  -23.6350   38.9110 C.3    98  THR98       0.1994
     18  C         -1.4670  -22.2410   39.3650 C.2    98  THR98       0.2617
     19  O         -0.8440  -21.5190   38.5790 O.2    98  THR98      -0.2717
     20  CB        -3.1550  -23.5540   38.0270 C.3    98  THR98       0.1784
     21  OG1       -4.2590  -23.1220   38.7940 O.3    98  THR98      -0.2211
     22  CG2       -3.4690  -24.9130   37.3980 C.3    98  THR98       0.0376
     23  N         -1.7150  -21.8710   40.6350 N.am   99  PHE99      -0.1975
     24  CA        -1.0770  -20.6680   41.1850 C.3    99  PHE99       0.1639
     25  C          0.4400  -20.8130   41.2240 C.2    99  PHE99       0.2290
     26  O          1.1750  -19.8560   40.9540 O.2    99  PHE99      -0.2864
     27  CB        -1.5750  -20.3920   42.5990 C.3    99  PHE99       0.0560
     28  CG        -2.5270  -19.2190   42.7280 C.ar   99  PHE99      -0.0200
     29  CD1       -2.0970  -17.9150   42.4680 C.ar   99  PHE99      -0.0042
     30  CD2       -3.8030  -19.4200   43.2010 C.ar   99  PHE99      -0.0042
     31  CE1       -2.9710  -16.8340   42.6470 C.ar   99  PHE99      -0.0003
     32  CE2       -4.6690  -18.3700   43.4000 C.ar   99  PHE99      -0.0003
     33  CZ        -4.2550  -17.0770   43.1460 C.ar   99  PHE99      -0.0000
     34  N          1.6650  -20.2120   37.8590 N.3   102  ASP102     -0.1239
     35  CA         1.6420  -18.7610   37.6190 C.3   102  ASP102      0.1674
     36  C          2.8770  -18.0710   38.1900 C.2   102  ASP102      0.2266
     37  O          3.3970  -17.1220   37.5890 O.2   102  ASP102     -0.2867
     38  CB         0.3650  -18.1740   38.2510 C.3   102  ASP102      0.1410
     39  CG         0.1670  -16.7070   37.9500 C.2   102  ASP102      0.3668
     40  OD1       -0.2680  -16.4220   36.8140 O.co2 102  ASP102     -0.2456
     41  OD2        0.4140  -15.8480   38.8470 O.co2 102  ASP102     -0.2456
     42  N         -5.5210  -23.2300   30.7270 N.3   141  PHE141     -0.1241
     43  CA        -4.9580  -22.1470   31.5340 C.3   141  PHE141      0.1605
     44  C         -3.4300  -22.2380   31.5960 C.2   141  PHE141      0.2264
     45  O         -2.7340  -21.2500   31.3380 O.2   141  PHE141     -0.2867
     46  CB        -5.5210  -22.1190   32.9740 C.3   141  PHE141      0.0534
     47  CG        -4.7680  -21.1580   33.8240 C.ar  141  PHE141     -0.0203
     48  CD1       -4.9830  -19.8050   33.6780 C.ar  141  PHE141     -0.0042
     49  CD2       -3.7190  -21.5850   34.6410 C.ar  141  PHE141     -0.0042
     50  CE1       -4.2220  -18.8850   34.3670 C.ar  141  PHE141     -0.0003
     51  CE2       -2.9520  -20.6710   35.3380 C.ar  141  PHE141     -0.0003
     52  CZ        -3.2060  -19.3140   35.2100 C.ar  141  PHE141     -0.0000
     53  N         -7.7900  -11.1720   29.9660 N.3   169  ARG169     -0.1245
     54  CA        -7.8480  -11.6820   31.3270 C.3   169  ARG169      0.1563
     55  C         -8.9610  -12.6770   31.5420 C.2   169  ARG169      0.2260
     56  O         -8.9550  -13.3760   32.5630 O.2   169  ARG169     -0.2867
     57  CB        -7.9680  -10.5040   32.3150 C.3   169  ARG169      0.0307
     58  CG        -6.6290   -9.7320   32.3600 C.3   169  ARG169      0.0489
     59  CD        -5.5740  -10.6120   33.0890 C.3   169  ARG169      0.2205
     60  NE        -5.2140   -9.9530   34.3640 N.pl3 169  ARG169     -0.0865
     61  CZ        -4.6900  -10.5880   35.4020 C.cat 169  ARG169      0.5346
     62  NH1       -4.4560  -11.8900   35.3170 N.pl3 169  ARG169      0.1354
     63  NH2       -4.4470   -9.9310   36.5500 N.pl3 169  ARG169      0.1354
     64  N         -6.6120  -15.3770   31.2690 N.3   172  ASP172     -0.1225
     65  CA        -5.3490  -15.2860   31.9790 C.3   172  ASP172      0.1805
     66  C         -5.5300  -15.1320   33.4840 C.2   172  ASP172      0.2598
     67  O         -4.6780  -15.5850   34.2400 O.2   172  ASP172     -0.2718
     68  CB        -4.5190  -14.1280   31.4380 C.3   172  ASP172      0.1424
     69  CG        -3.2230  -13.9730   32.2120 C.2   172  ASP172      0.3668
     70  OD1       -2.3110  -14.7940   31.9860 O.co2 172  ASP172     -0.2456
     71  OD2       -3.1370  -13.0770   33.0870 O.co2 172  ASP172     -0.2456
     72  N         -6.5940  -14.4780   33.9520 N.am  173  ILE173     -0.1966
     73  CA        -6.7890  -14.4540   35.4060 C.3   173  ILE173      0.1727
     74  C         -7.3540  -15.7650   35.9170 C.2   173  ILE173      0.2617
     75  O         -7.5340  -15.8960   37.1220 O.2   173  ILE173     -0.2715
     76  CB        -7.6820  -13.3100   35.9250 C.3   173  ILE173      0.0290
     77  CG1       -7.3680  -13.0270   37.4180 C.3   173  ILE173      0.0022
     78  CG2       -9.1930  -13.6110   35.7490 C.3   173  ILE173      0.0023
     79  CD1       -7.6310  -11.6550   37.8950 C.3   173  ILE173      0.0001
     80  N         -7.6330  -16.7360   35.0530 N.am  174  GLY174     -0.1940
     81  CA        -8.0580  -18.0510   35.5010 C.3   174  GLY174      0.2014
     82  C         -9.5380  -18.1960   35.7550 C.2   174  GLY174      0.2638
     83  O         -9.9700  -19.2720   36.1910 O.2   174  GLY174     -0.2714
     84  N        -10.3450  -17.1700   35.4560 N.am  175  VAL175     -0.1977
     85  CA       -11.7390  -17.2430   35.8850 C.3   175  VAL175      0.1596
     86  C        -12.5550  -18.1690   35.0020 C.2   175  VAL175      0.2287
     87  O        -13.5080  -18.7940   35.4690 O.2   175  VAL175     -0.2864
     88  CB       -12.3920  -15.8450   35.9820 C.3   175  VAL175      0.0276
     89  CG1      -12.4330  -15.1370   34.6390 C.3   175  VAL175      0.0022
     90  CG2      -13.7810  -15.9830   36.5860 C.3   175  VAL175      0.0022
     91  N        -11.4340  -20.9100   33.7150 N.3   177  PHE177     -0.1227
     92  CA       -11.0400  -22.1840   34.3100 C.3   177  PHE177      0.1736
     93  C        -11.8000  -22.3960   35.6220 C.2   177  PHE177      0.2595
     94  O        -12.4080  -23.4450   35.8490 O.2   177  PHE177     -0.2718
     95  CB        -9.5120  -22.1250   34.4830 C.3   177  PHE177      0.0547
     96  CG        -8.8860  -23.1840   35.3660 C.ar  177  PHE177     -0.0202
     97  CD1       -9.4430  -24.4420   35.5380 C.ar  177  PHE177     -0.0042
     98  CD2       -7.6590  -22.9120   35.9510 C.ar  177  PHE177     -0.0042
     99  CE1       -8.8220  -25.4020   36.3430 C.ar  177  PHE177     -0.0003
    100  CE2       -7.0240  -23.8750   36.7530 C.ar  177  PHE177     -0.0003
    101  CZ        -7.6190  -25.1120   36.9530 C.ar  177  PHE177     -0.0000
    102  N        -11.8340  -21.3650   36.4620 N.am  178  TRP178     -0.1976
    103  CA       -12.5420  -21.4330   37.7340 C.3   178  TRP178      0.1640
    104  C        -13.9950  -21.8540   37.5580 C.2   178  TRP178      0.2290
    105  O        -14.4900  -22.7280   38.2720 O.2   178  TRP178     -0.2864
    106  CB       -12.4680  -20.0590   38.3970 C.3   178  TRP178      0.0576
    107  CG       -13.2430  -19.9030   39.6640 C.ar  178  TRP178      0.0006
    108  CD1      -14.5980  -19.7270   39.7940 C.ar  178  TRP178      0.0946
    109  CD2      -12.6930  -19.7910   41.0000 C.ar  178  TRP178      0.0152
    110  NE1      -14.9160  -19.5390   41.1360 N.ar  178  TRP178     -0.2442
    111  CE2      -13.7680  -19.5730   41.8820 C.ar  178  TRP178      0.0810
    112  CE3      -11.3940  -19.8380   41.5170 C.ar  178  TRP178      0.0012
    113  CZ2      -13.5890  -19.3920   43.2710 C.ar  178  TRP178      0.0191
    114  CZ3      -11.2180  -19.6670   42.9080 C.ar  178  TRP178      0.0001
    115  CH2      -12.3140  -19.4500   43.7520 C.ar  178  TRP178      0.0015
    116  N        -14.4290  -25.5610   36.4860 N.3   181  MET181     -0.1245
    117  CA       -14.1490  -26.5780   37.4920 C.3   181  MET181      0.1570
    118  C        -15.0140  -26.4280   38.7370 C.2   181  MET181      0.2261
    119  O        -15.0400  -27.3510   39.5600 O.2   181  MET181     -0.2867
    120  CB       -12.6660  -26.5530   37.9040 C.3   181  MET181      0.0387
    121  CG       -12.1810  -25.2270   38.5590 C.3   181  MET181      0.0595
    122  SD       -10.5630  -25.4700   39.3510 S.3   181  MET181     -0.1393
    123  CE        -9.9300  -23.7910   39.4180 C.3   181  MET181      0.0692
    124  N        -13.0510   -9.2740   39.2610 N.3   208  LEU208     -0.1245
    125  CA       -11.8810   -9.9700   39.8060 C.3   208  LEU208      0.1561
    126  C        -10.5970   -9.2450   39.4450 C.2   208  LEU208      0.2260
    127  O         -9.7180   -9.0530   40.2880 O.2   208  LEU208     -0.2867
    128  CB       -11.8160  -11.4050   39.2730 C.3   208  LEU208      0.0270
    129  CG       -12.8810  -12.3550   39.7750 C.3   208  LEU208      0.0019
    130  CD1      -12.8150  -13.6570   38.9710 C.3   208  LEU208      0.0001
    131  CD2      -12.6550  -12.6620   41.2500 C.3   208  LEU208      0.0001
    132  N         -7.6230   -7.5690   41.7410 N.3   212  ASN212     -0.1240
    133  CA        -6.3140   -8.2010   41.7570 C.3   212  ASN212      0.1653
    134  C         -5.2410   -7.2350   41.2960 C.2   212  ASN212      0.2266
    135  O         -4.1550   -7.1590   41.8920 O.2   212  ASN212     -0.2867
    136  CB        -6.3010   -9.4660   40.8640 C.3   212  ASN212      0.1155
    137  CG        -4.9730  -10.1210   40.8630 C.2   212  ASN212      0.2627
    138  OD1       -4.0760   -9.7120   40.1430 O.2   212  ASN212     -0.2716
    139  ND2       -4.8000  -11.1370   41.7310 N.am  212  ASN212     -0.0877
    140  N        -18.0960  -14.5850   44.3480 N.3   273  LEU273     -0.1245
    141  CA       -16.7840  -14.6840   43.7220 C.3   273  LEU273      0.1561
    142  C        -16.0880  -13.3280   43.7050 C.2   273  LEU273      0.2260
    143  O        -14.9280  -13.2100   44.1240 O.2   273  LEU273     -0.2867
    144  CB       -16.9260  -15.2350   42.2880 C.3   273  LEU273      0.0270
    145  CG       -15.6310  -15.2540   41.4570 C.3   273  LEU273      0.0019
    146  CD1      -14.4740  -15.9960   42.1260 C.3   273  LEU273      0.0001
    147  CD2      -15.8320  -15.8260   40.0190 C.3   273  LEU273      0.0001
    148  N        -13.2670  -12.5080   46.4700 N.3   277  ASN277     -0.1240
    149  CA       -11.8950  -12.2690   46.0310 C.3   277  ASN277      0.1653
    150  C        -11.3430  -10.9850   46.6420 C.2   277  ASN277      0.2266
    151  O        -10.1400  -10.8800   46.9160 O.2   277  ASN277     -0.2867
    152  CB       -11.8410  -12.2160   44.5070 C.3   277  ASN277      0.1155
    153  CG       -10.4700  -11.8800   43.9900 C.2   277  ASN277      0.2627
    154  OD1       -9.5490  -12.6870   44.0850 O.2   277  ASN277     -0.2716
    155  ND2      -10.3240  -10.6650   43.4350 N.am  277  ASN277     -0.0877
    156  N        -10.4720  -11.7160   50.4160 N.3   280  TRP280     -0.1241
    157  CA        -9.2590  -12.5190   50.4320 C.3   280  TRP280      0.1605
    158  C         -8.0360  -11.6960   50.0520 C.2   280  TRP280      0.2264
    159  O         -6.9980  -11.7550   50.7360 O.2   280  TRP280     -0.2867
    160  CB        -9.4340  -13.7140   49.4960 C.3   280  TRP280      0.0550
    161  CG        -8.1640  -14.4690   49.2270 C.ar  280  TRP280      0.0003
    162  CD1       -7.4720  -15.2620   50.1190 C.ar  280  TRP280      0.0946
    163  CD2       -7.4090  -14.4910   47.9970 C.ar  280  TRP280      0.0152
    164  NE1       -6.3580  -15.7860   49.5110 N.ar  280  TRP280     -0.2442
    165  CE2       -6.2970  -15.3380   48.2090 C.ar  280  TRP280      0.0810
    166  CE3       -7.5820  -13.8900   46.7370 C.ar  280  TRP280      0.0012
    167  CZ2       -5.3570  -15.6030   47.2210 C.ar  280  TRP280      0.0191
    168  CZ3       -6.6450  -14.1580   45.7360 C.ar  280  TRP280      0.0001
    169  CH2       -5.5390  -15.0080   45.9820 C.ar  280  TRP280      0.0015
@<TRIPOS>BOND
     1    53    54    1
     2    42    43    1
     3    64    65    1
     4    54    55    1
     5    54    57    1
     6    45    44    2
     7    68    65    1
     8    68    69    1
     9    43    44    1
    10    43    46    1
    11    55    56    2
    12    65    66    1
    13    70    69   ar
    14    69    71   ar
    15    57    58    1
    16    58    59    1
    17    46    47    1
    18    59    60    1
    19    66    72   am
    20    66    67    2
    21    48    47   ar
    22    48    50   ar
    23    91    92    1
    24    47    49   ar
    25    72    73    1
    26    92    95    1
    27    92    93    1
    28    60    61    2
    29    50    52   ar
    30    95    96    1
    31    89    88    1
    32    49    51   ar
    33    86    87    2
    34    86    85    1
    35    80    81    1
    36    80    74   am
    37    52    51   ar
    38    62    61    1
    39    96    97   ar
    40    96    98   ar
    41    61    63    1
    42    73    74    1
    43    73    76    1
    44    84    82   am
    45    84    85    1
    46    81    82    1
    47    97    99   ar
    48    93    94    2
    49    93   102   am
    50    78    76    1
    51    82    83    2
    52    85    88    1
    53    74    75    2
    54    76    77    1
    55    98   100   ar
    56    88    90    1
    57    99   101   ar
    58   102   103    1
    59   116   117    1
    60   100   101   ar
    61    40    39   ar
    62    22    20    1
    63    77    79    1
    64   117   120    1
    65   117   118    1
    66   104   103    1
    67   104   105    2
    68    37    36    2
    69    35    34    1
    70    35    36    1
    71    35    38    1
    72   103   106    1
    73   120   121    1
    74    39    38    1
    75    39    41   ar
    76    20    21    1
    77    20    17    1
    78   106   107    1
    79   121   122    1
    80    19    18    2
    81   118   119    2
    82    17    18    1
    83    17    16    1
    84   130   129    1
    85   124   125    1
    86   128   129    1
    87   128   125    1
    88   122   123    1
    89    18    23   am
    90   126   125    1
    91   126   127    2
    92   107   108   ar
    93   107   109   ar
    94   129   131    1
    95   108   110   ar
    96   147   145    1
    97   138   137    2
    98    23    24    1
    99   137   136    1
   100   137   139   am
   101   136   133    1
   102    26    25    2
   103   109   112   ar
   104   109   111   ar
   105   110   111   ar
   106    24    25    1
   107    24    27    1
   108   134   133    1
   109   134   135    2
   110   145   146    1
   111   145   144    1
   112   112   114   ar
   113   132   133    1
   114     8     9    1
   115   111   113   ar
   116    11    10    2
   117     9    10    1
   118     9    12    1
   119   144   141    1
   120    29    31   ar
   121    29    28   ar
   122    27    28    1
   123    31    33   ar
   124    14    13    2
   125    28    30   ar
   126   114   115   ar
   127    12    13    1
   128    33    32   ar
   129    30    32   ar
   130   113   115   ar
   131    13    15   am
   132   155   153   am
   133   142   141    1
   134   142   143    2
   135   141   140    1
   136   153   154    2
   137   153   152    1
   138   152   149    1
   139     7     5    1
   140     6     5    1
   141   168   169   ar
   142   168   166   ar
   143   169   167   ar
   144   149   148    1
   145   149   150    1
   146     5     2    1
   147   150   151    2
   148   166   163   ar
   149     4     3    2
   150     3     2    1
   151   167   165   ar
   152     2     1    1
   153   163   165   ar
   154   163   161   ar
   155   165   164   ar
   156   161   160    1
   157   161   162   ar
   158   160   157    1
   159   164   162   ar
   160   158   157    1
   161   158   159    2
   162   156   157    1
