@<TRIPOS>MOLECULE
tmp/6ggiB01.pdb
 110 103 0 0 0
SMALL
GASTEIGER

@<TRIPOS>ATOM
      1  N         -1.7150  -21.8710   40.6350 N.3    99  PHE99      -0.1241
      2  CA        -1.0770  -20.6680   41.1850 C.3    99  PHE99       0.1605
      3  C          0.4400  -20.8130   41.2240 C.2    99  PHE99       0.2264
      4  O          1.1750  -19.8560   40.9540 O.2    99  PHE99      -0.2867
      5  CB        -1.5750  -20.3920   42.5990 C.3    99  PHE99       0.0534
      6  CG        -2.5270  -19.2190   42.7280 C.ar   99  PHE99      -0.0203
      7  CD1       -2.0970  -17.9150   42.4680 C.ar   99  PHE99      -0.0042
      8  CD2       -3.8030  -19.4200   43.2010 C.ar   99  PHE99      -0.0042
      9  CE1       -2.9710  -16.8340   42.6470 C.ar   99  PHE99      -0.0003
     10  CE2       -4.6690  -18.3700   43.4000 C.ar   99  PHE99      -0.0003
     11  CZ        -4.2550  -17.0770   43.1460 C.ar   99  PHE99      -0.0000
     12  N          1.6650  -20.2120   37.8590 N.3   102  ASP102     -0.1239
     13  CA         1.6420  -18.7610   37.6190 C.3   102  ASP102      0.1674
     14  C          2.8770  -18.0710   38.1900 C.2   102  ASP102      0.2266
     15  O          3.3970  -17.1220   37.5890 O.2   102  ASP102     -0.2867
     16  CB         0.3650  -18.1740   38.2510 C.3   102  ASP102      0.1410
     17  CG         0.1670  -16.7070   37.9500 C.2   102  ASP102      0.3668
     18  OD1       -0.2680  -16.4220   36.8140 O.co2 102  ASP102     -0.2456
     19  OD2        0.4140  -15.8480   38.8470 O.co2 102  ASP102     -0.2456
     20  N         -7.7900  -11.1720   29.9660 N.3   169  ARG169     -0.1245
     21  CA        -7.8480  -11.6820   31.3270 C.3   169  ARG169      0.1563
     22  C         -8.9610  -12.6770   31.5420 C.2   169  ARG169      0.2260
     23  O         -8.9550  -13.3760   32.5630 O.2   169  ARG169     -0.2867
     24  CB        -7.9680  -10.5040   32.3150 C.3   169  ARG169      0.0307
     25  CG        -6.6290   -9.7320   32.3600 C.3   169  ARG169      0.0489
     26  CD        -5.5740  -10.6120   33.0890 C.3   169  ARG169      0.2205
     27  NE        -5.2140   -9.9530   34.3640 N.pl3 169  ARG169     -0.0865
     28  CZ        -4.6900  -10.5880   35.4020 C.cat 169  ARG169      0.5346
     29  NH1       -4.4560  -11.8900   35.3170 N.pl3 169  ARG169      0.1354
     30  NH2       -4.4470   -9.9310   36.5500 N.pl3 169  ARG169      0.1354
     31  N         -6.6120  -15.3770   31.2690 N.3   172  ASP172     -0.1225
     32  CA        -5.3490  -15.2860   31.9790 C.3   172  ASP172      0.1805
     33  C         -5.5300  -15.1320   33.4840 C.2   172  ASP172      0.2597
     34  O         -4.6780  -15.5850   34.2400 O.2   172  ASP172     -0.2718
     35  CB        -4.5190  -14.1280   31.4380 C.3   172  ASP172      0.1424
     36  CG        -3.2230  -13.9730   32.2120 C.2   172  ASP172      0.3668
     37  OD1       -2.3110  -14.7940   31.9860 O.co2 172  ASP172     -0.2456
     38  OD2       -3.1370  -13.0770   33.0870 O.co2 172  ASP172     -0.2456
     39  N         -6.5940  -14.4780   33.9520 N.am  173  ILE173     -0.1980
     40  CA        -6.7890  -14.4540   35.4060 C.3   173  ILE173      0.1595
     41  C         -7.3540  -15.7650   35.9170 C.2   173  ILE173      0.2287
     42  O         -7.5340  -15.8960   37.1220 O.2   173  ILE173     -0.2864
     43  CB        -7.6820  -13.3100   35.9250 C.3   173  ILE173      0.0276
     44  CG1       -7.3680  -13.0270   37.4180 C.3   173  ILE173      0.0022
     45  CG2       -9.1930  -13.6110   35.7490 C.3   173  ILE173      0.0022
     46  CD1       -7.6310  -11.6550   37.8950 C.3   173  ILE173      0.0001
     47  N         -7.6230   -7.5690   41.7410 N.3   212  ASN212     -0.1240
     48  CA        -6.3140   -8.2010   41.7570 C.3   212  ASN212      0.1653
     49  C         -5.2410   -7.2350   41.2960 C.2   212  ASN212      0.2266
     50  O         -4.1550   -7.1590   41.8920 O.2   212  ASN212     -0.2867
     51  CB        -6.3010   -9.4660   40.8640 C.3   212  ASN212      0.1155
     52  CG        -4.9730  -10.1210   40.8630 C.2   212  ASN212      0.2627
     53  OD1       -4.0760   -9.7120   40.1430 O.2   212  ASN212     -0.2716
     54  ND2       -4.8000  -11.1370   41.7310 N.am  212  ASN212     -0.0877
     55  N         -1.8780   -6.1840   43.3610 N.3   216  SER216     -0.1217
     56  CA        -0.6610   -6.8670   42.9230 C.3   216  SER216      0.1889
     57  C          0.2100   -5.9760   42.0520 C.2   216  SER216      0.2288
     58  O          1.2760   -6.4150   41.6020 O.2   216  SER216     -0.2866
     59  CB        -0.9930   -8.1960   42.1980 C.3   216  SER216      0.2089
     60  OG        -1.8210   -7.9770   41.0580 O.3   216  SER216     -0.2183
     61  N          4.1190   -5.5020   43.1830 N.3   219  ARG219     -0.1231
     62  CA         4.9160   -6.6940   42.9090 C.3   219  ARG219      0.1694
     63  C          5.1230   -6.8720   41.4090 C.2   219  ARG219      0.2591
     64  O          6.2470   -7.1010   40.9350 O.2   219  ARG219     -0.2718
     65  CB         4.2350   -7.9390   43.4930 C.3   219  ARG219      0.0321
     66  CG         4.7420   -9.2690   42.8420 C.3   219  ARG219      0.0489
     67  CD         4.1990  -10.5670   43.4720 C.3   219  ARG219      0.2205
     68  NE         2.7700  -10.5260   43.7740 N.pl3 219  ARG219     -0.0865
     69  CZ         1.7970  -10.9100   42.9470 C.cat 219  ARG219      0.5346
     70  NH1        2.0770  -11.3950   41.7500 N.pl3 219  ARG219      0.1354
     71  NH2        0.5320  -10.8390   43.3490 N.pl3 219  ARG219      0.1354
     72  N          4.0390   -6.7770   40.6440 N.am  220  GLU220     -0.1979
     73  CA         4.1490   -7.0200   39.2100 C.3   220  GLU220      0.1602
     74  C          5.0710   -6.0140   38.5240 C.2   220  GLU220      0.2287
     75  O          5.8710   -6.3940   37.6570 O.2   220  GLU220     -0.2864
     76  CB         2.7500   -7.0390   38.6040 C.3   220  GLU220      0.0415
     77  CG         2.0780   -8.3580   39.0540 C.3   220  GLU220      0.1163
     78  CD         0.6020   -8.4150   38.7850 C.2   220  GLU220      0.3649
     79  OE1        0.1090   -7.4660   38.1460 O.co2 220  GLU220     -0.2457
     80  OE2       -0.0590   -9.4120   39.1930 O.co2 220  GLU220     -0.2457
     81  N          0.9510   -7.4930   32.8460 N.3   227  THR227     -0.1218
     82  CA        -0.4720   -7.8420   32.8190 C.3   227  THR227      0.1862
     83  C         -1.1670   -7.1850   34.0220 C.2   227  THR227      0.2287
     84  O         -1.4520   -7.8160   35.0510 O.2   227  THR227     -0.2866
     85  CB        -0.6440   -9.3670   32.8010 C.3   227  THR227      0.1770
     86  OG1        0.0900   -9.9280   31.6800 O.3   227  THR227     -0.2211
     87  CG2       -2.1160   -9.7450   32.6450 C.3   227  THR227      0.0375
     88  N          0.1550  -12.2200   50.4270 N.3   286  ARG286     -0.1231
     89  CA         0.5160  -12.1860   49.0100 C.3   286  ARG286      0.1694
     90  C          0.3820  -10.8030   48.3990 C.2   286  ARG286      0.2592
     91  O          1.1680  -10.4320   47.5200 O.2   286  ARG286     -0.2718
     92  CB        -0.3590  -13.1700   48.2330 C.3   286  ARG286      0.0321
     93  CG        -0.1070  -13.1210   46.7150 C.3   286  ARG286      0.0489
     94  CD        -0.8230  -14.2520   45.9750 C.3   286  ARG286      0.2205
     95  NE        -0.4400  -14.2560   44.5660 N.pl3 286  ARG286     -0.0865
     96  CZ         0.6660  -14.8380   44.0810 C.cat 286  ARG286      0.5346
     97  NH1        1.5140  -15.4750   44.8960 N.pl3 286  ARG286      0.1354
     98  NH2        0.9240  -14.7980   42.7690 N.pl3 286  ARG286      0.1354
     99  N         -0.5980  -10.0220   48.8390 N.am  287  TYR287     -0.1976
    100  CA        -0.9110   -8.7500   48.2070 C.3   287  TYR287      0.1639
    101  C         -0.5180   -7.5480   49.0590 C.2   287  TYR287      0.2290
    102  O         -1.0960   -6.4710   48.8970 O.2   287  TYR287     -0.2864
    103  CB        -2.4050   -8.7210   47.8750 C.3   287  TYR287      0.0560
    104  CG        -2.7720   -9.8070   46.8790 C.ar  287  TYR287     -0.0198
    105  CD1       -2.4230   -9.6900   45.5260 C.ar  287  TYR287     -0.0009
    106  CD2       -3.4490  -10.9440   47.2910 C.ar  287  TYR287     -0.0009
    107  CE1       -2.7530  -10.7060   44.6100 C.ar  287  TYR287      0.0417
    108  CE2       -3.7800  -11.9500   46.4010 C.ar  287  TYR287      0.0417
    109  CZ        -3.4300  -11.8270   45.0650 C.ar  287  TYR287      0.1957
    110  OH        -3.7710  -12.8480   44.2060 O.3   287  TYR287     -0.2866
@<TRIPOS>BOND
     1    20    21    1
     2    31    32    1
     3    21    22    1
     4    21    24    1
     5    35    32    1
     6    35    36    1
     7    22    23    2
     8    86    85    1
     9    32    33    1
    10    37    36   ar
    11    36    38   ar
    12    24    25    1
    13    25    26    1
    14    87    85    1
    15    85    82    1
    16    82    81    1
    17    82    83    1
    18    26    27    1
    19    33    39   am
    20    33    34    2
    21    39    40    1
    22    83    84    2
    23    27    28    2
    24    29    28    1
    25    28    30    1
    26    40    41    1
    27    40    43    1
    28    45    43    1
    29    41    42    2
    30    43    44    1
    31    18    17   ar
    32    44    46    1
    33    15    14    2
    34    13    12    1
    35    13    14    1
    36    13    16    1
    37    75    74    2
    38    17    16    1
    39    17    19   ar
    40    79    78   ar
    41    74    73    1
    42    76    77    1
    43    76    73    1
    44    78    77    1
    45    78    80   ar
    46    73    72    1
    47    53    52    2
    48     1     2    1
    49    72    63   am
    50    52    51    1
    51    52    54   am
    52    51    48    1
    53    64    63    2
    54     4     3    2
    55    60    59    1
    56     2     3    1
    57     2     5    1
    58    49    48    1
    59    49    50    2
    60    63    62    1
    61    58    57    2
    62    47    48    1
    63    70    69    1
    64    57    56    1
    65    59    56    1
    66     7     9   ar
    67     7     6   ar
    68     5     6    1
    69     9    11   ar
    70     6     8   ar
    71    98    96    1
    72    66    67    1
    73    66    65    1
    74    62    61    1
    75    62    65    1
    76    56    55    1
    77    69    71    1
    78    69    68    2
    79    11    10   ar
    80     8    10   ar
    81    67    68    1
    82    96    95    2
    83    96    97    1
    84   110   109    1
    85    95    94    1
    86   107   109   ar
    87   107   105   ar
    88   109   108   ar
    89   105   104   ar
    90    94    93    1
    91   108   106   ar
    92    93    92    1
    93   104   106   ar
    94   104   103    1
    95    91    90    2
    96   103   100    1
    97   100    99    1
    98   100   101    1
    99    92    89    1
   100    90    99   am
   101    90    89    1
   102   102   101    2
   103    89    88    1
