@<TRIPOS>MOLECULE
tmp/6ggjB00.pdb
 160 151 0 0 0
SMALL
GASTEIGER

@<TRIPOS>ATOM
      1  N        144.3250   46.1490   71.4960 N.3    91  ASN91      -0.1240
      2  CA       145.2490   45.1500   72.0030 C.3    91  ASN91       0.1653
      3  C        145.3410   45.2180   73.5170 C.2    91  ASN91       0.2266
      4  O        145.3290   44.1820   74.1850 O.2    91  ASN91      -0.2867
      5  CB       146.6250   45.2980   71.3710 C.3    91  ASN91       0.1155
      6  CG       147.2810   43.9490   71.1290 C.2    91  ASN91       0.2627
      7  OD1      146.7390   43.1070   70.4060 O.2    91  ASN91      -0.2716
      8  ND2      148.4260   43.7230   71.7570 N.am   91  ASN91      -0.0877
      9  N        142.1030   43.7020   75.2180 N.3    94  THR94      -0.1203
     10  CA       141.9660   42.2540   75.0930 C.3    94  THR94       0.1994
     11  C        143.0550   41.5140   75.8600 C.2    94  THR94       0.2617
     12  O        142.8360   40.3650   76.2670 O.2    94  THR94      -0.2717
     13  CB       141.9540   41.8380   73.6160 C.3    94  THR94       0.1784
     14  OG1      143.0670   42.4240   72.9410 O.3    94  THR94      -0.2211
     15  CG2      140.6630   42.3120   72.9500 C.3    94  THR94       0.0376
     16  N        144.2190   42.1460   76.0650 N.am   95  PHE95      -0.1975
     17  CA       145.2060   41.6080   77.0000 C.3    95  PHE95       0.1639
     18  C        144.5860   41.4260   78.3800 C.2    95  PHE95       0.2290
     19  O        144.7190   40.3690   79.0080 O.2    95  PHE95      -0.2864
     20  CB       146.4140   42.5390   77.0940 C.3    95  PHE95       0.0560
     21  CG       147.6530   42.0260   76.4130 C.ar   95  PHE95      -0.0200
     22  CD1      148.4220   41.0220   76.9920 C.ar   95  PHE95      -0.0042
     23  CD2      148.0810   42.5840   75.2140 C.ar   95  PHE95      -0.0042
     24  CE1      149.5620   40.5580   76.3710 C.ar   95  PHE95      -0.0003
     25  CE2      149.2350   42.1350   74.5900 C.ar   95  PHE95      -0.0003
     26  CZ       149.9750   41.1230   75.1640 C.ar   95  PHE95      -0.0000
     27  N        142.5630   38.5390   78.3420 N.3    98  ASP98      -0.1239
     28  CA       143.3990   37.3440   78.3260 C.3    98  ASP98       0.1674
     29  C        143.8590   36.9800   79.7330 C.2    98  ASP98       0.2266
     30  O        143.7840   35.8170   80.1410 O.2    98  ASP98      -0.2867
     31  CB       144.5970   37.5800   77.4000 C.3    98  ASP98       0.1410
     32  CG       145.5010   36.3650   77.2670 C.2    98  ASP98       0.3668
     33  OD1      145.1570   35.4300   76.5100 O.co2  98  ASP98      -0.2456
     34  OD2      146.5760   36.3590   77.9000 O.co2  98  ASP98      -0.2456
     35  N        138.2450   36.9670   68.8580 N.3   137  PHE137     -0.1241
     36  CA       139.3920   36.7020   69.7220 C.3   137  PHE137      0.1605
     37  C        138.9770   36.5060   71.1790 C.2   137  PHE137      0.2264
     38  O        139.4020   35.5400   71.8290 O.2   137  PHE137     -0.2867
     39  CB       140.4170   37.8350   69.6410 C.3   137  PHE137      0.0534
     40  CG       141.4930   37.7150   70.6950 C.ar  137  PHE137     -0.0203
     41  CD1      142.5650   36.8500   70.5050 C.ar  137  PHE137     -0.0042
     42  CD2      141.4030   38.4210   71.8930 C.ar  137  PHE137     -0.0042
     43  CE1      143.5710   36.7090   71.4950 C.ar  137  PHE137     -0.0003
     44  CE2      142.3870   38.2890   72.8790 C.ar  137  PHE137     -0.0003
     45  CZ       143.4740   37.4290   72.6760 C.ar  137  PHE137     -0.0000
     46  N        147.0870   28.4060   67.6250 N.3   165  ARG165     -0.1245
     47  CA       147.6260   29.7190   67.9900 C.3   165  ARG165      0.1563
     48  C        147.3720   30.8170   66.9540 C.2   165  ARG165      0.2260
     49  O        147.4610   32.0000   67.3160 O.2   165  ARG165     -0.2867
     50  CB       149.1270   29.6110   68.2450 C.3   165  ARG165      0.0307
     51  CG       149.4260   28.9070   69.5730 C.3   165  ARG165      0.0489
     52  CD       148.8590   29.6980   70.7610 C.3   165  ARG165      0.2205
     53  NE       149.9420   30.1440   71.6480 N.pl3 165  ARG165     -0.0865
     54  CZ       149.8710   31.2100   72.4400 C.cat 165  ARG165      0.5346
     55  NH1      148.7590   31.9410   72.4870 N.pl3 165  ARG165      0.1354
     56  NH2      150.9170   31.5530   73.1920 N.pl3 165  ARG165      0.1354
     57  N        144.3760   32.0130   68.6700 N.3   168  ASP168     -0.1225
     58  CA       144.4260   32.1900   70.1260 C.3   168  ASP168      0.1805
     59  C        145.4620   33.2310   70.5540 C.2   168  ASP168      0.2598
     60  O        145.1760   34.0810   71.4030 O.2   168  ASP168     -0.2718
     61  CB       144.7000   30.8610   70.8280 C.3   168  ASP168      0.1424
     62  CG       144.9820   31.0510   72.3210 C.2   168  ASP168      0.3668
     63  OD1      144.0290   31.2090   73.1030 O.co2 168  ASP168     -0.2456
     64  OD2      146.1600   31.1140   72.7000 O.co2 168  ASP168     -0.2456
     65  N        146.6640   33.2070   69.9700 N.am  169  ILE169     -0.1966
     66  CA       147.6440   34.2230   70.3670 C.3   169  ILE169      0.1727
     67  C        147.2090   35.6200   69.9570 C.2   169  ILE169      0.2616
     68  O        147.7260   36.6070   70.4920 O.2   169  ILE169     -0.2715
     69  CB       149.0470   33.9290   69.8110 C.3   169  ILE169      0.0290
     70  CG1      150.0950   34.6370   70.6790 C.3   169  ILE169      0.0022
     71  CG2      149.1690   34.4160   68.3560 C.3   169  ILE169      0.0023
     72  CD1      151.4820   34.1130   70.5040 C.3   169  ILE169      0.0001
     73  N        146.2640   35.7340   69.0250 N.am  170  GLY170     -0.1955
     74  CA       145.7180   37.0120   68.6340 C.3   170  GLY170      0.1869
     75  C        146.2990   37.6370   67.3740 C.2   170  GLY170      0.2309
     76  O        145.9970   38.8000   67.0960 O.2   170  GLY170     -0.2863
     77  N        143.6250   38.5310   64.6770 N.3   173  PHE173     -0.1241
     78  CA       143.0220   39.7700   65.1570 C.3   173  PHE173      0.1605
     79  C        143.9400   40.9710   64.9100 C.2   173  PHE173      0.2264
     80  O        143.4780   42.0420   64.5000 O.2   173  PHE173     -0.2867
     81  CB       142.7000   39.5490   66.6370 C.3   173  PHE173      0.0534
     82  CG       142.3250   40.7620   67.4330 C.ar  173  PHE173     -0.0203
     83  CD1      141.5680   41.7870   66.9130 C.ar  173  PHE173     -0.0042
     84  CD2      142.6640   40.8090   68.7860 C.ar  173  PHE173     -0.0042
     85  CE1      141.2160   42.8680   67.7010 C.ar  173  PHE173     -0.0003
     86  CE2      142.2980   41.8840   69.5810 C.ar  173  PHE173     -0.0003
     87  CZ       141.5690   42.9150   69.0310 C.ar  173  PHE173     -0.0000
     88  N        157.1670   34.1170   72.2470 N.3   208  ASN208     -0.1240
     89  CA       156.3440   34.3570   73.4200 C.3   208  ASN208      0.1653
     90  C        156.2520   33.1200   74.2950 C.2   208  ASN208      0.2266
     91  O        156.1620   33.2320   75.5220 O.2   208  ASN208     -0.2867
     92  CB       154.9450   34.7960   73.0310 C.3   208  ASN208      0.1155
     93  CG       154.0400   34.8820   74.2310 C.2   208  ASN208      0.2627
     94  OD1      153.3190   33.9400   74.5370 O.2   208  ASN208     -0.2716
     95  ND2      154.0850   36.0110   74.9350 N.am  208  ASN208     -0.0877
     96  N        157.2600   33.2270   78.3100 N.3   212  SER212     -0.1217
     97  CA       156.1080   33.2070   79.2050 C.3   212  SER212      0.1889
     98  C        155.8370   31.8220   79.7630 C.2   212  SER212      0.2288
     99  O        154.8480   31.6390   80.4760 O.2   212  SER212     -0.2866
    100  CB       154.8530   33.7630   78.5050 C.3   212  SER212      0.2089
    101  OG       154.3910   32.9440   77.4340 O.3   212  SER212     -0.2183
    102  N        155.5550   31.7450   83.7300 N.3   215  ARG215     -0.1231
    103  CA       154.2960   32.2800   84.2390 C.3   215  ARG215      0.1694
    104  C        153.1330   31.3330   83.9620 C.2   215  ARG215      0.2591
    105  O        152.2850   31.1070   84.8380 O.2   215  ARG215     -0.2718
    106  CB       154.0250   33.6560   83.6310 C.3   215  ARG215      0.0321
    107  CG       152.7210   34.2640   84.0990 C.3   215  ARG215      0.0489
    108  CD       152.5070   35.6250   83.5040 C.3   215  ARG215      0.2205
    109  NE       151.7190   35.4450   82.3070 N.pl3 215  ARG215     -0.0865
    110  CZ       152.1060   35.7780   81.0920 C.cat 215  ARG215      0.5346
    111  NH1      153.2810   36.3550   80.8870 N.pl3 215  ARG215      0.1354
    112  NH2      151.2950   35.5330   80.0870 N.pl3 215  ARG215      0.1354
    113  N        153.0970   30.7330   82.7660 N.am  216  GLU216     -0.1979
    114  CA       151.9320   29.9440   82.3750 C.3   216  GLU216      0.1602
    115  C        151.8900   28.5900   83.0930 C.2   216  GLU216      0.2287
    116  O        150.8130   28.1390   83.5100 O.2   216  GLU216     -0.2864
    117  CB       151.9040   29.7920   80.8450 C.3   216  GLU216      0.0415
    118  CG       151.3440   31.0780   80.1500 C.3   216  GLU216      0.1163
    119  CD       151.7290   31.2480   78.6810 C.2   216  GLU216      0.3649
    120  OE1      152.2810   30.3110   78.0740 O.co2 216  GLU216     -0.2457
    121  OE2      151.4590   32.3360   78.1210 O.co2 216  GLU216     -0.2457
    122  N        148.3600   27.1270   82.8440 N.3   221  GLN221     -0.1245
    123  CA       147.9910   27.3730   81.4550 C.3   221  GLN221      0.1566
    124  C        148.7890   26.4580   80.5240 C.2   221  GLN221      0.2260
    125  O        150.0220   26.4400   80.5650 O.2   221  GLN221     -0.2867
    126  CB       148.2180   28.8470   81.1150 C.3   221  GLN221      0.0367
    127  CG       147.1170   29.7470   81.6650 C.3   221  GLN221      0.0905
    128  CD       147.4670   31.2130   81.6200 C.2   221  GLN221      0.2608
    129  OE1      148.5760   31.6050   82.0030 O.2   221  GLN221     -0.2717
    130  NE2      146.5260   32.0460   81.1260 N.am  221  GLN221     -0.0878
    131  N        148.7070   26.3150   77.0530 N.3   223  THR223     -0.1218
    132  CA       148.9450   26.7540   75.6760 C.3   223  THR223      0.1862
    133  C        150.3490   27.3290   75.5860 C.2   223  THR223      0.2287
    134  O        150.5710   28.5290   75.7470 O.2   223  THR223     -0.2866
    135  CB       147.8990   27.7620   75.2250 C.3   223  THR223      0.1770
    136  OG1      147.9230   28.9060   76.0860 O.3   223  THR223     -0.2211
    137  CG2      146.5430   27.1360   75.2650 C.3   223  THR223      0.0375
    138  N        156.5660   42.3590   81.9480 N.3   282  ARG282     -0.1231
    139  CA       155.6150   41.2490   81.9170 C.3   282  ARG282      0.1694
    140  C        156.3300   39.9050   81.8150 C.2   282  ARG282      0.2592
    141  O        155.8860   38.9160   82.4060 O.2   282  ARG282     -0.2718
    142  CB       154.6240   41.4320   80.7620 C.3   282  ARG282      0.0321
    143  CG       153.6380   40.2840   80.5840 C.3   282  ARG282      0.0489
    144  CD       152.5910   40.6010   79.4920 C.3   282  ARG282      0.2205
    145  NE       151.6640   39.4950   79.2550 N.pl3 282  ARG282     -0.0865
    146  CZ       150.5620   39.2540   79.9620 C.cat 282  ARG282      0.5346
    147  NH1      150.2270   40.0430   80.9770 N.pl3 282  ARG282      0.1354
    148  NH2      149.7870   38.2200   79.6470 N.pl3 282  ARG282      0.1354
    149  N        157.4500   39.8510   81.0930 N.am  283  TYR283     -0.1976
    150  CA       158.1960   38.6140   80.9090 C.3   283  TYR283      0.1639
    151  C        159.4760   38.5550   81.7510 C.2   283  TYR283      0.2290
    152  O        160.3350   37.7000   81.5040 O.2   283  TYR283     -0.2864
    153  CB       158.4960   38.4090   79.4200 C.3   283  TYR283      0.0560
    154  CG       157.2190   38.4350   78.6100 C.ar  283  TYR283     -0.0198
    155  CD1      156.3280   37.3600   78.6510 C.ar  283  TYR283     -0.0009
    156  CD2      156.8620   39.5610   77.8710 C.ar  283  TYR283     -0.0009
    157  CE1      155.1310   37.3940   77.9460 C.ar  283  TYR283      0.0417
    158  CE2      155.6730   39.5990   77.1620 C.ar  283  TYR283      0.0417
    159  CZ       154.8110   38.5140   77.2030 C.ar  283  TYR283      0.1957
    160  OH       153.6250   38.5600   76.5140 O.3   283  TYR283     -0.2866
@<TRIPOS>BOND
     1    80    79    2
     2    77    78    1
     3    79    78    1
     4    78    81    1
     5    81    82    1
     6    83    82   ar
     7    83    85   ar
     8    48    49    2
     9    48    47    1
    10    76    75    2
    11    75    74    1
    12    82    84   ar
    13    46    47    1
    14    85    87   ar
    15    47    50    1
    16    50    51    1
    17    71    69    1
    18    74    73    1
    19    57    58    1
    20    84    86   ar
    21    35    36    1
    22    73    67   am
    23    87    86   ar
    24    51    52    1
    25    39    36    1
    26    39    40    1
    27    36    37    1
    28    69    66    1
    29    69    70    1
    30    67    66    1
    31    67    68    2
    32    65    66    1
    33    65    59   am
    34    58    59    1
    35    58    61    1
    36     7     6    2
    37    72    70    1
    38    41    40   ar
    39    41    43   ar
    40    59    60    2
    41    40    42   ar
    42    52    53    1
    43    61    62    1
    44     6     5    1
    45     6     8   am
    46    37    38    2
    47     5     2    1
    48    43    45   ar
    49     1     2    1
    50    53    54    2
    51    42    44   ar
    52     2     3    1
    53    88    89    1
    54    62    64   ar
    55    62    63   ar
    56    54    55    1
    57    54    56    1
    58    45    44   ar
    59    14    13    1
    60    15    13    1
    61    92    89    1
    62    92    93    1
    63    89    90    1
    64     3     4    2
    65    13    10    1
    66    93    94    2
    67    93    95   am
    68    90    91    2
    69    25    26   ar
    70    25    23   ar
    71    10     9    1
    72    10    11    1
    73    26    24   ar
    74    23    21   ar
    75   135   137    1
    76   135   132    1
    77   135   136    1
    78   133   132    1
    79   133   134    2
    80   132   131    1
    81    11    16   am
    82    11    12    2
    83    16    17    1
    84    24    22   ar
    85    21    22   ar
    86    21    20    1
    87    33    32   ar
    88   160   159    1
    89    17    20    1
    90    17    18    1
    91   158   159   ar
    92   158   156   ar
    93   159   157   ar
    94    32    31    1
    95    32    34   ar
    96    31    28    1
    97   101   100    1
    98   156   154   ar
    99   157   155   ar
   100   120   119   ar
   101   121   119   ar
   102    96    97    1
   103    28    27    1
   104    28    29    1
   105    18    19    2
   106   100    97    1
   107   154   155   ar
   108   154   153    1
   109   119   118    1
   110    97    98    1
   111   145   144    1
   112   145   146    2
   113   153   150    1
   114   144   143    1
   115   148   146    1
   116    29    30    2
   117    98    99    2
   118   146   147    1
   119   112   110    1
   120   118   117    1
   121   124   125    2
   122   124   123    1
   123   143   142    1
   124   142   139    1
   125   117   114    1
   126   111   110    1
   127   150   149    1
   128   150   151    1
   129   110   109    2
   130   149   140   am
   131   126   123    1
   132   126   127    1
   133   130   128   am
   134   123   122    1
   135   152   151    2
   136   128   127    1
   137   128   129    2
   138   140   139    1
   139   140   141    2
   140   139   138    1
   141   109   108    1
   142   114   113    1
   143   114   115    1
   144   113   104   am
   145   115   116    2
   146   108   107    1
   147   106   107    1
   148   106   103    1
   149   102   103    1
   150   104   103    1
   151   104   105    2
