@<TRIPOS>MOLECULE
tmp/6ggmA00.pdb
 67 62 0 0 0
SMALL
GASTEIGER

@<TRIPOS>ATOM
      1  N         -9.6430    8.5370   21.8110 N.3    77  ASN77      -0.1240
      2  CA        -9.9980    9.4270   20.7120 C.3    77  ASN77       0.1653
      3  C        -11.2700    8.9680   20.0130 C.2    77  ASN77       0.2266
      4  O        -12.1340    9.7910   19.6870 O.2    77  ASN77      -0.2867
      5  CB        -8.8430    9.5300   19.7120 C.3    77  ASN77       0.1155
      6  CG        -7.6830   10.3620   20.2330 C.2    77  ASN77       0.2627
      7  OD1       -7.7980   11.0500   21.2430 O.2    77  ASN77      -0.2716
      8  ND2       -6.5710   10.3340   19.5160 N.am   77  ASN77      -0.0877
      9  N        -14.4300   11.3880   19.6750 N.3    81  LEU81      -0.1245
     10  CA       -15.0070   11.7990   18.3990 C.3    81  LEU81       0.1561
     11  C        -16.4630   11.3790   18.2760 C.2    81  LEU81       0.2260
     12  O        -17.2740   12.1120   17.6990 O.2    81  LEU81      -0.2867
     13  CB       -14.1780   11.2500   17.2350 C.3    81  LEU81       0.0270
     14  CG       -13.1730   12.2760   16.7020 C.3    81  LEU81       0.0019
     15  CD1      -12.2210   12.7580   17.7940 C.3    81  LEU81       0.0001
     16  CD2      -12.3960   11.7190   15.5280 C.3    81  LEU81       0.0001
     17  N        -10.6400    5.2180   12.9910 N.3    95  LEU95      -0.1245
     18  CA        -9.7200    6.3360   13.1510 C.3    95  LEU95       0.1561
     19  C         -8.3600    5.9450   12.5840 C.2    95  LEU95       0.2260
     20  O         -7.7360    4.9890   13.0600 O.2    95  LEU95      -0.2867
     21  CB        -9.6010    6.7280   14.6190 C.3    95  LEU95       0.0270
     22  CG        -8.6790    7.9060   14.8950 C.3    95  LEU95       0.0019
     23  CD1       -9.1840    9.1580   14.2130 C.3    95  LEU95       0.0001
     24  CD2       -8.5800    8.1020   16.3940 C.3    95  LEU95       0.0001
     25  N         -4.7270   12.9470   10.2710 N.3   116  PHE116     -0.1241
     26  CA        -5.7150   12.1630   10.9940 C.3   116  PHE116      0.1605
     27  C         -6.9550   12.0230   10.1200 C.2   116  PHE116      0.2264
     28  O         -7.3300   12.9600    9.4040 O.2   116  PHE116     -0.2867
     29  CB        -6.0930   12.8430   12.3180 C.3   116  PHE116      0.0534
     30  CG        -5.1030   12.6380   13.4380 C.ar  116  PHE116     -0.0203
     31  CD1       -5.1730   11.5210   14.2500 C.ar  116  PHE116     -0.0042
     32  CD2       -4.1270   13.5920   13.6990 C.ar  116  PHE116     -0.0042
     33  CE1       -4.2700   11.3440   15.2960 C.ar  116  PHE116     -0.0003
     34  CE2       -3.2250   13.4280   14.7350 C.ar  116  PHE116     -0.0003
     35  CZ        -3.2940   12.3020   15.5390 C.ar  116  PHE116     -0.0000
     36  N         -9.7360   14.5160    8.7070 N.3   123  TYR123     -0.1227
     37  CA       -10.1940   15.1090    9.9610 C.3   123  TYR123      0.1736
     38  C         -9.2760   16.2500   10.3820 C.2   123  TYR123      0.2595
     39  O         -9.6860   17.4120   10.3270 O.2   123  TYR123     -0.2718
     40  CB       -10.3030   14.0370   11.0440 C.3   123  TYR123      0.0548
     41  CG       -10.8050   14.5650   12.3610 C.ar  123  TYR123     -0.0200
     42  CD1      -12.1590   14.8330   12.5600 C.ar  123  TYR123     -0.0009
     43  CD2       -9.9260   14.7980   13.4120 C.ar  123  TYR123     -0.0009
     44  CE1      -12.6190   15.3180   13.7790 C.ar  123  TYR123      0.0417
     45  CE2      -10.3730   15.2810   14.6240 C.ar  123  TYR123      0.0417
     46  CZ       -11.7130   15.5350   14.8010 C.ar  123  TYR123      0.1957
     47  OH       -12.1320   16.0120   16.0100 O.3   123  TYR123     -0.2866
     48  N         -8.0430   15.9630   10.7950 N.am  124  LEU124     -0.1980
     49  CA        -7.0810   16.9810   11.1970 C.3   124  LEU124      0.1596
     50  C         -5.7740   16.7270   10.4610 C.2   124  LEU124      0.2287
     51  O         -5.2790   15.5960   10.4470 O.2   124  LEU124     -0.2864
     52  CB        -6.8580   16.9640   12.7170 C.3   124  LEU124      0.0297
     53  CG        -6.0830   18.1250   13.3490 C.3   124  LEU124      0.0022
     54  CD1       -6.7790   19.4600   13.1090 C.3   124  LEU124      0.0001
     55  CD2       -5.9050   17.8850   14.8310 C.3   124  LEU124      0.0001
     56  N        -10.4910   19.6840   18.3970 N.3   143  SER143     -0.1217
     57  CA        -9.2510   18.9200   18.4250 C.3   143  SER143      0.1889
     58  C         -8.0560   19.8150   18.1350 C.2   143  SER143      0.2288
     59  O         -6.9930   19.6710   18.7540 O.2   143  SER143     -0.2866
     60  CB        -9.3190   17.7830   17.4040 C.3   143  SER143      0.2089
     61  OG       -10.1880   16.7460   17.8210 O.3   143  SER143     -0.2183
     62  N         -4.9310   20.8120   20.7680 N.3   147  SER147     -0.1217
     63  CA        -3.5330   20.6380   20.4020 C.3   147  SER147      0.1889
     64  C         -2.7720   21.9530   20.5130 C.2   147  SER147      0.2288
     65  O         -1.6530   21.9860   21.0400 O.2   147  SER147     -0.2866
     66  CB        -3.4410   20.0800   18.9820 C.3   147  SER147      0.2089
     67  OG        -4.0250   18.7920   18.9010 O.3   147  SER147     -0.2183
@<TRIPOS>BOND
     1    36    37    1
     2    28    27    2
     3    37    38    1
     4    37    40    1
     5    27    26    1
     6    25    26    1
     7    39    38    2
     8    38    48   am
     9    51    50    2
    10    50    49    1
    11    48    49    1
    12    26    29    1
    13    40    41    1
    14    49    52    1
    15    29    30    1
    16    41    42   ar
    17    41    43   ar
    18    42    44   ar
    19    19    20    2
    20    19    18    1
    21    52    53    1
    22    17    18    1
    23    54    53    1
    24    18    21    1
    25    53    55    1
    26    43    45   ar
    27    30    32   ar
    28    30    31   ar
    29    32    34   ar
    30    44    46   ar
    31    23    22    1
    32    31    33   ar
    33    21    22    1
    34    45    46   ar
    35    34    35   ar
    36    46    47    1
    37    22    24    1
    38    33    35   ar
    39    16    14    1
    40    14    13    1
    41    14    15    1
    42    13    10    1
    43    60    61    1
    44    60    57    1
    45    12    11    2
    46    58    57    1
    47    58    59    2
    48    11    10    1
    49    56    57    1
    50    10     9    1
    51    67    66    1
    52    66    63    1
    53     8     6   am
    54     4     3    2
    55     5     6    1
    56     5     2    1
    57     3     2    1
    58     6     7    2
    59    63    64    1
    60    63    62    1
    61    64    65    2
    62     2     1    1
