@<TRIPOS>MOLECULE
tmp/6ggnA00.pdb
 179 173 0 0 0
SMALL
GASTEIGER

@<TRIPOS>ATOM
      1  N          4.3960   -5.7670   -0.0590 N.3     7  GLN7       -0.1245
      2  CA         3.9300   -5.9480   -1.4400 C.3     7  GLN7        0.1566
      3  C          5.0000   -5.6980   -2.5120 C.2     7  GLN7        0.2260
      4  O          4.8100   -6.0570   -3.6770 O.2     7  GLN7       -0.2867
      5  CB         2.6870   -5.0970   -1.7140 C.3     7  GLN7        0.0367
      6  CG         1.3850   -5.7190   -1.2080 C.3     7  GLN7        0.0905
      7  CD         0.1660   -5.2740   -2.0070 C.2     7  GLN7        0.2608
      8  OE1       -0.0520   -4.0770   -2.2280 O.2     7  GLN7       -0.2717
      9  NE2       -0.6370   -6.2400   -2.4430 N.am    7  GLN7       -0.0878
     10  N         -0.2910  -11.9130   -4.9310 N.3    37  LEU37      -0.1231
     11  CA        -1.4900  -11.7000   -4.1360 C.3    37  LEU37       0.1693
     12  C         -2.7130  -11.4520   -5.0320 C.2    37  LEU37       0.2592
     13  O         -3.7460  -12.0890   -4.8530 O.2    37  LEU37      -0.2718
     14  CB        -1.2590  -10.5340   -3.1700 C.3    37  LEU37       0.0284
     15  CG        -1.8730  -10.4980   -1.7710 C.3    37  LEU37       0.0019
     16  CD1       -1.6710  -11.7980   -1.0040 C.3    37  LEU37       0.0001
     17  CD2       -1.2640   -9.3340   -1.0020 C.3    37  LEU37       0.0001
     18  N         -2.5860  -10.5540   -6.0080 N.am   38  PHE38      -0.1976
     19  CA        -3.6920  -10.2720   -6.9310 C.3    38  PHE38       0.1639
     20  C         -4.1440  -11.5000   -7.7290 C.2    38  PHE38       0.2290
     21  O         -5.3460  -11.7850   -7.8010 O.2    38  PHE38      -0.2864
     22  CB        -3.3530   -9.1210   -7.8850 C.3    38  PHE38       0.0560
     23  CG        -4.3630   -8.9340   -8.9950 C.ar   38  PHE38      -0.0200
     24  CD1       -5.5320   -8.2140   -8.7750 C.ar   38  PHE38      -0.0042
     25  CD2       -4.1470   -9.4840  -10.2530 C.ar   38  PHE38      -0.0042
     26  CE1       -6.4690   -8.0450   -9.7910 C.ar   38  PHE38      -0.0003
     27  CE2       -5.0780   -9.3220  -11.2740 C.ar   38  PHE38      -0.0003
     28  CZ        -6.2400   -8.5950  -11.0430 C.ar   38  PHE38      -0.0000
     29  N         -3.7060  -14.7070   -7.1040 N.3    40  LEU40      -0.1231
     30  CA        -4.3450  -15.6790   -6.2110 C.3    40  LEU40       0.1693
     31  C         -5.7690  -15.2530   -5.8480 C.2    40  LEU40       0.2593
     32  O         -6.6740  -16.0840   -5.7940 O.2    40  LEU40      -0.2718
     33  CB        -3.5140  -15.9090   -4.9410 C.3    40  LEU40       0.0284
     34  CG        -2.2310  -16.7430   -5.0820 C.3    40  LEU40       0.0019
     35  CD1       -1.4610  -16.7130   -3.7810 C.3    40  LEU40       0.0001
     36  CD2       -2.5210  -18.1880   -5.4760 C.3    40  LEU40       0.0001
     37  N         -5.9540  -13.9570   -5.6050 N.am   41  GLY41      -0.1942
     38  CA        -7.2780  -13.3910   -5.3520 C.3    41  GLY41       0.2014
     39  C         -8.2420  -13.6340   -6.5020 C.2    41  GLY41       0.2638
     40  O         -9.3780  -14.0670   -6.2810 O.2    41  GLY41      -0.2714
     41  N         -7.7850  -13.3640   -7.7250 N.am   42  GLN42      -0.1977
     42  CA        -8.5910  -13.5740   -8.9320 C.3    42  GLN42       0.1601
     43  C         -8.9270  -15.0410   -9.1630 C.2    42  GLN42       0.2287
     44  O        -10.0330  -15.3550   -9.6020 O.2    42  GLN42      -0.2864
     45  CB        -7.9080  -13.0090  -10.1860 C.3    42  GLN42       0.0394
     46  CG        -7.9750  -11.4810  -10.3300 C.3    42  GLN42       0.0908
     47  CD        -9.3950  -10.9310  -10.5110 C.2    42  GLN42       0.2608
     48  OE1       -9.6980   -9.8130  -10.0750 O.2    42  GLN42      -0.2717
     49  NE2      -10.2650  -11.7120  -11.1450 N.am   42  GLN42      -0.0878
     50  N         -9.2810  -17.3710   -6.8240 N.3    44  ILE44      -0.1231
     51  CA       -10.3360  -17.6550   -5.8440 C.3    44  ILE44       0.1692
     52  C        -11.7050  -17.1360   -6.3150 C.2    44  ILE44       0.2591
     53  O        -12.7080  -17.8590   -6.2630 O.2    44  ILE44      -0.2718
     54  CB        -9.9660  -17.0640   -4.4530 C.3    44  ILE44       0.0266
     55  CG1       -8.7980  -17.8500   -3.8370 C.3    44  ILE44       0.0019
     56  CG2      -11.1780  -17.0400   -3.5160 C.3    44  ILE44       0.0020
     57  CD1       -8.0370  -17.1030   -2.7440 C.3    44  ILE44       0.0001
     58  N        -11.7270  -15.8920   -6.7920 N.am   45  MET45      -0.1979
     59  CA       -12.9670  -15.2490   -7.2450 C.3    45  MET45       0.1605
     60  C        -13.5640  -15.8890   -8.5000 C.2    45  MET45       0.2287
     61  O        -14.7780  -16.1320   -8.5520 O.2    45  MET45      -0.2864
     62  CB       -12.7560  -13.7460   -7.4520 C.3    45  MET45       0.0413
     63  CG       -12.3830  -12.9750   -6.1690 C.3    45  MET45       0.0598
     64  SD       -13.5310  -13.2110   -4.7980 S.3    45  MET45      -0.1393
     65  CE       -14.9880  -12.3880   -5.4490 C.3    45  MET45       0.0692
     66  N        -15.1530  -19.3870   -2.5610 N.3    50  TYR50      -0.1241
     67  CA       -15.6970  -18.8310   -1.3200 C.3    50  TYR50       0.1605
     68  C        -17.1390  -19.2720   -1.0490 C.2    50  TYR50       0.2264
     69  O        -17.9050  -19.5330   -1.9790 O.2    50  TYR50      -0.2867
     70  CB       -15.6200  -17.3010   -1.3380 C.3    50  TYR50       0.0534
     71  CG       -16.3200  -16.6650   -2.5170 C.ar   50  TYR50      -0.0201
     72  CD1      -17.6780  -16.3340   -2.4590 C.ar   50  TYR50      -0.0009
     73  CD2      -15.6260  -16.3980   -3.6960 C.ar   50  TYR50      -0.0009
     74  CE1      -18.3240  -15.7610   -3.5480 C.ar   50  TYR50       0.0417
     75  CE2      -16.2570  -15.8230   -4.7830 C.ar   50  TYR50       0.0417
     76  CZ       -17.6040  -15.5050   -4.7050 C.ar   50  TYR50       0.1957
     77  OH       -18.2210  -14.9340   -5.7920 O.3    50  TYR50      -0.2866
     78  N        -18.9960  -15.1330    3.0530 N.3    55  GLN55      -0.1231
     79  CA       -18.0650  -14.6840    2.0180 C.3    55  GLN55       0.1698
     80  C        -16.6300  -14.4040    2.4800 C.2    55  GLN55       0.2592
     81  O        -15.7680  -14.1150    1.6520 O.2    55  GLN55      -0.2718
     82  CB       -18.6400  -13.4760    1.2720 C.3    55  GLN55       0.0381
     83  CG       -19.9250  -13.7920    0.5100 C.3    55  GLN55       0.0905
     84  CD       -20.4610  -12.6060   -0.2630 C.2    55  GLN55       0.2608
     85  OE1      -19.9410  -11.4960   -0.1640 O.2    55  GLN55      -0.2717
     86  NE2      -21.5090  -12.8400   -1.0490 N.am   55  GLN55      -0.0878
     87  N        -16.3740  -14.4880    3.7840 N.am   56  HIS56      -0.1976
     88  CA       -15.0130  -14.3070    4.2950 C.3    56  HIS56       0.1656
     89  C        -14.1910  -15.6000    4.2630 C.2    56  HIS56       0.2291
     90  O        -12.9770  -15.5620    4.4470 O.2    56  HIS56      -0.2864
     91  CB       -15.0030  -13.7060    5.7130 C.3    56  HIS56       0.0771
     92  CG       -15.5410  -12.3070    5.7930 C.ar   56  HIS56       0.0820
     93  ND1      -16.1520  -11.8110    6.9250 N.ar   56  HIS56      -0.2267
     94  CD2      -15.5630  -11.3020    4.8840 C.ar   56  HIS56       0.1154
     95  CE1      -16.5270  -10.5620    6.7110 C.ar   56  HIS56       0.1986
     96  NE2      -16.1810  -10.2280    5.4810 N.ar   56  HIS56      -0.2212
     97  N        -12.6950  -18.9880    2.4240 N.3    58  VAL58      -0.1245
     98  CA       -12.3500  -19.6840    1.1930 C.3    58  VAL58       0.1561
     99  C        -12.2630  -21.1780    1.5100 C.2    58  VAL58       0.2260
    100  O        -11.6360  -21.5690    2.4930 O.2    58  VAL58      -0.2867
    101  CB       -11.0160  -19.1580    0.6060 C.3    58  VAL58       0.0252
    102  CG1      -10.5470  -20.0020   -0.5880 C.3    58  VAL58       0.0019
    103  CG2      -11.1550  -17.7010    0.2010 C.3    58  VAL58       0.0019
    104  N         -5.3990  -25.2440   -4.7950 N.3    65  LEU65      -0.1245
    105  CA        -5.0900  -24.2150   -3.8000 C.3    65  LEU65       0.1561
    106  C         -4.8880  -24.8180   -2.4050 C.2    65  LEU65       0.2260
    107  O         -3.9790  -24.4190   -1.6860 O.2    65  LEU65      -0.2867
    108  CB        -6.1640  -23.1200   -3.7660 C.3    65  LEU65       0.0270
    109  CG        -5.8970  -21.9190   -2.8470 C.3    65  LEU65       0.0019
    110  CD1       -4.5970  -21.1920   -3.2310 C.3    65  LEU65       0.0001
    111  CD2       -7.0790  -20.9660   -2.8580 C.3    65  LEU65       0.0001
    112  N         -1.5930  -24.3310   -0.0660 N.3    69  PHE69      -0.1241
    113  CA        -1.6750  -23.6530    1.2230 C.3    69  PHE69       0.1605
    114  C         -1.6520  -24.6300    2.3970 C.2    69  PHE69       0.2264
    115  O         -1.3320  -24.2380    3.5230 O.2    69  PHE69      -0.2867
    116  CB        -2.9410  -22.7850    1.2700 C.3    69  PHE69       0.0534
    117  CG        -2.7940  -21.4250    0.6180 C.ar   69  PHE69      -0.0203
    118  CD1       -1.6480  -21.0810   -0.1100 C.ar   69  PHE69      -0.0042
    119  CD2       -3.8270  -20.4950    0.7120 C.ar   69  PHE69      -0.0042
    120  CE1       -1.5290  -19.8180   -0.7040 C.ar   69  PHE69      -0.0003
    121  CE2       -3.7190  -19.2330    0.1220 C.ar   69  PHE69      -0.0003
    122  CZ        -2.5680  -18.8950   -0.5900 C.ar   69  PHE69      -0.0000
    123  N         -9.7320  -21.2180    4.8690 N.3    74  PHE74      -0.1241
    124  CA        -9.1020  -20.0890    5.5660 C.3    74  PHE74       0.1605
    125  C         -9.9380  -18.8260    5.4030 C.2    74  PHE74       0.2264
    126  O        -10.7680  -18.7400    4.4990 O.2    74  PHE74      -0.2867
    127  CB        -7.6610  -19.8570    5.0770 C.3    74  PHE74       0.0534
    128  CG        -7.5500  -19.4320    3.6270 C.ar   74  PHE74      -0.0203
    129  CD1       -7.4760  -18.0840    3.2860 C.ar   74  PHE74      -0.0042
    130  CD2       -7.4840  -20.3800    2.6080 C.ar   74  PHE74      -0.0042
    131  CE1       -7.3600  -17.6840    1.9470 C.ar   74  PHE74      -0.0003
    132  CE2       -7.3680  -19.9910    1.2720 C.ar   74  PHE74      -0.0003
    133  CZ        -7.3050  -18.6390    0.9420 C.ar   74  PHE74      -0.0000
    134  N        -10.2290  -14.8030    4.5230 N.3    76  VAL76      -0.1231
    135  CA        -9.5740  -13.7550    3.7370 C.3    76  VAL76       0.1692
    136  C         -9.1020  -12.5950    4.6140 C.2    76  VAL76       0.2591
    137  O         -8.3070  -11.7650    4.1750 O.2    76  VAL76      -0.2718
    138  CB       -10.4760  -13.2080    2.5970 C.3    76  VAL76       0.0266
    139  CG1      -10.7590  -14.2950    1.5560 C.3    76  VAL76       0.0020
    140  CG2      -11.7830  -12.6140    3.1520 C.3    76  VAL76       0.0020
    141  N         -9.6010  -12.5530    5.8490 N.am   77  LYS77      -0.1980
    142  CA        -9.2470  -11.5100    6.8080 C.3    77  LYS77       0.1596
    143  C         -7.9790  -11.8500    7.6050 C.2    77  LYS77       0.2287
    144  O         -7.4040  -10.9740    8.2580 O.2    77  LYS77      -0.2864
    145  CB       -10.4220  -11.2280    7.7640 C.3    77  LYS77       0.0298
    146  CG       -11.7490  -10.8580    7.0830 C.3    77  LYS77       0.0038
    147  CD       -11.6060   -9.6470    6.1630 C.3    77  LYS77       0.0206
    148  CE       -12.9670   -9.0500    5.8230 C.3    77  LYS77       0.1093
    149  NZ       -12.8520   -7.9040    4.8790 N.3    77  LYS77      -0.1314
    150  N         -4.7130  -12.0500    7.3440 N.3    79  HIS79      -0.1241
    151  CA        -3.6600  -11.6370    6.4160 C.3    79  HIS79       0.1621
    152  C         -2.2800  -12.2430    6.7110 C.2    79  HIS79       0.2264
    153  O         -1.5970  -12.6880    5.7850 O.2    79  HIS79      -0.2867
    154  CB        -3.5960  -10.1110    6.3090 C.3    79  HIS79       0.0745
    155  CG        -4.7190   -9.5160    5.5140 C.ar   79  HIS79       0.0817
    156  ND1       -4.6450   -8.2640    4.9440 N.ar   79  HIS79      -0.2268
    157  CD2       -5.9340  -10.0120    5.1740 C.ar   79  HIS79       0.1154
    158  CE1       -5.7730   -8.0040    4.3050 C.ar   79  HIS79       0.1986
    159  NE2       -6.5710   -9.0500    4.4270 N.ar   79  HIS79      -0.2212
    160  N         -2.1480  -15.8920    5.6140 N.3    82  ILE82      -0.1231
    161  CA        -2.1320  -15.9900    4.1530 C.3    82  ILE82       0.1692
    162  C         -0.7250  -15.7360    3.6210 C.2    82  ILE82       0.2592
    163  O         -0.2350  -16.4820    2.7730 O.2    82  ILE82      -0.2718
    164  CB        -3.1740  -15.0480    3.4790 C.3    82  ILE82       0.0266
    165  CG1       -4.6000  -15.5390    3.7610 C.3    82  ILE82       0.0019
    166  CG2       -2.9480  -14.9710    1.9640 C.3    82  ILE82       0.0020
    167  CD1       -5.6880  -14.5460    3.3920 C.3    82  ILE82       0.0001
    168  N         -0.0770  -14.6880    4.1300 N.am   83  TYR83      -0.1976
    169  CA         1.3020  -14.3920    3.7510 C.3    83  TYR83       0.1639
    170  C          2.2530  -15.5500    4.0360 C.2    83  TYR83       0.2290
    171  O          3.1000  -15.8640    3.1990 O.2    83  TYR83      -0.2864
    172  CB         1.7960  -13.1010    4.4070 C.3    83  TYR83       0.0560
    173  CG         1.4360  -11.8650    3.6190 C.ar   83  TYR83      -0.0198
    174  CD1        2.0500  -11.5930    2.4000 C.ar   83  TYR83      -0.0009
    175  CD2        0.4800  -10.9680    4.0890 C.ar   83  TYR83      -0.0009
    176  CE1        1.7160  -10.4630    1.6650 C.ar   83  TYR83       0.0417
    177  CE2        0.1440   -9.8300    3.3630 C.ar   83  TYR83       0.0417
    178  CZ         0.7690   -9.5870    2.1530 C.ar   83  TYR83       0.1957
    179  OH         0.4540   -8.4620    1.4280 O.3    83  TYR83      -0.2866
@<TRIPOS>BOND
     1    27    28   ar
     2    27    25   ar
     3    49    47   am
     4    28    26   ar
     5    47    46    1
     6    47    48    2
     7    46    45    1
     8    25    23   ar
     9    45    42    1
    10    26    24   ar
    11    44    43    2
    12    43    42    1
    13    23    24   ar
    14    23    22    1
    15    42    41    1
    16    61    60    2
    17    60    59    1
    18    22    19    1
    19    21    20    2
    20    20    19    1
    21    41    39   am
    22    62    59    1
    23    62    63    1
    24    59    58    1
    25    29    30    1
    26    19    18    1
    27    50    51    1
    28    58    52   am
    29    39    40    2
    30    39    38    1
    31    52    53    2
    32    52    51    1
    33    30    31    1
    34    30    33    1
    35    63    64    1
    36    18    12   am
    37    31    32    2
    38    31    37   am
    39    51    54    1
    40    77    76    1
    41    37    38    1
    42    36    34    1
    43    65    64    1
    44    34    33    1
    45    34    35    1
    46    12    13    2
    47    12    11    1
    48    10    11    1
    49   104   105    1
    50    75    76   ar
    51    75    73   ar
    52    76    74   ar
    53    54    55    1
    54    54    56    1
    55    11    14    1
    56    55    57    1
    57   105   108    1
    58   105   106    1
    59   108   109    1
    60    73    71   ar
    61     4     3    2
    62    74    72   ar
    63   110   109    1
    64    14    15    1
    65   111   109    1
    66    66    67    1
    67    71    72   ar
    68    71    70    1
    69     3     2    1
    70     9     7   am
    71   106   107    2
    72     8     7    2
    73     7     6    1
    74    69    68    2
    75    15    16    1
    76    15    17    1
    77     5     2    1
    78     5     6    1
    79     2     1    1
    80    70    67    1
    81    67    68    1
    82    86    84   am
    83   120   122   ar
    84   120   118   ar
    85   122   121   ar
    86   102   101    1
    87    84    85    2
    88    84    83    1
    89   118   117   ar
    90   112   113    1
    91   121   119   ar
    92   103   101    1
    93    83    82    1
    94   101    98    1
    95   117   119   ar
    96   117   116    1
    97   133   132   ar
    98   133   131   ar
    99    98    99    1
   100    98    97    1
   101   113   116    1
   102   113   114    1
   103    82    79    1
   104   132   130   ar
   105   179   178    1
   106    99   100    2
   107   139   138    1
   108    81    80    2
   109   176   178   ar
   110   176   174   ar
   111   131   129   ar
   112   166   164    1
   113    79    80    1
   114    79    78    1
   115   178   177   ar
   116   114   115    2
   117   174   173   ar
   118    80    87   am
   119   138   140    1
   120   138   135    1
   121   130   128   ar
   122   163   162    2
   123   171   170    2
   124   129   128   ar
   125   177   175   ar
   126   167   165    1
   127   164   165    1
   128   164   161    1
   129   173   175   ar
   130   173   172    1
   131   162   168   am
   132   162   161    1
   133   128   127    1
   134   135   134    1
   135   135   136    1
   136   169   170    1
   137   169   168    1
   138   169   172    1
   139    87    88    1
   140   161   160    1
   141   137   136    2
   142    89    88    1
   143    89    90    2
   144    88    91    1
   145   158   159   ar
   146   158   156   ar
   147   159   157   ar
   148   126   125    2
   149   136   141   am
   150   123   124    1
   151   149   148    1
   152    94    96   ar
   153    94    92   ar
   154   156   155   ar
   155   127   124    1
   156   157   155   ar
   157   125   124    1
   158    96    95   ar
   159   155   154    1
   160    91    92    1
   161   153   152    2
   162    92    93   ar
   163   148   147    1
   164   141   142    1
   165   147   146    1
   166   154   151    1
   167   151   152    1
   168   151   150    1
   169    95    93   ar
   170   142   143    1
   171   142   145    1
   172   146   145    1
   173   143   144    2
