@<TRIPOS>MOLECULE
tmp/6gh2A00.pdb
 138 131 0 0 0
SMALL
GASTEIGER

@<TRIPOS>ATOM
      1  N         36.5230    6.6860   39.5750 N.3   350  ARG350     -0.1245
      2  CA        36.3230    8.1280   39.6120 C.3   350  ARG350      0.1563
      3  C         35.2110    8.5280   40.5920 C.2   350  ARG350      0.2260
      4  O         35.3700    9.5060   41.3310 O.2   350  ARG350     -0.2867
      5  CB        36.0510    8.6970   38.2280 C.3   350  ARG350      0.0307
      6  CG        36.2220   10.2050   38.1540 C.3   350  ARG350      0.0489
      7  CD        35.7530   10.7620   36.8150 C.3   350  ARG350      0.2205
      8  NE        35.6950   12.2310   36.8350 N.pl3 350  ARG350     -0.0865
      9  CZ        36.6260   13.0800   36.3880 C.cat 350  ARG350      0.5346
     10  NH1       37.7690   12.6530   35.8630 N.pl3 350  ARG350      0.1354
     11  NH2       36.3970   14.3840   36.4650 N.pl3 350  ARG350      0.1354
     12  N         37.5600   11.7950   42.0180 N.3   355  ASN355     -0.1240
     13  CA        38.6530   12.3440   41.2050 C.3   355  ASN355      0.1653
     14  C         39.8430   12.8780   42.0280 C.2   355  ASN355      0.2266
     15  O         40.4730   13.8680   41.6440 O.2   355  ASN355     -0.2867
     16  CB        38.0830   13.4340   40.2920 C.3   355  ASN355      0.1155
     17  CG        38.9270   13.6740   39.0570 C.2   355  ASN355      0.2627
     18  OD1       39.4930   12.7490   38.4590 O.2   355  ASN355     -0.2716
     19  ND2       38.9940   14.9170   38.6470 N.am  355  ASN355     -0.0877
     20  N         46.8710   12.9150   41.4060 N.3   361  HIS361     -0.1241
     21  CA        45.7150   13.7690   41.7050 C.3   361  HIS361      0.1621
     22  C         45.8850   14.4090   43.0870 C.2   361  HIS361      0.2264
     23  O         45.0970   14.2060   43.9930 O.2   361  HIS361     -0.2867
     24  CB        44.3910   12.9680   41.6210 C.3   361  HIS361      0.0745
     25  CG        44.0330   12.4980   40.2410 C.ar  361  HIS361      0.0817
     26  ND1       44.6590   11.4350   39.6240 N.ar  361  HIS361     -0.2268
     27  CD2       43.0700   12.9180   39.3830 C.ar  361  HIS361      0.1154
     28  CE1       44.1110   11.2380   38.4390 C.ar  361  HIS361      0.1986
     29  NE2       43.1490   12.1270   38.2680 N.ar  361  HIS361     -0.2212
     30  N         30.3190   18.7150   35.7050 N.3   371  ARG371     -0.1231
     31  CA        30.5440   17.7760   34.6040 C.3   371  ARG371      0.1694
     32  C         30.4200   16.3150   35.0280 C.2   371  ARG371      0.2592
     33  O         29.9200   15.4840   34.2540 O.2   371  ARG371     -0.2718
     34  CB        31.9260   17.9850   33.9770 C.3   371  ARG371      0.0321
     35  CG        32.0480   19.2780   33.2160 C.3   371  ARG371      0.0489
     36  CD        33.4560   19.4810   32.6920 C.3   371  ARG371      0.2205
     37  NE        33.6210   20.8290   32.1440 N.pl3 371  ARG371     -0.0865
     38  CZ        34.7620   21.5070   32.1180 C.cat 371  ARG371      0.5346
     39  NH1       35.8810   20.9920   32.6100 N.pl3 371  ARG371      0.1354
     40  NH2       34.7920   22.7200   31.6000 N.pl3 371  ARG371      0.1354
     41  N         30.8880   16.0140   36.2430 N.am  372  ASP372     -0.1974
     42  CA        30.8750   14.6550   36.8000 C.3   372  ASP372      0.1709
     43  C         29.4380   14.1500   36.9880 C.2   372  ASP372      0.2293
     44  O         29.1560   12.9650   36.7990 O.2   372  ASP372     -0.2864
     45  CB        31.6180   14.5950   38.1490 C.3   372  ASP372      0.1436
     46  CG        33.0860   15.0110   38.0520 C.2   372  ASP372      0.3671
     47  OD1       33.6620   15.0470   36.9610 O.co2 372  ASP372     -0.2456
     48  OD2       33.6790   15.3270   39.0950 O.co2 372  ASP372     -0.2456
     49  N         28.7840   13.0700   33.4280 N.3   375  GLN375     -0.1245
     50  CA        29.7000   12.0580   32.9310 C.3   375  GLN375      0.1566
     51  C         29.5090   10.7290   33.6580 C.2   375  GLN375      0.2260
     52  O         29.4770    9.6880   33.0130 O.2   375  GLN375     -0.2867
     53  CB        31.1400   12.5450   33.0410 C.3   375  GLN375      0.0367
     54  CG        32.1630   11.7400   32.2510 C.3   375  GLN375      0.0905
     55  CD        33.5090   12.4130   32.2700 C.2   375  GLN375      0.2608
     56  OE1       33.9650   12.9150   31.2470 O.2   375  GLN375     -0.2717
     57  NE2       34.1500   12.4570   33.4440 N.am  375  GLN375     -0.0878
     58  N         35.4500   23.1190   27.9230 N.3   521  TRP521     -0.1241
     59  CA        35.9930   21.8310   28.3520 C.3   521  TRP521      0.1605
     60  C         37.4290   21.9640   28.8350 C.2   521  TRP521      0.2264
     61  O         37.7900   21.3970   29.8680 O.2   521  TRP521     -0.2867
     62  CB        35.9240   20.8110   27.2060 C.3   521  TRP521      0.0550
     63  CG        36.6110   19.5130   27.4870 C.ar  521  TRP521      0.0003
     64  CD1       36.0570   18.4050   28.0490 C.ar  521  TRP521      0.0946
     65  CD2       37.9800   19.1920   27.2290 C.ar  521  TRP521      0.0152
     66  NE1       36.9920   17.4180   28.1600 N.ar  521  TRP521     -0.2442
     67  CE2       38.1870   17.8710   27.6690 C.ar  521  TRP521      0.0810
     68  CE3       39.0580   19.8990   26.6760 C.ar  521  TRP521      0.0012
     69  CZ2       39.4280   17.2270   27.5700 C.ar  521  TRP521      0.0191
     70  CZ3       40.3040   19.2650   26.5820 C.ar  521  TRP521      0.0001
     71  CH2       40.4780   17.9420   27.0320 C.ar  521  TRP521      0.0015
     72  N         39.9100   23.3710   30.8210 N.3   523  ASP523     -0.1239
     73  CA        40.0430   24.1670   32.0490 C.3   523  ASP523      0.1674
     74  C         41.1940   25.1770   32.0040 C.2   523  ASP523      0.2266
     75  O         41.1780   26.1620   32.7500 O.2   523  ASP523     -0.2867
     76  CB        40.2550   23.2670   33.2860 C.3   523  ASP523      0.1410
     77  CG        39.0270   22.4440   33.6650 C.2   523  ASP523      0.3668
     78  OD1       37.9030   22.6560   33.1170 O.co2 523  ASP523     -0.2456
     79  OD2       39.2450   21.5720   34.5400 O.co2 523  ASP523     -0.2456
     80  N         49.6320   17.8760   30.0120 N.3   728  LYS728     -0.1231
     81  CA        48.3300   18.3470   30.4980 C.3   728  LYS728      0.1693
     82  C         47.5740   18.9480   29.3100 C.2   728  LYS728      0.2591
     83  O         47.5880   18.3480   28.2480 O.2   728  LYS728     -0.2718
     84  CB        48.5050   19.2860   31.7160 C.3   728  LYS728      0.0285
     85  CG        48.4090   18.5980   33.0700 C.3   728  LYS728      0.0035
     86  CD        46.9460   18.3660   33.4810 C.3   728  LYS728      0.0206
     87  CE        46.8370   17.6250   34.8210 C.3   728  LYS728      0.1093
     88  NZ        45.4420   17.1930   35.1380 N.3   728  LYS728     -0.1314
     89  N         46.9740   20.1320   29.4360 N.am  729  GLU729     -0.1979
     90  CA        46.1610   20.6630   28.3520 C.3   729  GLU729      0.1602
     91  C         46.9750   21.4270   27.2860 C.2   729  GLU729      0.2287
     92  O         46.3820   22.0020   26.3720 O.2   729  GLU729     -0.2864
     93  CB        45.0480   21.5380   28.9290 C.3   729  GLU729      0.0415
     94  CG        44.0170   20.7750   29.7710 C.3   729  GLU729      0.1163
     95  CD        44.3070   20.7490   31.2580 C.2   729  GLU729      0.3649
     96  OE1       45.4760   21.0080   31.6640 O.co2 729  GLU729     -0.2457
     97  OE2       43.3450   20.4680   32.0170 O.co2 729  GLU729     -0.2457
     98  N         45.7100   14.0660   25.0380 N.3   734  PHE734     -0.1241
     99  CA        44.7820   14.1700   26.1310 C.3   734  PHE734      0.1605
    100  C         43.5970   13.2480   25.8530 C.2   734  PHE734      0.2264
    101  O         42.7100   13.5630   25.0490 O.2   734  PHE734     -0.2867
    102  CB        44.3540   15.6140   26.3230 C.3   734  PHE734      0.0534
    103  CG        43.9400   15.9310   27.7370 C.ar  734  PHE734     -0.0203
    104  CD1       42.6730   15.5730   28.2070 C.ar  734  PHE734     -0.0042
    105  CD2       44.8150   16.5860   28.6010 C.ar  734  PHE734     -0.0042
    106  CE1       42.2930   15.8610   29.5020 C.ar  734  PHE734     -0.0003
    107  CE2       44.4330   16.8800   29.9010 C.ar  734  PHE734     -0.0003
    108  CZ        43.1670   16.5120   30.3490 C.ar  734  PHE734     -0.0000
    109  N         40.7430   12.1370   26.7810 N.3   736  HIS736     -0.1241
    110  CA        39.3140   12.4320   26.7400 C.3   736  HIS736      0.1621
    111  C         38.9210   13.0570   25.4100 C.2   736  HIS736      0.2264
    112  O         37.9670   12.6110   24.7530 O.2   736  HIS736     -0.2867
    113  CB        38.9540   13.3750   27.8780 C.3   736  HIS736      0.0745
    114  CG        37.4820   13.5810   28.0640 C.ar  736  HIS736      0.0817
    115  ND1       36.9730   14.3110   29.1120 N.ar  736  HIS736     -0.2268
    116  CD2       36.4110   13.1230   27.3720 C.ar  736  HIS736      0.1154
    117  CE1       35.6550   14.3280   29.0330 C.ar  736  HIS736      0.1986
    118  NE2       35.2890   13.6150   27.9860 N.ar  736  HIS736     -0.2212
    119  N         44.8180    9.8650   31.8570 N.3   779  GLU779     -0.1245
    120  CA        44.3350   11.1900   31.4510 C.3   779  GLU779      0.1567
    121  C         45.0960   11.7070   30.2390 C.2   779  GLU779      0.2260
    122  O         44.4960   12.2280   29.2970 O.2   779  GLU779     -0.2867
    123  CB        44.5000   12.1910   32.5830 C.3   779  GLU779      0.0388
    124  CG        43.9800   13.5840   32.2600 C.3   779  GLU779      0.1160
    125  CD        44.2580   14.5540   33.3610 C.2   779  GLU779      0.3649
    126  OE1       45.4260   14.8730   33.6150 O.co2 779  GLU779     -0.2457
    127  OE2       43.3080   15.0020   33.9910 O.co2 779  GLU779     -0.2457
    128  N         40.6530    9.4970   35.2310 N.3   793  THR793     -0.1203
    129  CA        40.2230   10.1770   33.9860 C.3   793  THR793      0.1994
    130  C         38.8440    9.7960   33.4300 C.2   793  THR793      0.2618
    131  O         38.5270    8.6180   33.2900 O.2   793  THR793     -0.2717
    132  CB        41.2520   10.0120   32.8460 C.3   793  THR793      0.1784
    133  OG1       40.7370   10.6000   31.6490 O.3   793  THR793     -0.2211
    134  CG2       41.5780    8.5590   32.5780 C.3   793  THR793      0.0376
    135  N         38.0590   10.8160   33.0790 N.am  794  GLY794     -0.1956
    136  CA        36.7820   10.6560   32.3950 C.3   794  GLY794      0.1869
    137  C         36.8400   10.0560   31.0070 C.2   794  GLY794      0.2309
    138  O         35.8130    9.6330   30.4760 O.2   794  GLY794     -0.2863
@<TRIPOS>BOND
     1   112   111    2
     2    98    99    1
     3   101   100    2
     4   111   110    1
     5   100    99    1
     6    99   102    1
     7   102   103    1
     8    92    91    2
     9    70    68   ar
    10    70    71   ar
    11    68    65   ar
    12   110   109    1
    13   110   113    1
    14    71    69   ar
    15    62    63    1
    16    62    59    1
    17    65    63   ar
    18    65    67   ar
    19    91    90    1
    20   116   118   ar
    21   116   114   ar
    22    63    64   ar
    23    69    67   ar
    24    67    66   ar
    25   103   104   ar
    26   103   105   ar
    27   113   114    1
    28    58    59    1
    29   118   117   ar
    30    64    66   ar
    31   114   115   ar
    32   104   106   ar
    33    83    82    2
    34    59    60    1
    35    90    93    1
    36    90    89    1
    37   105   107   ar
    38    60    61    2
    39    93    94    1
    40   117   115   ar
    41   122   121    2
    42    82    89   am
    43    82    81    1
    44   106   108   ar
    45    94    95    1
    46   107   108   ar
    47    80    81    1
    48   121   120    1
    49   138   137    2
    50    81    84    1
    51    72    73    1
    52   137   136    1
    53    56    55    2
    54    95    96   ar
    55    95    97   ar
    56   120   119    1
    57   120   123    1
    58    40    38    1
    59   133   132    1
    60    84    85    1
    61    74    73    1
    62    74    75    2
    63    73    76    1
    64    38    37    2
    65    38    39    1
    66    37    36    1
    67    54    55    1
    68    54    53    1
    69   124   123    1
    70   124   125    1
    71    55    57   am
    72   136   135    1
    73   134   132    1
    74    36    35    1
    75   132   129    1
    76    50    53    1
    77    50    49    1
    78    50    51    1
    79    52    51    2
    80    85    86    1
    81   135   130   am
    82    78    77   ar
    83    35    34    1
    84    76    77    1
    85   131   130    2
    86   125   126   ar
    87   125   127   ar
    88   130   129    1
    89    86    87    1
    90    77    79   ar
    91    34    31    1
    92   129   128    1
    93    33    32    2
    94    31    32    1
    95    31    30    1
    96    87    88    1
    97    32    41   am
    98    10     9    1
    99    41    42    1
   100     9    11    1
   101     9     8    2
   102    44    43    2
   103    42    43    1
   104    42    45    1
   105     7     8    1
   106     7     6    1
   107    47    46   ar
   108    46    45    1
   109    46    48   ar
   110     6     5    1
   111     5     2    1
   112    29    28   ar
   113    29    27   ar
   114    28    26   ar
   115    18    17    2
   116    19    17   am
   117    17    16    1
   118    27    25   ar
   119     1     2    1
   120     2     3    1
   121    26    25   ar
   122    25    24    1
   123    16    13    1
   124     3     4    2
   125    13    12    1
   126    13    14    1
   127    20    21    1
   128    24    21    1
   129    15    14    2
   130    21    22    1
   131    22    23    2
