@<TRIPOS>MOLECULE
tmp/6gh7B00.pdb
 154 145 0 0 0
SMALL
GASTEIGER

@<TRIPOS>ATOM
      1  N         17.0190  -19.8690   29.9360 N.3     8  ASN8       -0.1240
      2  CA        16.1220  -20.5890   29.0770 C.3     8  ASN8        0.1653
      3  C         16.7690  -21.8880   28.5540 C.2     8  ASN8        0.2266
      4  O         17.8640  -22.2550   28.9220 O.2     8  ASN8       -0.2867
      5  CB        15.5550  -19.6970   27.9710 C.3     8  ASN8        0.1155
      6  CG        16.5340  -19.3640   26.8870 C.2     8  ASN8        0.2627
      7  OD1       17.6400  -19.9270   26.8270 O.2     8  ASN8       -0.2716
      8  ND2       16.1590  -18.4450   26.0220 N.am    8  ASN8       -0.0877
      9  N         17.9150  -22.7070   25.8040 N.3    10  LEU10      -0.1245
     10  CA        19.1220  -22.5020   24.9760 C.3    10  LEU10       0.1561
     11  C         20.3370  -22.1780   25.8330 C.2    10  LEU10       0.2260
     12  O         21.4160  -22.1660   25.3100 O.2    10  LEU10      -0.2867
     13  CB        18.9040  -21.3490   23.9940 C.3    10  LEU10       0.0270
     14  CG        17.7260  -21.5230   23.0250 C.3    10  LEU10       0.0019
     15  CD1       17.4180  -20.2240   22.3190 C.3    10  LEU10       0.0001
     16  CD2       18.1040  -22.5370   21.9720 C.3    10  LEU10       0.0001
     17  N         20.5270  -19.2160   27.4330 N.3    12  SER12      -0.1217
     18  CA        20.5860  -17.7420   27.5150 C.3    12  SER12       0.1889
     19  C         20.2990  -17.2900   28.9610 C.2    12  SER12       0.2288
     20  O         19.5880  -17.9630   29.6980 O.2    12  SER12      -0.2866
     21  CB        19.6040  -17.1090   26.5620 C.3    12  SER12       0.2089
     22  OG        19.9090  -17.5100   25.2250 O.3    12  SER12      -0.2183
     23  N         20.0760   -8.9770   28.9090 N.3    28  TYR28      -0.1241
     24  CA        19.8930  -10.2800   28.2850 C.3    28  TYR28       0.1605
     25  C         21.1820  -10.6880   27.5750 C.2    28  TYR28       0.2264
     26  O         21.7850   -9.8590   26.8640 O.2    28  TYR28      -0.2867
     27  CB        18.7270  -10.2180   27.2930 C.3    28  TYR28       0.0534
     28  CG        18.1570  -11.5650   26.9340 C.ar   28  TYR28      -0.0201
     29  CD1       18.6900  -12.3790   25.9430 C.ar   28  TYR28      -0.0009
     30  CD2       17.0450  -12.0530   27.5920 C.ar   28  TYR28      -0.0009
     31  CE1       18.1450  -13.6260   25.6560 C.ar   28  TYR28       0.0417
     32  CE2       16.4660  -13.2860   27.3230 C.ar   28  TYR28       0.0417
     33  CZ        17.0330  -14.0800   26.3460 C.ar   28  TYR28       0.1957
     34  OH        16.4630  -15.2900   26.0970 O.3    28  TYR28      -0.2866
     35  N         22.2820  -13.7530   25.0090 N.3    30  SER30      -0.1217
     36  CA        21.8020  -14.8730   24.2230 C.3    30  SER30       0.1889
     37  C         22.9300  -15.8900   24.0060 C.2    30  SER30       0.2288
     38  O         24.0600  -15.5420   23.6450 O.2    30  SER30      -0.2866
     39  CB        21.3230  -14.4170   22.8770 C.3    30  SER30       0.2089
     40  OG        20.8290  -15.5380   22.1230 O.3    30  SER30      -0.2183
     41  N         22.7470  -17.9680   21.5420 N.3    32  VAL32      -0.1231
     42  CA        22.6680  -18.2350   20.1270 C.3    32  VAL32       0.1692
     43  C         22.4900  -16.9350   19.3230 C.2    32  VAL32       0.2593
     44  O         22.0770  -15.8670   19.8140 O.2    32  VAL32      -0.2718
     45  CB        21.5030  -19.1830   19.7880 C.3    32  VAL32       0.0266
     46  CG1       21.7230  -20.5100   20.4660 C.3    32  VAL32       0.0020
     47  CG2       20.1420  -18.6200   20.0920 C.3    32  VAL32       0.0020
     48  N         22.7680  -17.0540   18.0130 N.am   33  GLY33      -0.1942
     49  CA        22.4420  -15.9910   17.0960 C.3    33  GLY33       0.2014
     50  C         23.5260  -14.9350   16.9790 C.2    33  GLY33       0.2639
     51  O         24.6940  -15.1090   17.4000 O.2    33  GLY33      -0.2714
     52  N         23.1570  -13.7960   16.3620 N.am   34  ASN34      -0.1958
     53  CA        24.1130  -12.7320   16.1180 C.3    34  ASN34       0.1819
     54  C         24.1440  -11.7660   17.3140 C.2    34  ASN34       0.2621
     55  O         23.4260  -10.7700   17.3330 O.2    34  ASN34      -0.2715
     56  CB        23.7710  -12.0270   14.8180 C.3    34  ASN34       0.1195
     57  CG        24.8100  -10.9810   14.4620 C.2    34  ASN34       0.2630
     58  OD1       25.8360  -10.8220   15.1430 O.2    34  ASN34      -0.2716
     59  ND2       24.5430  -10.2480   13.3930 N.am   34  ASN34      -0.0877
     60  N         24.8670  -12.2210   18.3390 N.am   35  ALA35      -0.1977
     61  CA        24.7640  -11.6480   19.6760 C.3    35  ALA35       0.1597
     62  C         26.0360  -11.9970   20.4150 C.2    35  ALA35       0.2287
     63  O         26.5160  -13.0710   20.2430 O.2    35  ALA35      -0.2864
     64  CB        23.5850  -12.2260   20.4150 C.3    35  ALA35       0.0319
     65  N         18.9330   -5.7050   19.4310 N.3    64  TRP64      -0.1241
     66  CA        20.2250   -6.4620   19.3760 C.3    64  TRP64       0.1605
     67  C         21.3980   -5.5800   18.9650 C.2    64  TRP64       0.2264
     68  O         22.1870   -5.9260   18.0890 O.2    64  TRP64      -0.2867
     69  CB        20.0230   -7.7130   18.5260 C.3    64  TRP64       0.0550
     70  CG        19.0400   -8.6530   19.1420 C.ar   64  TRP64       0.0003
     71  CD1       17.7800   -8.8840   18.7150 C.ar   64  TRP64       0.0946
     72  CD2       19.2570   -9.4840   20.2820 C.ar   64  TRP64       0.0152
     73  NE1       17.1660   -9.7990   19.5380 N.ar   64  TRP64      -0.2442
     74  CE2       18.0430  -10.1990   20.5080 C.ar   64  TRP64       0.0810
     75  CE3       20.3420   -9.6910   21.1360 C.ar   64  TRP64       0.0012
     76  CZ2       17.8970  -11.0960   21.5480 C.ar   64  TRP64       0.0191
     77  CZ3       20.1930  -10.5940   22.1570 C.ar   64  TRP64       0.0001
     78  CH2       18.9800  -11.2690   22.3900 C.ar   64  TRP64       0.0015
     79  N         22.8740   -6.3270   15.2570 N.3    71  ALA71      -0.1245
     80  CA        22.2000   -7.3070   14.4300 C.3    71  ALA71       0.1562
     81  C         20.9290   -6.7710   13.7820 C.2    71  ALA71       0.2260
     82  O         20.1280   -7.5400   13.2590 O.2    71  ALA71      -0.2867
     83  CB        21.9300   -8.5510   15.1880 C.3    71  ALA71       0.0290
     84  N         17.9060   -5.7900   14.6560 N.3    73  SER73      -0.1217
     85  CA        16.7720   -6.6390   14.9390 C.3    73  SER73       0.1889
     86  C         16.3890   -6.4640   16.4050 C.2    73  SER73       0.2288
     87  O         17.1340   -5.8690   17.2070 O.2    73  SER73      -0.2866
     88  CB        17.0710   -8.1070   14.6480 C.3    73  SER73       0.2089
     89  OG        18.2780   -8.5960   15.2370 O.3    73  SER73      -0.2183
     90  N         13.8950   -8.5330   19.6120 N.3    75  THR75      -0.1218
     91  CA        12.9970   -9.5820   20.0890 C.3    75  THR75       0.1862
     92  C         12.0900   -9.0430   21.1840 C.2    75  THR75       0.2287
     93  O         12.5820   -8.3740   22.0860 O.2    75  THR75      -0.2866
     94  CB        13.8030  -10.7850   20.6140 C.3    75  THR75       0.1770
     95  OG1       14.6350  -11.2370   19.5790 O.3    75  THR75      -0.2211
     96  CG2       12.8710  -11.9010   21.0210 C.3    75  THR75       0.0375
     97  N          9.5450  -10.7980   24.0310 N.3    77  TRP77      -0.1241
     98  CA         9.0160  -11.9570   24.7170 C.3    77  TRP77       0.1605
     99  C          7.7340  -11.5490   25.4190 C.2    77  TRP77       0.2264
    100  O          7.7350  -10.6000   26.1580 O.2    77  TRP77      -0.2867
    101  CB        10.0100  -12.4910   25.7380 C.3    77  TRP77       0.0550
    102  CG        11.2770  -13.1100   25.2390 C.ar   77  TRP77       0.0003
    103  CD1       11.5330  -14.4340   25.1920 C.ar   77  TRP77       0.0946
    104  CD2       12.4720  -12.4430   24.8000 C.ar   77  TRP77       0.0152
    105  NE1       12.8030  -14.6530   24.7730 N.ar   77  TRP77      -0.2442
    106  CE2       13.4180  -13.4470   24.5220 C.ar   77  TRP77       0.0810
    107  CE3       12.8640  -11.1250   24.6860 C.ar   77  TRP77       0.0012
    108  CZ2       14.7040  -13.1550   24.1190 C.ar   77  TRP77       0.0191
    109  CZ3       14.1500  -10.8140   24.3090 C.ar   77  TRP77       0.0001
    110  CH2       15.0430  -11.8390   24.0440 C.ar   77  TRP77       0.0015
    111  N          7.8750  -15.5480   21.6000 N.3    93  TRP93      -0.1241
    112  CA         8.6420  -14.4020   21.2010 C.3    93  TRP93       0.1605
    113  C          8.5120  -14.1370   19.6930 C.2    93  TRP93       0.2264
    114  O          8.2480  -15.0270   18.8890 O.2    93  TRP93      -0.2867
    115  CB        10.1130  -14.4760   21.6510 C.3    93  TRP93       0.0550
    116  CG        10.8660  -15.6780   21.2520 C.ar   93  TRP93       0.0003
    117  CD1       11.1800  -16.7300   22.0720 C.ar   93  TRP93       0.0946
    118  CD2       11.4280  -16.0120   19.9570 C.ar   93  TRP93       0.0152
    119  NE1       11.9140  -17.6410   21.3760 N.ar   93  TRP93      -0.2442
    120  CE2       12.0910  -17.2280   20.0920 C.ar   93  TRP93       0.0810
    121  CE3       11.5300  -15.3320   18.7330 C.ar   93  TRP93       0.0012
    122  CZ2       12.7980  -17.8120   19.0340 C.ar   93  TRP93       0.0191
    123  CZ3       12.1980  -15.9150   17.6960 C.ar   93  TRP93       0.0001
    124  CH2       12.8340  -17.1570   17.8220 C.ar   93  TRP93       0.0015
    125  N         10.8740  -12.0380   16.8220 N.3    95  LEU95      -0.1245
    126  CA        12.2010  -11.4310   16.4900 C.3    95  LEU95       0.1561
    127  C         12.0650  -10.8290   15.1050 C.2    95  LEU95       0.2260
    128  O         12.0140  -11.5320   14.0860 O.2    95  LEU95      -0.2867
    129  CB        13.2530  -12.5260   16.5740 C.3    95  LEU95       0.0270
    130  CG        14.6120  -12.2690   15.9560 C.3    95  LEU95       0.0019
    131  CD1       15.2170  -10.9540   16.3370 C.3    95  LEU95       0.0001
    132  CD2       15.5580  -13.3480   16.3770 C.3    95  LEU95       0.0001
    133  N         13.5930   -8.3800   12.1850 N.3    97  SER97      -0.1217
    134  CA        14.7670   -7.7540   11.6440 C.3    97  SER97       0.1889
    135  C         14.3390   -6.5320   10.8230 C.2    97  SER97       0.2288
    136  O         13.2890   -6.5510   10.1540 O.2    97  SER97      -0.2866
    137  CB        15.5340   -8.7470   10.8020 C.3    97  SER97       0.2089
    138  OG        15.9850   -9.8240   11.5950 O.3    97  SER97      -0.2183
    139  N         10.8360  -13.8580   12.8830 N.3   109  LEU109     -0.1245
    140  CA        10.8780  -15.2080   13.4200 C.3   109  LEU109      0.1561
    141  C          9.9990  -15.2730   14.6570 C.2   109  LEU109      0.2260
    142  O          9.8210  -14.2900   15.3790 O.2   109  LEU109     -0.2867
    143  CB        12.3320  -15.5540   13.7880 C.3   109  LEU109      0.0270
    144  CG        13.3040  -15.6770   12.6180 C.3   109  LEU109      0.0019
    145  CD1       14.7460  -15.5780   13.1250 C.3   109  LEU109      0.0001
    146  CD2       13.0750  -17.0060   11.9300 C.3   109  LEU109      0.0001
    147  N         10.3090  -19.6550   24.4500 N.3   113  ASP113     -0.1239
    148  CA        11.3660  -19.8850   25.4360 C.3   113  ASP113      0.1674
    149  C         10.7390  -20.0900   26.8190 C.2   113  ASP113      0.2266
    150  O          9.8490  -19.3220   27.2210 O.2   113  ASP113     -0.2867
    151  CB        12.2750  -18.6500   25.5460 C.3   113  ASP113      0.1410
    152  CG        13.2230  -18.4160   24.3720 C.2   113  ASP113      0.3668
    153  OD1       13.3070  -19.3140   23.4840 O.co2 113  ASP113     -0.2456
    154  OD2       13.8860  -17.3820   24.4040 O.co2 113  ASP113     -0.2456
@<TRIPOS>BOND
     1   136   135    2
     2   137   138    1
     3   137   134    1
     4   135   134    1
     5   134   133    1
     6   146   144    1
     7   144   145    1
     8   144   143    1
     9   139   140    1
    10    82    81    2
    11    59    57   am
    12   140   143    1
    13   140   141    1
    14    81    80    1
    15   128   127    2
    16    80    83    1
    17    80    79    1
    18    57    56    1
    19    57    58    2
    20    88    85    1
    21    88    89    1
    22    84    85    1
    23   141   142    2
    24    56    53    1
    25    85    86    1
    26   127   126    1
    27   130   131    1
    28   130   132    1
    29   130   129    1
    30    53    52    1
    31    53    54    1
    32    52    50   am
    33    86    87    2
    34   126   129    1
    35   126   125    1
    36    50    49    1
    37    50    51    2
    38    49    48    1
    39    54    55    2
    40    54    60   am
    41   123   124   ar
    42   123   121   ar
    43   124   122   ar
    44    48    43   am
    45    68    67    2
    46    60    61    1
    47    69    70    1
    48    69    66    1
    49    71    70   ar
    50    71    73   ar
    51   121   118   ar
    52   114   113    2
    53    67    66    1
    54   122   120   ar
    55    70    72   ar
    56    43    44    2
    57    43    42    1
    58    66    65    1
    59    73    74   ar
    60    95    94    1
    61    90    91    1
    62    61    64    1
    63    61    62    1
    64   113   112    1
    65    45    47    1
    66    45    42    1
    67    45    46    1
    68   118   120   ar
    69   118   116   ar
    70    91    94    1
    71    91    92    1
    72   120   119   ar
    73    42    41    1
    74    63    62    2
    75    72    74   ar
    76    72    75   ar
    77    74    76   ar
    78    94    96    1
    79    75    77   ar
    80    92    93    2
    81   112   111    1
    82   112   115    1
    83   116   115    1
    84   116   117   ar
    85   119   117   ar
    86    76    78   ar
    87    16    14    1
    88    40    39    1
    89    77    78   ar
    90    15    14    1
    91    39    36    1
    92    14    13    1
    93   153   152   ar
    94    38    37    2
    95    13    10    1
    96    37    36    1
    97    97    98    1
    98   110   108   ar
    99   110   109   ar
   100   108   106   ar
   101    36    35    1
   102   109   107   ar
   103   152   154   ar
   104   152   151    1
   105   147   148    1
   106   106   105   ar
   107   106   104   ar
   108   107   104   ar
   109    98    99    1
   110    98   101    1
   111   105   103   ar
   112   104   102   ar
   113    10     9    1
   114    10    11    1
   115   103   102   ar
   116    22    21    1
   117   102   101    1
   118    12    11    2
   119    99   100    2
   120   148   151    1
   121   148   149    1
   122    31    29   ar
   123    31    33   ar
   124    29    28   ar
   125     8     6   am
   126    34    33    1
   127    33    32   ar
   128    21    18    1
   129   149   150    2
   130     7     6    2
   131    26    25    2
   132     6     5    1
   133    28    27    1
   134    28    30   ar
   135    27    24    1
   136    32    30   ar
   137    17    18    1
   138    18    19    1
   139    25    24    1
   140     5     2    1
   141    24    23    1
   142     3     4    2
   143     3     2    1
   144    19    20    2
   145     2     1    1
