@<TRIPOS>MOLECULE
tmp/6gh9A00.pdb
 97 93 0 0 0
SMALL
GASTEIGER

@<TRIPOS>ATOM
      1  N       -101.5540   26.6040   44.6720 N.3    11  ASN11      -0.1240
      2  CA      -100.4720   27.3250   45.3270 C.3    11  ASN11       0.1653
      3  C       -100.4380   26.9150   46.7910 C.2    11  ASN11       0.2266
      4  O       -101.3520   27.2390   47.5520 O.2    11  ASN11      -0.2867
      5  CB      -100.6800   28.8310   45.2030 C.3    11  ASN11       0.1155
      6  CG       -99.3830   29.6030   45.2080 C.2    11  ASN11       0.2627
      7  OD1      -98.3120   29.0440   45.4440 O.2    11  ASN11      -0.2716
      8  ND2      -99.4710   30.9020   44.9470 N.am   11  ASN11      -0.0877
      9  N        -98.4450   28.0190   48.9840 N.3    13  GLY13      -0.1210
     10  CA       -98.1320   29.2140   49.7470 C.3    13  GLY13       0.1956
     11  C        -97.5040   30.2040   48.7930 C.2    13  GLY13       0.2611
     12  O        -98.1960   30.6820   47.8860 O.2    13  GLY13      -0.2717
     13  N        -96.2260   30.5350   48.9550 N.am   14  ASN14      -0.1974
     14  CA       -95.6120   31.2500   47.8450 C.3    14  ASN14       0.1688
     15  C        -94.9770   30.2660   46.8730 C.2    14  ASN14       0.2292
     16  O        -95.2190   30.3500   45.6610 O.2    14  ASN14      -0.2864
     17  CB       -94.5810   32.2780   48.3220 C.3    14  ASN14       0.1181
     18  CG       -94.2640   33.3170   47.2510 C.2    14  ASN14       0.2629
     19  OD1      -94.5650   33.1220   46.0690 O.2    14  ASN14      -0.2716
     20  ND2      -93.6580   34.4280   47.6630 N.am   14  ASN14      -0.0877
     21  N        -94.0820   37.9990   36.9940 N.3   273  TYR273     -0.1227
     22  CA       -94.7720   39.2750   37.0310 C.3   273  TYR273      0.1736
     23  C        -94.4320   39.9590   38.3410 C.2   273  TYR273      0.2596
     24  O        -94.3510   39.3010   39.3820 O.2   273  TYR273     -0.2718
     25  CB       -96.2940   39.0930   36.8980 C.3   273  TYR273      0.0548
     26  CG       -96.6900   38.4390   35.5990 C.ar  273  TYR273     -0.0200
     27  CD1      -96.7140   37.0590   35.4750 C.ar  273  TYR273     -0.0009
     28  CD2      -97.0200   39.2090   34.4890 C.ar  273  TYR273     -0.0009
     29  CE1      -97.0610   36.4600   34.2870 C.ar  273  TYR273      0.0417
     30  CE2      -97.3700   38.6190   33.2990 C.ar  273  TYR273      0.0417
     31  CZ       -97.3900   37.2440   33.2030 C.ar  273  TYR273      0.1957
     32  OH       -97.7370   36.6430   32.0130 O.3   273  TYR273     -0.2866
     33  N        -94.2180   41.2720   38.2710 N.am  274  GLY274     -0.1942
     34  CA       -93.7430   42.0400   39.3990 C.3   274  GLY274      0.2014
     35  C        -92.2390   42.1480   39.4460 C.2   274  GLY274      0.2639
     36  O        -91.5510   42.0180   38.4270 O.2   274  GLY274     -0.2714
     37  N        -91.7080   42.3890   40.6440 N.am  275  GLY275     -0.1954
     38  CA       -90.2970   42.2780   40.9050 C.3   275  GLY275      0.1869
     39  C        -90.0330   41.2670   41.9950 C.2   275  GLY275      0.2309
     40  O        -90.9620   40.6180   42.5030 O.2   275  GLY275     -0.2863
     41  N        -89.3380   41.6850   45.0770 N.3   277  GLY277     -0.1210
     42  CA       -90.0550   41.9860   46.3050 C.3   277  GLY277      0.1956
     43  C        -91.5320   41.6420   46.2410 C.2   277  GLY277      0.2612
     44  O        -92.1690   41.4230   47.2770 O.2   277  GLY277     -0.2717
     45  N        -92.0960   41.5980   45.0360 N.am  278  GLY278     -0.1942
     46  CA       -93.4820   41.2100   44.8560 C.3   278  GLY278      0.2014
     47  C        -93.6870   40.6170   43.4810 C.2   278  GLY278      0.2639
     48  O        -93.6690   41.3460   42.4870 O.2   278  GLY278     -0.2714
     49  N        -93.8540   39.3020   43.4010 N.am  279  GLY279     -0.1939
     50  CA       -93.9160   38.6610   42.1020 C.3   279  GLY279      0.2014
     51  C        -94.6030   37.3240   42.1400 C.2   279  GLY279      0.2638
     52  O        -94.8010   36.7150   43.2000 O.2   279  GLY279     -0.2714
     53  N        -94.9540   36.8550   40.9430 N.am  280  HIS280     -0.1973
     54  CA       -95.7390   35.6460   40.7420 C.3   280  HIS280      0.1656
     55  C        -95.3300   35.0370   39.4090 C.2   280  HIS280      0.2291
     56  O        -95.0930   35.7640   38.4420 O.2   280  HIS280     -0.2864
     57  CB       -97.2480   35.9480   40.7780 C.3   280  HIS280      0.0771
     58  CG       -98.1230   34.7470   40.5770 C.ar  280  HIS280      0.0820
     59  ND1      -97.9760   33.5880   41.3110 N.ar  280  HIS280     -0.2267
     60  CD2      -99.1710   34.5340   39.7480 C.ar  280  HIS280      0.1154
     61  CE1      -98.8820   32.7080   40.9280 C.ar  280  HIS280      0.1986
     62  NE2      -99.6230   33.2580   39.9830 N.ar  280  HIS280     -0.2212
     63  N        -95.9670   32.3190   36.1860 N.3   282  THR282     -0.1218
     64  CA       -96.9380   31.5260   35.4340 C.3   282  THR282      0.1862
     65  C        -96.2650   30.8070   34.2710 C.2   282  THR282      0.2287
     66  O        -95.0460   30.8990   34.1070 O.2   282  THR282     -0.2866
     67  CB       -98.0700   32.4120   34.9160 C.3   282  THR282      0.1770
     68  OG1      -97.5170   33.4960   34.1570 O.3   282  THR282     -0.2211
     69  CG2      -98.8940   32.9650   36.0460 C.3   282  THR282      0.0375
     70  N       -102.1420   28.6860   28.9690 N.3   295  TYR295     -0.1241
     71  CA      -101.6390   29.5410   30.0320 C.3   295  TYR295      0.1605
     72  C       -102.0020   28.8990   31.3640 C.2   295  TYR295      0.2264
     73  O       -103.1870   28.6540   31.6440 O.2   295  TYR295     -0.2867
     74  CB      -102.2450   30.9390   29.9090 C.3   295  TYR295      0.0534
     75  CG      -101.7020   31.9580   30.8770 C.ar  295  TYR295     -0.0201
     76  CD1     -100.4220   32.4550   30.7220 C.ar  295  TYR295     -0.0009
     77  CD2     -102.4850   32.4520   31.9260 C.ar  295  TYR295     -0.0009
     78  CE1      -99.9110   33.3860   31.5840 C.ar  295  TYR295      0.0417
     79  CE2     -101.9840   33.3990   32.8010 C.ar  295  TYR295      0.0417
     80  CZ      -100.6830   33.8610   32.6210 C.ar  295  TYR295      0.1957
     81  OH      -100.1380   34.7990   33.4650 O.3   295  TYR295     -0.2866
     82  N       -101.7770   29.3060   35.4140 N.3   297  ASP297     -0.1225
     83  CA      -101.6440   30.2160   36.5510 C.3   297  ASP297      0.1805
     84  C       -102.1470   29.4360   37.7580 C.2   297  ASP297      0.2597
     85  O       -103.3320   29.4970   38.0920 O.2   297  ASP297     -0.2718
     86  CB      -102.4250   31.5040   36.3510 C.3   297  ASP297      0.1424
     87  CG      -102.0750   32.5520   37.3790 C.2   297  ASP297      0.3668
     88  OD1     -101.4300   32.1890   38.3800 O.co2 297  ASP297     -0.2456
     89  OD2     -102.4190   33.7370   37.1730 O.co2 297  ASP297     -0.2456
     90  N       -101.2450   28.7010   38.3920 N.am  298  ASP298     -0.1974
     91  CA      -101.5490   27.8190   39.5140 C.3   298  ASP298      0.1709
     92  C       -102.6830   26.8980   39.0750 C.2   298  ASP298      0.2293
     93  O       -102.5240   26.1910   38.0630 O.2   298  ASP298     -0.2864
     94  CB      -101.8030   28.6360   40.7770 C.3   298  ASP298      0.1436
     95  CG      -100.5470   29.3670   41.2550 C.2   298  ASP298      0.3671
     96  OD1      -99.4300   28.7980   41.1730 O.co2 298  ASP298     -0.2456
     97  OD2     -100.6620   30.5170   41.7090 O.co2 298  ASP298     -0.2456
@<TRIPOS>BOND
     1    70    71    1
     2    74    71    1
     3    74    75    1
     4    71    72    1
     5    76    75   ar
     6    76    78   ar
     7    75    77   ar
     8    72    73    2
     9    78    80   ar
    10    77    79   ar
    11    32    31    1
    12    80    79   ar
    13    80    81    1
    14    31    30   ar
    15    31    29   ar
    16    30    28   ar
    17    66    65    2
    18    68    67    1
    19    65    64    1
    20    29    27   ar
    21    28    26   ar
    22    67    64    1
    23    67    69    1
    24    82    83    1
    25    64    63    1
    26    27    26   ar
    27    26    25    1
    28    86    83    1
    29    86    87    1
    30    83    84    1
    31    25    22    1
    32    21    22    1
    33    22    23    1
    34    89    87   ar
    35    87    88   ar
    36    84    85    2
    37    84    90   am
    38    93    92    2
    39    33    23   am
    40    33    34    1
    41    23    24    2
    42    90    91    1
    43    36    35    2
    44    56    55    2
    45    92    91    1
    46    34    35    1
    47    55    54    1
    48    35    37   am
    49    91    94    1
    50    60    62   ar
    51    60    58   ar
    52    62    61   ar
    53    58    57    1
    54    58    59   ar
    55    37    38    1
    56    54    57    1
    57    54    53    1
    58    94    95    1
    59    38    39    1
    60    61    59   ar
    61    53    51   am
    62    96    95   ar
    63    95    97   ar
    64    39    40    2
    65    50    51    1
    66    50    49    1
    67    51    52    2
    68    48    47    2
    69    49    47   am
    70    47    46    1
    71     1     2    1
    72    46    45    1
    73     8     6   am
    74    45    43   am
    75    41    42    1
    76     5     6    1
    77     5     2    1
    78     6     7    2
    79     2     3    1
    80    16    15    2
    81    19    18    2
    82    43    42    1
    83    43    44    2
    84     3     4    2
    85    15    14    1
    86    18    20   am
    87    18    17    1
    88    14    17    1
    89    14    13    1
    90    12    11    2
    91    11    13   am
    92    11    10    1
    93     9    10    1
