@<TRIPOS>MOLECULE
tmp/6ghmB00.pdb
 152 149 0 0 0
SMALL
GASTEIGER

@<TRIPOS>ATOM
      1  N        -41.8770  -51.9090 -125.9580 N.3    52  ASP52      -0.1239
      2  CA       -40.5880  -51.7280 -126.6300 C.3    52  ASP52       0.1674
      3  C        -39.6170  -52.8730 -126.3630 C.2    52  ASP52       0.2266
      4  O        -39.4640  -53.3300 -125.2230 O.2    52  ASP52      -0.2867
      5  CB       -39.9160  -50.4270 -126.1690 C.3    52  ASP52       0.1410
      6  CG       -40.7280  -49.1850 -126.4860 C.2    52  ASP52       0.3668
      7  OD1      -41.9610  -49.2920 -126.6400 O.co2  52  ASP52      -0.2456
      8  OD2      -40.1270  -48.0900 -126.5510 O.co2  52  ASP52      -0.2456
      9  N        -36.3590  -52.8300 -128.6130 N.3    54  HIS54      -0.1241
     10  CA       -35.1360  -52.0810 -128.9050 C.3    54  HIS54       0.1621
     11  C        -33.9130  -52.9980 -128.9970 C.2    54  HIS54       0.2264
     12  O        -32.8720  -52.7600 -128.3810 O.2    54  HIS54      -0.2867
     13  CB       -34.9180  -50.9710 -127.8670 C.3    54  HIS54       0.0745
     14  CG       -35.7670  -49.7550 -128.1020 C.ar   54  HIS54       0.0817
     15  ND1      -35.6870  -49.0060 -129.2550 N.ar   54  HIS54      -0.2268
     16  CD2      -36.7240  -49.1690 -127.3410 C.ar   54  HIS54       0.1154
     17  CE1      -36.5570  -48.0130 -129.1970 C.ar   54  HIS54       0.1986
     18  NE2      -37.2030  -48.0930 -128.0480 N.ar   54  HIS54      -0.2212
     19  N        -41.2050  -50.4340 -131.7860 N.3    80  ASP80      -0.1239
     20  CA       -39.8510  -50.1440 -131.2990 C.3    80  ASP80       0.1674
     21  C        -39.0600  -51.4410 -131.1060 C.2    80  ASP80       0.2266
     22  O        -38.5420  -51.7500 -130.0300 O.2    80  ASP80      -0.2867
     23  CB       -39.9050  -49.2940 -130.0160 C.3    80  ASP80       0.1410
     24  CG       -40.0430  -47.7890 -130.3060 C.2    80  ASP80       0.3668
     25  OD1      -40.2880  -47.4270 -131.4760 O.co2  80  ASP80      -0.2456
     26  OD2      -39.8960  -46.9640 -129.3940 O.co2  80  ASP80      -0.2456
     27  N        -30.8980  -48.7290 -130.4600 N.3    84  ARG84      -0.1245
     28  CA       -30.3880  -48.6760 -129.0890 C.3    84  ARG84       0.1563
     29  C        -29.7400  -49.9880 -128.6470 C.2    84  ARG84       0.2260
     30  O        -28.6240  -49.9750 -128.1190 O.2    84  ARG84      -0.2867
     31  CB       -31.5010  -48.2640 -128.1280 C.3    84  ARG84       0.0307
     32  CG       -32.1620  -46.9480 -128.5190 C.3    84  ARG84       0.0489
     33  CD       -32.1290  -45.9430 -127.3710 C.3    84  ARG84       0.2205
     34  NE       -32.5250  -44.5900 -127.7710 N.pl3  84  ARG84      -0.0865
     35  CZ       -33.7870  -44.1850 -127.9240 C.cat  84  ARG84       0.5346
     36  NH1      -34.7850  -45.0390 -127.7380 N.pl3  84  ARG84       0.1354
     37  NH2      -34.0560  -42.9310 -128.2840 N.pl3  84  ARG84       0.1354
     38  N        -42.2910  -45.6300 -133.3180 N.3   112  ASN112     -0.1225
     39  CA       -41.6460  -44.4740 -133.9450 C.3   112  ASN112      0.1785
     40  C        -40.2350  -44.7990 -134.4300 C.2   112  ASN112      0.2597
     41  O        -39.7320  -44.1090 -135.3240 O.2   112  ASN112     -0.2718
     42  CB       -41.6510  -43.2390 -133.0140 C.3   112  ASN112      0.1169
     43  CG       -40.8150  -43.4150 -131.7420 C.2   112  ASN112      0.2627
     44  OD1      -40.9990  -44.3640 -130.9710 O.2   112  ASN112     -0.2716
     45  ND2      -39.9370  -42.4440 -131.4880 N.am  112  ASN112     -0.0877
     46  N        -39.6120  -45.8670 -133.9210 N.am  113  HIS113     -0.1975
     47  CA       -38.3260  -46.2960 -134.4570 C.3   113  HIS113      0.1656
     48  C        -38.4410  -47.1890 -135.6820 C.2   113  HIS113      0.2291
     49  O        -37.4140  -47.4940 -136.2920 O.2   113  HIS113     -0.2864
     50  CB       -37.5120  -47.0050 -133.3870 C.3   113  HIS113      0.0771
     51  CG       -37.0010  -46.0730 -132.3390 C.ar  113  HIS113      0.0820
     52  ND1      -35.6690  -45.7350 -132.2150 N.ar  113  HIS113     -0.2267
     53  CD2      -37.6610  -45.3660 -131.3940 C.ar  113  HIS113      0.1154
     54  CE1      -35.5270  -44.8900 -131.2080 C.ar  113  HIS113      0.1986
     55  NE2      -36.7210  -44.6490 -130.6950 N.ar  113  HIS113     -0.2212
     56  N        -30.3070  -43.9030 -134.5300 N.3   122  TYR122     -0.1241
     57  CA       -30.3410  -44.5020 -133.2000 C.3   122  TYR122      0.1605
     58  C        -29.8070  -45.9320 -133.1620 C.2   122  TYR122      0.2264
     59  O        -29.9400  -46.6020 -132.1320 O.2   122  TYR122     -0.2867
     60  CB       -31.7570  -44.4340 -132.6330 C.3   122  TYR122      0.0534
     61  CG       -32.0800  -43.0530 -132.0990 C.ar  122  TYR122     -0.0201
     62  CD1      -31.5550  -42.6110 -130.8870 C.ar  122  TYR122     -0.0009
     63  CD2      -32.8770  -42.1780 -132.8310 C.ar  122  TYR122     -0.0009
     64  CE1      -31.8400  -41.3410 -130.4060 C.ar  122  TYR122      0.0417
     65  CE2      -33.1610  -40.9090 -132.3670 C.ar  122  TYR122      0.0417
     66  CZ       -32.6410  -40.4930 -131.1550 C.ar  122  TYR122      0.1957
     67  OH       -32.9360  -39.2300 -130.6980 O.3   122  TYR122     -0.2866
     68  N        -45.8970  -41.1740 -131.4790 N.3   194  TRP194     -0.1241
     69  CA       -44.9820  -40.2680 -130.7870 C.3   194  TRP194      0.1605
     70  C        -45.5330  -39.6040 -129.5250 C.2   194  TRP194      0.2264
     71  O        -44.7550  -39.1720 -128.6710 O.2   194  TRP194     -0.2867
     72  CB       -44.5350  -39.1610 -131.7360 C.3   194  TRP194      0.0550
     73  CG       -43.4340  -39.5430 -132.6760 C.ar  194  TRP194      0.0003
     74  CD1      -43.5720  -40.0500 -133.9310 C.ar  194  TRP194      0.0946
     75  CD2      -42.0250  -39.4250 -132.4410 C.ar  194  TRP194      0.0152
     76  NE1      -42.3380  -40.2480 -134.5020 N.ar  194  TRP194     -0.2442
     77  CE2      -41.3700  -39.8790 -133.6060 C.ar  194  TRP194      0.0810
     78  CE3      -41.2530  -38.9830 -131.3590 C.ar  194  TRP194      0.0012
     79  CZ2      -39.9850  -39.9110 -133.7230 C.ar  194  TRP194      0.0191
     80  CZ3      -39.8690  -39.0040 -131.4800 C.ar  194  TRP194      0.0001
     81  CH2      -39.2510  -39.4650 -132.6610 C.ar  194  TRP194      0.0015
     82  N        -40.0320  -34.2240 -126.7650 N.3   209  ARG209     -0.1245
     83  CA       -39.3270  -34.9150 -127.8370 C.3   209  ARG209      0.1563
     84  C        -39.0760  -34.0240 -129.0490 C.2   209  ARG209      0.2260
     85  O        -38.2340  -34.3670 -129.8870 O.2   209  ARG209     -0.2867
     86  CB       -40.1090  -36.1540 -128.2760 C.3   209  ARG209      0.0307
     87  CG       -40.2910  -37.2230 -127.2100 C.3   209  ARG209      0.0489
     88  CD       -41.3050  -38.2430 -127.6800 C.3   209  ARG209      0.2205
     89  NE       -41.7350  -39.1700 -126.6370 N.pl3 209  ARG209     -0.0865
     90  CZ       -41.0700  -40.2640 -126.3060 C.cat 209  ARG209      0.5346
     91  NH1      -39.9440  -40.5390 -126.9370 N.pl3 209  ARG209      0.1354
     92  NH2      -41.5290  -41.0810 -125.3600 N.pl3 209  ARG209      0.1354
     93  N        -43.7010  -46.9180 -125.5860 N.3   236  HIS236     -0.1226
     94  CA       -43.0210  -45.6870 -126.0150 C.3   236  HIS236      0.1752
     95  C        -42.1920  -45.0220 -124.9050 C.2   236  HIS236      0.2596
     96  O        -41.2350  -44.2990 -125.1970 O.2   236  HIS236     -0.2718
     97  CB       -44.0710  -44.7040 -126.5720 C.3   236  HIS236      0.0759
     98  CG       -43.5190  -43.5270 -127.3250 C.ar  236  HIS236      0.0818
     99  ND1      -42.4250  -43.6050 -128.1650 N.ar  236  HIS236     -0.2268
    100  CD2      -43.9430  -42.2400 -127.3780 C.ar  236  HIS236      0.1154
    101  CE1      -42.1990  -42.4210 -128.6970 C.ar  236  HIS236      0.1986
    102  NE2      -43.1100  -41.5760 -128.2410 N.ar  236  HIS236     -0.2212
    103  N        -42.5370  -45.2510 -123.6360 N.am  237  GLN237     -0.1965
    104  CA       -41.8170  -44.6520 -122.5130 C.3   237  GLN237      0.1733
    105  C        -41.3750  -45.7260 -121.5300 C.2   237  GLN237      0.2616
    106  O        -42.1870  -46.5570 -121.1050 O.2   237  GLN237     -0.2715
    107  CB       -42.6840  -43.6150 -121.7920 C.3   237  GLN237      0.0408
    108  CG       -42.7160  -42.2660 -122.4890 C.3   237  GLN237      0.0908
    109  CD       -43.6170  -41.2770 -121.7780 C.2   237  GLN237      0.2608
    110  OE1      -44.7730  -41.5840 -121.4710 O.2   237  GLN237     -0.2717
    111  NE2      -43.0970  -40.0860 -121.5140 N.am  237  GLN237     -0.0878
    112  N        -40.0900  -45.7010 -121.1650 N.am  238  VAL238     -0.1977
    113  CA       -39.5870  -46.6490 -120.1790 C.3   238  VAL238      0.1596
    114  C        -40.2460  -46.3490 -118.8420 C.2   238  VAL238      0.2287
    115  O        -40.4550  -45.1850 -118.4830 O.2   238  VAL238     -0.2864
    116  CB       -38.0470  -46.5980 -120.0940 C.3   238  VAL238      0.0276
    117  CG1      -37.5380  -45.2160 -119.6660 C.3   238  VAL238      0.0022
    118  CG2      -37.5220  -47.6730 -119.1530 C.3   238  VAL238      0.0022
    119  N        -43.6630  -51.5190 -121.1650 N.3   255  PHE255     -0.1241
    120  CA       -42.2850  -51.4490 -121.6340 C.3   255  PHE255      0.1605
    121  C        -41.6260  -52.7960 -121.3730 C.2   255  PHE255      0.2264
    122  O        -41.5240  -53.2280 -120.2240 O.2   255  PHE255     -0.2867
    123  CB       -41.5210  -50.3180 -120.9460 C.3   255  PHE255      0.0534
    124  CG       -40.2810  -49.8940 -121.6740 C.ar  255  PHE255     -0.0203
    125  CD1      -40.3490  -48.9720 -122.7070 C.ar  255  PHE255     -0.0042
    126  CD2      -39.0450  -50.4170 -121.3250 C.ar  255  PHE255     -0.0042
    127  CE1      -39.2140  -48.5710 -123.3840 C.ar  255  PHE255     -0.0003
    128  CE2      -37.8990  -50.0200 -121.9980 C.ar  255  PHE255     -0.0003
    129  CZ       -37.9850  -49.0930 -123.0290 C.ar  255  PHE255     -0.0000
    130  N        -33.0840  -50.9470 -119.6300 N.3   260  TYR260     -0.1241
    131  CA       -33.0770  -50.2740 -120.9200 C.3   260  TYR260      0.1605
    132  C        -31.7680  -49.5210 -121.1290 C.2   260  TYR260      0.2264
    133  O        -31.3780  -48.7040 -120.2890 O.2   260  TYR260     -0.2867
    134  CB       -34.2610  -49.3210 -120.9780 C.3   260  TYR260      0.0534
    135  CG       -34.4120  -48.5680 -122.2690 C.ar  260  TYR260     -0.0201
    136  CD1      -34.3410  -49.2230 -123.4880 C.ar  260  TYR260     -0.0009
    137  CD2      -34.6660  -47.2080 -122.2670 C.ar  260  TYR260     -0.0009
    138  CE1      -34.4930  -48.5420 -124.6720 C.ar  260  TYR260      0.0417
    139  CE2      -34.8290  -46.5160 -123.4480 C.ar  260  TYR260      0.0417
    140  CZ       -34.7450  -47.1850 -124.6400 C.ar  260  TYR260      0.1957
    141  OH       -34.9160  -46.4970 -125.8050 O.3   260  TYR260     -0.2866
    142  N        -30.9360  -47.5800 -117.1110 N.3   264  PHE264     -0.1241
    143  CA       -31.9770  -47.6850 -116.1030 C.3   264  PHE264      0.1605
    144  C        -31.9430  -49.0530 -115.4360 C.2   264  PHE264      0.2264
    145  O        -31.3270  -50.0020 -115.9300 O.2   264  PHE264     -0.2867
    146  CB       -33.3550  -47.4510 -116.7210 C.3   264  PHE264      0.0534
    147  CG       -33.4430  -46.2030 -117.5420 C.ar  264  PHE264     -0.0203
    148  CD1      -33.1210  -46.2200 -118.8880 C.ar  264  PHE264     -0.0042
    149  CD2      -33.8470  -45.0100 -116.9660 C.ar  264  PHE264     -0.0042
    150  CE1      -33.1930  -45.0680 -119.6410 C.ar  264  PHE264     -0.0003
    151  CE2      -33.9250  -43.8540 -117.7180 C.ar  264  PHE264     -0.0003
    152  CZ       -33.6000  -43.8820 -119.0540 C.ar  264  PHE264     -0.0000
@<TRIPOS>BOND
     1    49    48    2
     2    48    47    1
     3    41    40    2
     4    56    57    1
     5    76    74   ar
     6    76    77   ar
     7    47    46    1
     8    47    50    1
     9    40    39    1
    10    40    46   am
    11    39    38    1
    12    39    42    1
    13    74    73   ar
    14    79    77   ar
    15    79    81   ar
    16    77    75   ar
    17    50    51    1
    18    57    58    1
    19    57    60    1
    20    58    59    2
    21    42    43    1
    22    63    65   ar
    23    63    61   ar
    24    73    75   ar
    25    73    72    1
    26    81    80   ar
    27    60    61    1
    28    75    78   ar
    29    65    66   ar
    30    51    52   ar
    31    51    53   ar
    32    52    54   ar
    33    61    62   ar
    34    19    20    1
    35    43    45   am
    36    43    44    2
    37    72    69    1
    38    80    78   ar
    39    68    69    1
    40    25    24   ar
    41    53    55   ar
    42    20    21    1
    43    20    23    1
    44    54    55   ar
    45    66    67    1
    46    66    64   ar
    47    21    22    2
    48    62    64   ar
    49    69    70    1
    50    27    28    1
    51    24    23    1
    52    24    26   ar
    53    85    84    2
    54    70    71    2
    55    15    17   ar
    56    15    14   ar
    57    17    18   ar
    58    28    29    1
    59    28    31    1
    60    84    83    1
    61    11    10    1
    62    11    12    2
    63    10     9    1
    64    10    13    1
    65   101   102   ar
    66   101    99   ar
    67    29    30    2
    68    32    31    1
    69    32    33    1
    70    37    35    1
    71    86    83    1
    72    86    87    1
    73   102   100   ar
    74    99    98   ar
    75    14    13    1
    76    14    16   ar
    77    18    16   ar
    78    35    34    2
    79    35    36    1
    80    83    82    1
    81    34    33    1
    82    88    87    1
    83    88    89    1
    84   100    98   ar
    85    98    97    1
    86    91    90    1
    87     7     6   ar
    88    89    90    2
    89     2     3    1
    90     2     5    1
    91     2     1    1
    92    97    94    1
    93     8     6   ar
    94     6     5    1
    95     3     4    2
    96    90    92    1
    97    94    93    1
    98    94    95    1
    99   141   140    1
   100    96    95    2
   101    95   103   am
   102   138   140   ar
   103   138   136   ar
   104   140   139   ar
   105   103   104    1
   106   136   135   ar
   107   139   137   ar
   108   127   129   ar
   109   127   125   ar
   110   129   128   ar
   111   125   124   ar
   112   104   107    1
   113   104   105    1
   114   108   107    1
   115   108   109    1
   116   135   137   ar
   117   135   134    1
   118   128   126   ar
   119   109   111   am
   120   109   110    2
   121   124   126   ar
   122   124   123    1
   123   120   121    1
   124   120   119    1
   125   120   123    1
   126   105   112   am
   127   105   106    2
   128   121   122    2
   129   112   113    1
   130   132   131    1
   131   132   133    2
   132   134   131    1
   133   131   130    1
   134   113   116    1
   135   113   114    1
   136   116   117    1
   137   116   118    1
   138   150   152   ar
   139   150   148   ar
   140   152   151   ar
   141   148   147   ar
   142   114   115    2
   143   151   149   ar
   144   147   149   ar
   145   147   146    1
   146   142   143    1
   147   146   143    1
   148   143   144    1
   149   145   144    2
