@<TRIPOS>MOLECULE
tmp/6ghxA00.pdb
 129 124 0 0 0
SMALL
GASTEIGER

@<TRIPOS>ATOM
      1  N         13.6420   44.1900    0.1210 N.3   112  ASN112     -0.1225
      2  CA        13.4310   43.1590   -0.8810 C.3   112  ASN112      0.1785
      3  C         14.5540   42.1360   -0.8090 C.2   112  ASN112      0.2597
      4  O         15.5240   42.2760   -0.0550 O.2   112  ASN112     -0.2718
      5  CB        13.3350   43.7690   -2.2850 C.3   112  ASN112      0.1169
      6  CG        12.2310   43.1460   -3.1180 C.2   112  ASN112      0.2627
      7  OD1       11.9430   41.9540   -2.9910 O.2   112  ASN112     -0.2716
      8  ND2       11.6110   43.9520   -3.9820 N.am  112  ASN112     -0.0877
      9  N         14.3760   41.0880   -1.6000 N.am  113  ALA113     -0.1966
     10  CA        15.3470   40.0280   -1.8050 C.3   113  ALA113      0.1728
     11  C         15.1000   39.5060   -3.2070 C.2   113  ALA113      0.2616
     12  O         13.9780   39.5880   -3.7130 O.2   113  ALA113     -0.2715
     13  CB        15.1350   38.8950   -0.8070 C.3   113  ALA113      0.0334
     14  N         16.1530   39.0090   -3.8540 N.am  114  PHE114     -0.1974
     15  CA        15.9890   38.6050   -5.2420 C.3   114  PHE114      0.1639
     16  C         17.0830   37.6460   -5.6740 C.2   114  PHE114      0.2290
     17  O         18.1560   37.5720   -5.0710 O.2   114  PHE114     -0.2864
     18  CB        15.9390   39.8060   -6.1990 C.3   114  PHE114      0.0560
     19  CG        17.1330   40.7430   -6.1000 C.ar  114  PHE114     -0.0200
     20  CD1       17.1860   41.7280   -5.1200 C.ar  114  PHE114     -0.0042
     21  CD2       18.1800   40.6570   -7.0060 C.ar  114  PHE114     -0.0042
     22  CE1       18.2790   42.5990   -5.0370 C.ar  114  PHE114     -0.0003
     23  CE2       19.2530   41.5180   -6.9370 C.ar  114  PHE114     -0.0003
     24  CZ        19.3050   42.4970   -5.9620 C.ar  114  PHE114     -0.0000
     25  N         10.0450   45.4100    6.6060 N.3   130  PHE130     -0.1241
     26  CA        10.6960   44.1160    6.7310 C.3   130  PHE130      0.1605
     27  C         11.7890   44.1970    7.7810 C.2   130  PHE130      0.2264
     28  O         12.3830   45.2550    8.0060 O.2   130  PHE130     -0.2867
     29  CB        11.4220   43.7270    5.4420 C.3   130  PHE130      0.0534
     30  CG        10.5250   43.2060    4.3560 C.ar  130  PHE130     -0.0203
     31  CD1        9.8990   41.9770    4.4800 C.ar  130  PHE130     -0.0042
     32  CD2       10.3280   43.9420    3.1970 C.ar  130  PHE130     -0.0042
     33  CE1        9.0820   41.4890    3.4730 C.ar  130  PHE130     -0.0003
     34  CE2        9.5170   43.4600    2.1830 C.ar  130  PHE130     -0.0003
     35  CZ         8.8960   42.2320    2.3200 C.ar  130  PHE130     -0.0000
     36  N         15.5200   39.8590    5.2660 N.3   133  LEU133     -0.1245
     37  CA        14.5720   38.9980    4.5600 C.3   133  LEU133      0.1561
     38  C         14.9670   37.5250    4.5580 C.2   133  LEU133      0.2260
     39  O         14.0890   36.6720    4.3760 O.2   133  LEU133     -0.2867
     40  CB        14.3040   39.5380    3.1480 C.3   133  LEU133      0.0270
     41  CG        13.3490   40.7430    3.1330 C.3   133  LEU133      0.0019
     42  CD1       14.0850   42.0690    3.3290 C.3   133  LEU133      0.0001
     43  CD2       12.5160   40.7700    1.8570 C.3   133  LEU133      0.0001
     44  N         10.8320   32.9030    1.8650 N.3   139  VAL139     -0.1245
     45  CA        11.4940   33.9060    1.0360 C.3   139  VAL139      0.1561
     46  C         12.7460   33.3250    0.3880 C.2   139  VAL139      0.2260
     47  O         12.9760   33.4970   -0.8170 O.2   139  VAL139     -0.2867
     48  CB        11.8180   35.1560    1.8740 C.3   139  VAL139      0.0252
     49  CG1       12.6140   36.1530    1.0460 C.3   139  VAL139      0.0019
     50  CG2       10.5480   35.7910    2.4030 C.3   139  VAL139      0.0019
     51  N         11.7080   30.7380   -2.1660 N.3   142  HIS142     -0.1226
     52  CA        11.1160   31.4490   -3.2960 C.3   142  HIS142      0.1752
     53  C         12.1970   31.9640   -4.2330 C.2   142  HIS142      0.2595
     54  O         12.1420   31.7710   -5.4580 O.2   142  HIS142     -0.2718
     55  CB        10.2850   32.6080   -2.7330 C.3   142  HIS142      0.0759
     56  CG         9.7860   33.5800   -3.7550 C.ar  142  HIS142      0.0818
     57  ND1        8.4440   33.7350   -4.0380 N.ar  142  HIS142     -0.2268
     58  CD2       10.4370   34.4750   -4.5280 C.ar  142  HIS142      0.1154
     59  CE1        8.2900   34.6760   -4.9470 C.ar  142  HIS142      0.1986
     60  NE2        9.4850   35.1320   -5.2630 N.ar  142  HIS142     -0.2212
     61  N         13.2060   32.6120   -3.6730 N.am  143  GLU143     -0.1979
     62  CA        14.1980   33.2100   -4.5450 C.3   143  GLU143      0.1602
     63  C         15.0870   32.1580   -5.2040 C.2   143  GLU143      0.2287
     64  O         15.4190   32.2770   -6.3930 O.2   143  GLU143     -0.2864
     65  CB        15.0170   34.1990   -3.7510 C.3   143  GLU143      0.0415
     66  CG        14.2780   35.2280   -2.9490 C.3   143  GLU143      0.1163
     67  CD        13.5770   36.2370   -3.8000 C.2   143  GLU143      0.3649
     68  OE1       13.7090   36.1930   -5.0410 O.co2 143  GLU143     -0.2457
     69  OE2       12.8680   37.0870   -3.2100 O.co2 143  GLU143     -0.2457
     70  N         13.6070   30.7640   -8.3440 N.3   146  HIS146     -0.1241
     71  CA        13.8240   31.4970   -9.5920 C.3   146  HIS146      0.1621
     72  C         15.0030   30.9310  -10.3680 C.2   146  HIS146      0.2264
     73  O         14.9850   30.9090  -11.6000 O.2   146  HIS146     -0.2867
     74  CB        14.0630   32.9820   -9.3310 C.3   146  HIS146      0.0745
     75  CG        12.8170   33.7540   -9.0510 C.ar  146  HIS146      0.0817
     76  ND1       11.7030   33.7260   -9.8680 N.ar  146  HIS146     -0.2268
     77  CD2       12.5190   34.5820   -8.0340 C.ar  146  HIS146      0.1154
     78  CE1       10.7660   34.4990   -9.3480 C.ar  146  HIS146      0.1986
     79  NE2       11.2420   35.0310   -8.2430 N.ar  146  HIS146     -0.2212
     80  N          6.5410   33.9560  -10.8380 N.3   166  GLU166     -0.1245
     81  CA         6.3540   34.3300   -9.4330 C.3   166  GLU166      0.1567
     82  C          5.5990   33.2580   -8.6510 C.2   166  GLU166      0.2260
     83  O          5.9760   32.9180   -7.5210 O.2   166  GLU166     -0.2867
     84  CB         5.6010   35.6560   -9.3390 C.3   166  GLU166      0.0388
     85  CG         6.5130   36.8500   -9.4190 C.3   166  GLU166      0.1160
     86  CD         7.4800   36.8500   -8.3050 C.2   166  GLU166      0.3649
     87  OE1        7.0590   36.5980   -7.1490 O.co2 166  GLU166     -0.2457
     88  OE2        8.6460   37.0930   -8.6240 O.co2 166  GLU166     -0.2457
     89  N          2.9870   34.1060    2.4500 N.3   188  ILE188     -0.1231
     90  CA         4.3310   34.4040    1.9550 C.3   188  ILE188      0.1692
     91  C          4.9450   35.5170    2.7990 C.2   188  ILE188      0.2592
     92  O          4.4100   36.6310    2.8610 O.2   188  ILE188     -0.2718
     93  CB         4.3280   34.8020    0.4720 C.3   188  ILE188      0.0266
     94  CG1        3.6180   33.7380   -0.3620 C.3   188  ILE188      0.0019
     95  CG2        5.7480   35.0590   -0.0120 C.3   188  ILE188      0.0020
     96  CD1        4.3420   32.4110   -0.4100 C.3   188  ILE188      0.0001
     97  N          6.0850   35.2290    3.4220 N.am  189  GLY189     -0.1957
     98  CA         6.8950   36.2710    4.0210 C.3   189  GLY189      0.1869
     99  C          6.5070   36.6520    5.4250 C.2   189  GLY189      0.2309
    100  O          7.0650   37.6170    5.9660 O.2   189  GLY189     -0.2863
    101  N          2.7870   39.0590    3.2430 N.3   202  LEU202     -0.1231
    102  CA         3.0170   39.8330    2.0270 C.3   202  LEU202      0.1693
    103  C          2.0370   39.4210    0.9340 C.2   202  LEU202      0.2591
    104  O          1.4130   40.2650    0.2900 O.2   202  LEU202     -0.2718
    105  CB         4.4560   39.6530    1.5410 C.3   202  LEU202      0.0284
    106  CG         4.8210   40.3530    0.2300 C.3   202  LEU202      0.0019
    107  CD1        4.6970   41.8620    0.3740 C.3   202  LEU202      0.0001
    108  CD2        6.2240   39.9660   -0.2120 C.3   202  LEU202      0.0001
    109  N          1.7830   38.1270    0.8190 N.am  203  ARG203     -0.1980
    110  CA         0.7710   37.5540   -0.0470 C.3   203  ARG203      0.1597
    111  C          0.1830   36.3550    0.6730 C.2   203  ARG203      0.2287
    112  O          0.8150   35.7650    1.5560 O.2   203  ARG203     -0.2864
    113  CB         1.3730   37.0520   -1.3660 C.3   203  ARG203      0.0334
    114  CG         1.8790   38.1380   -2.2780 C.3   203  ARG203      0.0492
    115  CD         2.4370   37.5350   -3.5650 C.3   203  ARG203      0.2205
    116  NE         3.7230   36.8450   -3.4430 N.pl3 203  ARG203     -0.0865
    117  CZ         4.8980   37.4690   -3.3700 C.cat 203  ARG203      0.5346
    118  NH1        4.9600   38.7920   -3.3530 N.pl3 203  ARG203      0.1354
    119  NH2        6.0200   36.7700   -3.3120 N.pl3 203  ARG203      0.1354
    120  N          3.5460   40.0280   -9.5260 N.3   231  HIS231     -0.1241
    121  CA         3.2720   39.7080   -8.1240 C.3   231  HIS231      0.1621
    122  C          1.8020   39.8490   -7.7710 C.2   231  HIS231      0.2264
    123  O          1.4250   39.5940   -6.6160 O.2   231  HIS231     -0.2867
    124  CB         4.0510   40.6350   -7.1890 C.3   231  HIS231      0.0745
    125  CG         5.5340   40.4940   -7.2850 C.ar  231  HIS231      0.0817
    126  ND1        6.2940   41.2960   -8.1040 N.ar  231  HIS231     -0.2268
    127  CD2        6.3970   39.6570   -6.6630 C.ar  231  HIS231      0.1154
    128  CE1        7.5650   40.9500   -7.9950 C.ar  231  HIS231      0.1986
    129  NE2        7.6540   39.9610   -7.1250 N.ar  231  HIS231     -0.2212
@<TRIPOS>BOND
     1    73    72    2
     2    80    81    1
     3    72    71    1
     4    76    78   ar
     5    76    75   ar
     6    71    74    1
     7    71    70    1
     8   120   121    1
     9    81    84    1
    10    81    82    1
    11    85    84    1
    12    85    86    1
    13    78    79   ar
    14    74    75    1
    15    75    77   ar
    16    82    83    2
    17    88    86   ar
    18    86    87   ar
    19    79    77   ar
    20   121   122    1
    21   121   124    1
    22   126   128   ar
    23   126   125   ar
    24   128   129   ar
    25   122   123    2
    26   125   124    1
    27   125   127   ar
    28   129   127   ar
    29    21    23   ar
    30    21    19   ar
    31    23    24   ar
    32    64    63    2
    33    18    19    1
    34    18    15    1
    35    19    20   ar
    36    24    22   ar
    37    16    15    1
    38    16    17    2
    39    54    53    2
    40    60    59   ar
    41    60    58   ar
    42    15    14    1
    43    63    62    1
    44    20    22   ar
    45    68    67   ar
    46    59    57   ar
    47    62    65    1
    48    62    61    1
    49    58    56   ar
    50    53    61   am
    51    53    52    1
    52    57    56   ar
    53     8     6   am
    54    14    11   am
    55    67    69   ar
    56    67    66    1
    57    56    55    1
    58    65    66    1
    59    12    11    2
    60   115   116    1
    61   115   114    1
    62   116   117    2
    63   117   118    1
    64   117   119    1
    65    52    55    1
    66    52    51    1
    67    11    10    1
    68     6     7    2
    69     6     5    1
    70     5     2    1
    71   114   113    1
    72    10     9    1
    73    10    13    1
    74     9     3   am
    75   113   110    1
    76     2     3    1
    77     2     1    1
    78    47    46    2
    79     3     4    2
    80    96    94    1
    81    94    93    1
    82   108   106    1
    83   110   111    1
    84   110   109    1
    85    95    93    1
    86   106   107    1
    87   106   105    1
    88   104   103    2
    89    46    45    1
    90    93    90    1
    91   111   112    2
    92   109   103   am
    93   103   102    1
    94    45    44    1
    95    45    48    1
    96    49    48    1
    97   105   102    1
    98    43    41    1
    99    48    50    1
   100    90    89    1
   101    90    91    1
   102   102   101    1
   103    34    35   ar
   104    34    32   ar
   105    35    33   ar
   106    91    92    2
   107    91    97   am
   108    41    40    1
   109    41    42    1
   110    40    37    1
   111    32    30   ar
   112    97    98    1
   113    33    31   ar
   114    98    99    1
   115    30    31   ar
   116    30    29    1
   117    39    38    2
   118    38    37    1
   119    37    36    1
   120    99   100    2
   121    29    26    1
   122    25    26    1
   123    26    27    1
   124    27    28    2
