@<TRIPOS>MOLECULE
tmp/6gi1B00.pdb
 183 178 0 0 0
SMALL
GASTEIGER

@<TRIPOS>ATOM
      1  N          8.4850   -9.0310  -19.5590 N.3    54  ASP54      -0.1239
      2  CA         7.0800   -8.6160  -19.4220 C.3    54  ASP54       0.1674
      3  C          6.9220   -7.1060  -19.4190 C.2    54  ASP54       0.2266
      4  O          6.3590   -6.5050  -18.4850 O.2    54  ASP54      -0.2867
      5  CB         6.4510   -9.2160  -18.1600 C.3    54  ASP54       0.1410
      6  CG         6.2210  -10.7090  -18.2900 C.2    54  ASP54       0.3668
      7  OD1        5.7130  -11.1390  -19.3600 O.co2  54  ASP54      -0.2456
      8  OD2        6.5520  -11.4370  -17.3270 O.co2  54  ASP54      -0.2456
      9  N         -1.6930   -6.0790  -20.5690 N.3    88  ARG88      -0.1231
     10  CA        -0.5770   -6.0320  -19.6230 C.3    88  ARG88       0.1694
     11  C          0.3920   -7.2020  -19.8460 C.2    88  ARG88       0.2591
     12  O          1.6060   -7.0690  -19.6640 O.2    88  ARG88      -0.2718
     13  CB        -1.1580   -6.0970  -18.2130 C.3    88  ARG88       0.0321
     14  CG        -0.2880   -5.5350  -17.1280 C.3    88  ARG88       0.0489
     15  CD        -1.0100   -5.6610  -15.7900 C.3    88  ARG88       0.2205
     16  NE        -0.0570   -5.6730  -14.6880 N.pl3  88  ARG88      -0.0865
     17  CZ         0.4700   -6.7630  -14.1390 C.cat  88  ARG88       0.5346
     18  NH1        0.1440   -7.9720  -14.5760 N.pl3  88  ARG88       0.1354
     19  NH2        1.3340   -6.6360  -13.1360 N.pl3  88  ARG88       0.1354
     20  N         -0.1590   -8.3400  -20.2590 N.am   89  ILE89      -0.1980
     21  CA         0.5950   -9.5830  -20.4150 C.3    89  ILE89       0.1595
     22  C          0.1860  -10.2220  -21.7700 C.2    89  ILE89       0.2287
     23  O         -0.9820  -10.1570  -22.1510 O.2    89  ILE89      -0.2864
     24  CB         0.2640  -10.5310  -19.2300 C.3    89  ILE89       0.0276
     25  CG1        0.8730   -9.9950  -17.9120 C.3    89  ILE89       0.0022
     26  CG2        0.6970  -11.9650  -19.5190 C.3    89  ILE89       0.0022
     27  CD1        2.3910  -10.1410  -17.7760 C.3    89  ILE89       0.0001
     28  N          0.1380  -13.7650  -23.4430 N.3    91  ARG91      -0.1245
     29  CA         0.3830  -15.1310  -22.9920 C.3    91  ARG91       0.1563
     30  C          1.0970  -15.9780  -24.0400 C.2    91  ARG91       0.2260
     31  O          2.0290  -16.7110  -23.7040 O.2    91  ARG91      -0.2867
     32  CB        -0.8820  -15.8020  -22.4340 C.3    91  ARG91       0.0307
     33  CG        -2.0060  -15.9920  -23.4320 C.3    91  ARG91       0.0489
     34  CD        -3.3220  -16.3200  -22.7220 C.3    91  ARG91       0.2205
     35  NE        -3.3560  -17.6790  -22.1660 N.pl3  91  ARG91      -0.0865
     36  CZ        -3.9250  -18.7370  -22.7530 C.cat  91  ARG91       0.5346
     37  NH1       -3.8930  -19.9240  -22.1560 N.pl3  91  ARG91       0.1354
     38  NH2       -4.5210  -18.6250  -23.9390 N.pl3  91  ARG91       0.1354
     39  N          4.9490  -14.7140  -24.4980 N.3    94  ARG94      -0.1245
     40  CA         5.7890  -15.0410  -23.3690 C.3    94  ARG94       0.1563
     41  C          5.9490  -16.5510  -23.1880 C.2    94  ARG94       0.2260
     42  O          7.0360  -17.0140  -22.8380 O.2    94  ARG94      -0.2867
     43  CB         5.3270  -14.3240  -22.0950 C.3    94  ARG94       0.0307
     44  CG         4.1350  -14.9220  -21.3920 C.3    94  ARG94       0.0489
     45  CD         3.6080  -13.9180  -20.3780 C.3    94  ARG94       0.2205
     46  NE         4.5700  -13.6370  -19.3060 N.pl3  94  ARG94      -0.0865
     47  CZ         4.7240  -14.4070  -18.2270 C.cat  94  ARG94       0.5346
     48  NH1        5.6110  -14.0690  -17.2730 N.pl3  94  ARG94       0.1354
     49  NH2        4.0110  -15.5250  -18.0910 N.pl3  94  ARG94       0.1354
     50  N          3.4060  -26.2000  -24.1630 N.3   106  ASP106     -0.1239
     51  CA         3.3920  -25.9710  -22.7320 C.3   106  ASP106      0.1674
     52  C          2.4120  -26.9830  -22.0900 C.2   106  ASP106      0.2266
     53  O          1.2600  -27.0660  -22.5040 O.2   106  ASP106     -0.2867
     54  CB         2.9330  -24.5560  -22.4520 C.3   106  ASP106      0.1410
     55  CG         3.1300  -24.1560  -20.9980 C.2   106  ASP106      0.3668
     56  OD1        2.3070  -24.5700  -20.1490 O.co2 106  ASP106     -0.2456
     57  OD2        4.1190  -23.4260  -20.7420 O.co2 106  ASP106     -0.2456
     58  N          0.7750  -26.9630  -19.3990 N.3   108  LEU108     -0.1231
     59  CA        -0.3380  -26.3540  -18.6860 C.3   108  LEU108      0.1693
     60  C         -1.2970  -25.6350  -19.6070 C.2   108  LEU108      0.2592
     61  O         -2.5010  -25.8770  -19.5320 O.2   108  LEU108     -0.2718
     62  CB         0.1630  -25.3860  -17.5970 C.3   108  LEU108      0.0284
     63  CG         0.2680  -26.0620  -16.2230 C.3   108  LEU108      0.0019
     64  CD1        1.2810  -27.2040  -16.2290 C.3   108  LEU108      0.0001
     65  CD2        0.6030  -25.0370  -15.1470 C.3   108  LEU108      0.0001
     66  N         -0.7880  -24.7360  -20.4580 N.am  109  ASN109     -0.1974
     67  CA        -1.6870  -23.9380  -21.3050 C.3   109  ASN109      0.1688
     68  C         -1.7160  -24.3770  -22.7860 C.2   109  ASN109      0.2292
     69  O         -2.5060  -23.8630  -23.5630 O.2   109  ASN109     -0.2864
     70  CB        -1.4120  -22.4320  -21.1300 C.3   109  ASN109      0.1181
     71  CG        -0.1090  -21.9820  -21.7750 C.2   109  ASN109      0.2629
     72  OD1        0.4260  -22.6610  -22.6540 O.2   109  ASN109     -0.2716
     73  ND2        0.4100  -20.8180  -21.3440 N.am  109  ASN109     -0.0877
     74  N          9.9380  -11.8830  -14.0470 N.3   147  HIS147     -0.1226
     75  CA         9.0400  -12.3980  -13.0370 C.3   147  HIS147      0.1752
     76  C          8.3040  -13.6260  -13.6050 C.2   147  HIS147      0.2596
     77  O          7.8760  -13.6270  -14.7570 O.2   147  HIS147     -0.2718
     78  CB         8.0070  -11.3200  -12.7120 C.3   147  HIS147      0.0759
     79  CG         6.9180  -11.7730  -11.8000 C.ar  147  HIS147      0.0818
     80  ND1        5.6860  -12.1840  -12.2700 N.ar  147  HIS147     -0.2268
     81  CD2        6.8630  -11.8590  -10.4430 C.ar  147  HIS147      0.1154
     82  CE1        4.9240  -12.5110  -11.2350 C.ar  147  HIS147      0.1986
     83  NE2        5.6130  -12.3250  -10.1190 N.ar  147  HIS147     -0.2212
     84  N          8.2310  -14.6660  -12.8050 N.am  148  ALA148     -0.1966
     85  CA         7.4980  -15.9270  -13.1410 C.3   148  ALA148      0.1728
     86  C          8.1450  -16.6420  -14.3580 C.2   148  ALA148      0.2616
     87  O          9.3500  -17.0030  -14.2810 O.2   148  ALA148     -0.2715
     88  CB         5.9990  -15.6410  -13.3250 C.3   148  ALA148      0.0334
     89  N          7.4480  -16.8060  -15.4800 N.am  149  TYR149     -0.1974
     90  CA         8.1380  -17.3120  -16.6750 C.3   149  TYR149      0.1639
     91  C          9.3270  -16.4050  -17.0660 C.2   149  TYR149      0.2290
     92  O         10.3320  -16.8890  -17.5610 O.2   149  TYR149     -0.2864
     93  CB         7.1690  -17.4680  -17.8490 C.3   149  TYR149      0.0560
     94  CG         6.5180  -18.8570  -17.9770 C.ar  149  TYR149     -0.0198
     95  CD1        6.5490  -19.7730  -16.9400 C.ar  149  TYR149     -0.0009
     96  CD2        5.9180  -19.2420  -19.1550 C.ar  149  TYR149     -0.0009
     97  CE1        6.0060  -21.0540  -17.0900 C.ar  149  TYR149      0.0417
     98  CE2        5.3770  -20.5020  -19.3160 C.ar  149  TYR149      0.0417
     99  CZ         5.4190  -21.4080  -18.2790 C.ar  149  TYR149      0.1957
    100  OH         4.8590  -22.6750  -18.4330 O.3   149  TYR149     -0.2866
    101  N          9.5710  -19.5660  -12.1550 N.3   174  SER174     -0.1217
    102  CA         8.6940  -20.7370  -12.2500 C.3   174  SER174      0.1889
    103  C          9.4670  -22.0540  -12.1450 C.2   174  SER174      0.2288
    104  O          9.5820  -22.8090  -13.1190 O.2   174  SER174     -0.2866
    105  CB         7.9410  -20.6640  -13.5810 C.3   174  SER174      0.2089
    106  OG         7.2330  -19.4340  -13.6880 O.3   174  SER174     -0.2183
    107  N          8.8370  -24.8390  -10.8390 N.3   176  TRP176     -0.1241
    108  CA         7.9680  -25.9970  -11.0980 C.3   176  TRP176      0.1605
    109  C          7.9040  -26.4120  -12.5790 C.2   176  TRP176      0.2264
    110  O          7.4850  -27.5350  -12.8850 O.2   176  TRP176     -0.2867
    111  CB         6.5460  -25.6720  -10.6210 C.3   176  TRP176      0.0550
    112  CG         5.9790  -24.4440  -11.2560 C.ar  176  TRP176      0.0003
    113  CD1        6.0110  -23.1710  -10.7500 C.ar  176  TRP176      0.0946
    114  CD2        5.3010  -24.3520  -12.5130 C.ar  176  TRP176      0.0152
    115  NE1        5.4280  -22.3030  -11.6230 N.ar  176  TRP176     -0.2442
    116  CE2        4.9880  -22.9990  -12.7190 C.ar  176  TRP176      0.0810
    117  CE3        4.9490  -25.2870  -13.4980 C.ar  176  TRP176      0.0012
    118  CZ2        4.3270  -22.5490  -13.8710 C.ar  176  TRP176      0.0191
    119  CZ3        4.2950  -24.8460  -14.6310 C.ar  176  TRP176      0.0001
    120  CH2        3.9820  -23.4940  -14.8150 C.ar  176  TRP176      0.0015
    121  N          2.8540  -17.5810   -1.8040 N.3   208  GLU208     -0.1231
    122  CA         2.7810  -18.2560   -3.1020 C.3   208  GLU208      0.1684
    123  C          2.7110  -19.7570   -2.9270 C.2   208  GLU208      0.2434
    124  O          3.4780  -20.3430   -2.1450 O.2   208  GLU208     -0.2733
    125  CB         4.0160  -17.9630   -3.9520 C.3   208  GLU208      0.0402
    126  CG         4.0930  -16.5340   -4.4530 C.3   208  GLU208      0.1161
    127  CD         5.1990  -16.3680   -5.4590 C.2   208  GLU208      0.3649
    128  OE1        6.2090  -15.7210   -5.1130 O.co2 208  GLU208     -0.2457
    129  OE2        5.0610  -16.8810   -6.5940 O.co2 208  GLU208     -0.2457
    130  N          1.8440  -20.4080   -3.7180 N.am  209  PRO209     -0.2718
    131  CA         1.9040  -21.8640   -3.7320 C.3   209  PRO209      0.1535
    132  C          3.1450  -22.3140   -4.4860 C.2   209  PRO209      0.2598
    133  O          3.8210  -21.4860   -5.1130 O.2   209  PRO209     -0.2715
    134  CB         0.6200  -22.2590   -4.4710 C.3   209  PRO209      0.0310
    135  CG         0.3810  -21.1150   -5.3950 C.3   209  PRO209      0.0237
    136  CD         0.8560  -19.8770   -4.6680 C.3   209  PRO209      0.0939
    137  N          3.4330  -23.6000   -4.4390 N.am  210  ALA210     -0.1964
    138  CA         4.5760  -24.1800   -5.1600 C.3   210  ALA210      0.1728
    139  C          4.4060  -24.1460   -6.6850 C.2   210  ALA210      0.2617
    140  O          5.3930  -24.1140   -7.4270 O.2   210  ALA210     -0.2715
    141  CB         4.7930  -25.6110   -4.7130 C.3   210  ALA210      0.0334
    142  N          3.1600  -24.1560   -7.1420 N.am  211  SER211     -0.1936
    143  CA         2.8720  -24.1140   -8.5690 C.3   211  SER211      0.2040
    144  C          1.4380  -23.5880   -8.7710 C.2   211  SER211      0.2485
    145  O          0.6870  -23.4850   -7.8210 O.2   211  SER211     -0.2729
    146  CB         3.0440  -25.5140   -9.1520 C.3   211  SER211      0.2129
    147  OG         1.9240  -26.3220   -8.8460 O.3   211  SER211     -0.2179
    148  N          1.0790  -23.2230  -10.0000 N.am  212  PRO212     -0.2715
    149  CA        -0.1760  -22.4770  -10.1960 C.3   212  PRO212      0.1536
    150  C         -1.4330  -23.3420  -10.2130 C.2   212  PRO212      0.2598
    151  O         -2.5330  -22.7950  -10.2020 O.2   212  PRO212     -0.2715
    152  CB         0.0060  -21.8060  -11.5570 C.3   212  PRO212      0.0310
    153  CG         1.0720  -22.5580  -12.2440 C.3   212  PRO212      0.0237
    154  CD         1.9140  -23.2500  -11.2160 C.3   212  PRO212      0.0939
    155  N         -1.2700  -24.6600  -10.2750 N.am  213  ARG213     -0.1978
    156  CA        -2.3980  -25.5620  -10.5680 C.3   213  ARG213      0.1597
    157  C         -2.3360  -26.7840   -9.6670 C.2   213  ARG213      0.2287
    158  O         -2.8860  -27.8150  -10.0130 O.2   213  ARG213     -0.2864
    159  CB        -2.3720  -26.0200  -12.0570 C.3   213  ARG213      0.0334
    160  CG        -2.6570  -24.9130  -13.0620 C.3   213  ARG213      0.0492
    161  CD        -2.9300  -25.4290  -14.4710 C.3   213  ARG213      0.2205
    162  NE        -4.2920  -25.9380  -14.6300 N.pl3 213  ARG213     -0.0865
    163  CZ        -4.8050  -26.4090  -15.7660 C.cat 213  ARG213      0.5346
    164  NH1       -4.0760  -26.4400  -16.8770 N.pl3 213  ARG213      0.1354
    165  NH2       -6.0560  -26.8550  -15.7900 N.pl3 213  ARG213      0.1354
    166  N          1.5630  -14.3200   -5.6970 N.3   245  HIS245     -0.1241
    167  CA         2.3210  -14.4320   -6.9370 C.3   245  HIS245      0.1621
    168  C          2.3080  -13.1440   -7.8030 C.2   245  HIS245      0.2264
    169  O          3.3480  -12.6640   -8.2550 O.2   245  HIS245     -0.2867
    170  CB         1.8530  -15.6690   -7.7280 C.3   245  HIS245      0.0745
    171  CG         2.6070  -15.8740   -9.0070 C.ar  245  HIS245      0.0817
    172  ND1        3.8920  -16.3840   -9.0450 N.ar  245  HIS245     -0.2268
    173  CD2        2.2510  -15.6380  -10.2930 C.ar  245  HIS245      0.1154
    174  CE1        4.2840  -16.4700  -10.3090 C.ar  245  HIS245      0.1986
    175  NE2        3.3090  -16.0130  -11.0850 N.ar  245  HIS245     -0.2212
    176  N          5.7800   -9.0690   -8.6130 N.3   249  LEU249     -0.1245
    177  CA         6.2610   -8.3940   -9.8190 C.3   249  LEU249      0.1561
    178  C          6.6600   -6.9580   -9.4850 C.2   249  LEU249      0.2260
    179  O          7.8380   -6.6020   -9.5610 O.2   249  LEU249     -0.2867
    180  CB         5.2230   -8.4760  -10.9370 C.3   249  LEU249      0.0270
    181  CG         5.6630   -7.9590  -12.3160 C.3   249  LEU249      0.0019
    182  CD1        4.8240   -8.5920  -13.4150 C.3   249  LEU249      0.0001
    183  CD2        5.5930   -6.4630  -12.3820 C.3   249  LEU249      0.0001
@<TRIPOS>BOND
     1    39    40    1
     2    50    51    1
     3    30    31    2
     4    30    29    1
     5    38    36    1
     6    69    68    2
     7    28    29    1
     8    33    34    1
     9    33    32    1
    10    40    41    1
    11    40    43    1
    12    41    42    2
    13    29    32    1
    14    68    67    1
    15    36    35    2
    16    36    37    1
    17    51    54    1
    18    51    52    1
    19    34    35    1
    20    72    71    2
    21    53    52    2
    22    54    55    1
    23    23    22    2
    24    43    44    1
    25    71    73   am
    26    71    70    1
    27    22    21    1
    28    44    45    1
    29    67    70    1
    30    67    66    1
    31    55    57   ar
    32    55    56   ar
    33     9    10    1
    34    66    60   am
    35    21    20    1
    36    21    24    1
    37    45    46    1
    38    20    11   am
    39    11    12    2
    40    11    10    1
    41    10    13    1
    42    60    61    2
    43    60    59    1
    44     1     2    1
    45    26    24    1
    46     2     3    1
    47     2     5    1
    48     3     4    2
    49    58    59    1
    50     7     6   ar
    51    98    96   ar
    52    98    99   ar
    53    46    47    2
    54    24    25    1
    55    96    94   ar
    56    59    62    1
    57   100    99    1
    58     6     5    1
    59     6     8   ar
    60    99    97   ar
    61    47    49    1
    62    47    48    1
    63    13    14    1
    64    94    93    1
    65    94    95   ar
    66    25    27    1
    67    93    90    1
    68    62    63    1
    69    92    91    2
    70    14    15    1
    71    97    95   ar
    72    91    90    1
    73   164   163    1
    74    90    89    1
    75    64    63    1
    76    63    65    1
    77    15    16    1
    78   165   163    1
    79   163   162    2
    80    89    86   am
    81   120   119   ar
    82   120   118   ar
    83    77    76    2
    84    16    17    2
    85   119   117   ar
    86   162   161    1
    87    18    17    1
    88   161   160    1
    89    86    87    2
    90    86    85    1
    91    17    19    1
    92    74    75    1
    93   118   116   ar
    94   106   105    1
    95    76    75    1
    96    76    84   am
    97   105   102    1
    98   117   114   ar
    99   182   181    1
   100    88    85    1
   101    85    84    1
   102   104   103    2
   103   160   159    1
   104    75    78    1
   105   110   109    2
   106   116   114   ar
   107   116   115   ar
   108    78    79    1
   109   109   108    1
   110   114   112   ar
   111   183   181    1
   112   181   180    1
   113    80    79   ar
   114    80    82   ar
   115   102   101    1
   116   102   103    1
   117   153   152    1
   118   153   154    1
   119   159   156    1
   120    79    81   ar
   121   115   113   ar
   122   152   149    1
   123   112   113   ar
   124   112   111    1
   125    82    83   ar
   126   154   148    1
   127   108   107    1
   128   108   111    1
   129   175   174   ar
   130   175   173   ar
   131   180   177    1
   132   156   155    1
   133   156   157    1
   134    81    83   ar
   135   174   172   ar
   136   173   171   ar
   137   155   150   am
   138   150   151    2
   139   150   149    1
   140   149   148    1
   141   158   157    2
   142   148   144   am
   143   177   178    1
   144   177   176    1
   145   179   178    2
   146   146   147    1
   147   146   143    1
   148   172   171   ar
   149   171   170    1
   150   144   143    1
   151   144   145    2
   152   143   142    1
   153   169   168    2
   154   168   167    1
   155   170   167    1
   156   140   139    2
   157   142   139   am
   158   167   166    1
   159   139   138    1
   160   129   127   ar
   161   127   128   ar
   162   127   126    1
   163   135   136    1
   164   135   134    1
   165   138   141    1
   166   138   137    1
   167   133   132    2
   168   136   130    1
   169   132   137   am
   170   132   131    1
   171   134   131    1
   172   126   125    1
   173   125   122    1
   174   131   130    1
   175   130   123   am
   176   122   123    1
   177   122   121    1
   178   123   124    2
