@<TRIPOS>MOLECULE
tmp/6gi1A00.pdb
 110 110 0 0 0
SMALL
GASTEIGER

@<TRIPOS>ATOM
      1  N         -3.4530    0.0910   20.9660 N.3    89  ARG89      -0.1245
      2  CA        -3.0740    0.8420   19.7860 C.3    89  ARG89       0.1563
      3  C         -4.1570    1.8450   19.3950 C.2    89  ARG89       0.2260
      4  O         -3.8580    2.9420   18.9480 O.2    89  ARG89      -0.2867
      5  CB        -2.6420   -0.1040   18.6450 C.3    89  ARG89       0.0307
      6  CG        -3.5460   -0.1730   17.4380 C.3    89  ARG89       0.0489
      7  CD        -3.1200   -1.2990   16.5180 C.3    89  ARG89       0.2205
      8  NE        -2.4080   -0.7650   15.3600 N.pl3  89  ARG89      -0.0865
      9  CZ        -2.9910   -0.3600   14.2450 C.cat  89  ARG89       0.5346
     10  NH1       -2.2560    0.0960   13.2300 N.pl3  89  ARG89       0.1354
     11  NH2       -4.3190   -0.3740   14.1570 N.pl3  89  ARG89       0.1354
     12  N        -15.1730    3.5960   14.7140 N.3   107  LEU107     -0.1245
     13  CA       -15.2060    2.2790   14.0660 C.3   107  LEU107      0.1561
     14  C        -15.3780    1.1370   15.0760 C.2   107  LEU107      0.2260
     15  O        -16.2740    0.3140   14.9320 O.2   107  LEU107     -0.2867
     16  CB       -13.9120    2.0740   13.2720 C.3   107  LEU107      0.0270
     17  CG       -13.7910    0.8930   12.2980 C.3   107  LEU107      0.0019
     18  CD1      -14.3370    1.2990   10.9370 C.3   107  LEU107      0.0001
     19  CD2      -12.3430    0.4040   12.1770 C.3   107  LEU107      0.0001
     20  N          2.1580    2.5550   10.0220 N.3   146  HIS146     -0.1226
     21  CA         1.2500    2.0750    8.9850 C.3   146  HIS146      0.1752
     22  C         -0.1760    2.1420    9.5160 C.2   146  HIS146      0.2596
     23  O         -0.4560    1.7500   10.6610 O.2   146  HIS146     -0.2718
     24  CB         1.5980    0.6330    8.6330 C.3   146  HIS146      0.0759
     25  CG         0.6190   -0.0480    7.7250 C.ar  146  HIS146      0.0818
     26  ND1       -0.3840   -0.8780    8.1950 N.ar  146  HIS146     -0.2268
     27  CD2        0.5400   -0.0780    6.3690 C.ar  146  HIS146      0.1154
     28  CE1       -1.0590   -1.3680    7.1550 C.ar  146  HIS146      0.1986
     29  NE2       -0.5140   -0.9020    6.0370 N.ar  146  HIS146     -0.2212
     30  N         -1.0660    2.6520    8.6810 N.am  147  ALA147     -0.1966
     31  CA        -2.5210    2.7140    8.9740 C.3   147  ALA147      0.1728
     32  C         -2.8110    3.6270   10.1930 C.2   147  ALA147      0.2616
     33  O         -2.4760    4.8090   10.1290 O.2   147  ALA147     -0.2715
     34  CB        -3.1120    1.3250    9.0730 C.3   147  ALA147      0.0334
     35  N         -3.3480    3.1290   11.3010 N.am  148  TYR148     -0.1974
     36  CA        -3.4290    4.0000   12.4970 C.3   148  TYR148      0.1639
     37  C         -2.0440    4.4890   12.9450 C.2   148  TYR148      0.2290
     38  O         -1.9160    5.5990   13.4630 O.2   148  TYR148     -0.2864
     39  CB        -4.1240    3.2860   13.6620 C.3   148  TYR148      0.0560
     40  CG        -5.6490    3.4420   13.7150 C.ar  148  TYR148     -0.0198
     41  CD1       -6.3680    3.9200   12.6350 C.ar  148  TYR148     -0.0009
     42  CD2       -6.3480    3.0980   14.8690 C.ar  148  TYR148     -0.0009
     43  CE1       -7.7510    4.0650   12.7070 C.ar  148  TYR148      0.0417
     44  CE2       -7.7220    3.2430   14.9510 C.ar  148  TYR148      0.0417
     45  CZ        -8.4160    3.7250   13.8700 C.ar  148  TYR148      0.1957
     46  OH        -9.7870    3.8550   13.9470 O.3   148  TYR148     -0.2866
     47  N         -4.4470    6.3260    7.8720 N.3   173  SER173     -0.1217
     48  CA        -5.9030    6.1940    7.9040 C.3   173  SER173      0.1889
     49  C         -6.5930    7.5600    7.7600 C.2   173  SER173      0.2288
     50  O         -7.1800    8.0850    8.7110 O.2   173  SER173     -0.2866
     51  CB        -6.2930    5.5410    9.2270 C.3   173  SER173      0.2089
     52  OG        -5.6320    4.3070    9.3680 O.3   173  SER173     -0.2183
     53  N         -9.1790    8.5930    6.3360 N.3   175  TRP175     -0.1241
     54  CA       -10.6370    8.5100    6.5550 C.3   175  TRP175      0.1605
     55  C        -11.0810    8.7240    8.0230 C.2   175  TRP175      0.2264
     56  O        -12.2520    9.0100    8.2840 O.2   175  TRP175     -0.2867
     57  CB       -11.1630    7.1480    6.0970 C.3   175  TRP175      0.0550
     58  CG       -10.4640    5.9890    6.7670 C.ar  175  TRP175      0.0003
     59  CD1       -9.3790    5.3040    6.3010 C.ar  175  TRP175      0.0946
     60  CD2      -10.7870    5.4050    8.0360 C.ar  175  TRP175      0.0152
     61  NE1       -9.0100    4.3320    7.1940 N.ar  175  TRP175     -0.2442
     62  CE2       -9.8570    4.3730    8.2700 C.ar  175  TRP175      0.0810
     63  CE3      -11.7890    5.6400    8.9880 C.ar  175  TRP175      0.0012
     64  CZ2       -9.8900    3.5800    9.4210 C.ar  175  TRP175      0.0191
     65  CZ3      -11.8050    4.8750   10.1430 C.ar  175  TRP175      0.0001
     66  CH2      -10.8550    3.8610   10.3540 C.ar  175  TRP175      0.0015
     67  N         -5.9540   -0.4210   -2.6520 N.3   207  GLU207     -0.1231
     68  CA        -6.6390   -0.1380   -1.3780 C.3   207  GLU207      0.1684
     69  C         -7.9370    0.6240   -1.6000 C.2   207  GLU207      0.2434
     70  O         -7.9610    1.5840   -2.3630 O.2   207  GLU207     -0.2733
     71  CB        -5.7780    0.7530   -0.4790 C.3   207  GLU207      0.0402
     72  CG        -4.5860    0.0980    0.1210 C.3   207  GLU207      0.1161
     73  CD        -3.9320    0.9900    1.1560 C.2   207  GLU207      0.3649
     74  OE1       -2.8420    1.5290    0.8670 O.co2 207  GLU207     -0.2457
     75  OE2       -4.5120    1.1620    2.2550 O.co2 207  GLU207     -0.2457
     76  N         -8.9950    0.2650   -0.8690 N.am  208  PRO208     -0.2718
     77  CA       -10.1660    1.1370   -0.8370 C.3   208  PRO208      0.1535
     78  C         -9.8830    2.4310   -0.0650 C.2   208  PRO208      0.2598
     79  O         -8.8140    2.5670    0.5430 O.2   208  PRO208     -0.2715
     80  CB       -11.1920    0.3000   -0.0780 C.3   208  PRO208      0.0310
     81  CG       -10.3760   -0.5050    0.8610 C.3   208  PRO208      0.0237
     82  CD        -9.1220   -0.8460    0.0970 C.3   208  PRO208      0.0939
     83  N        -10.8240    3.3690   -0.0960 N.am  209  ALA209     -0.1964
     84  CA       -10.6920    4.6340    0.6350 C.3   209  ALA209      0.1728
     85  C        -10.7850    4.4440    2.1550 C.2   209  ALA209      0.2617
     86  O        -10.2190    5.2190    2.9380 O.2   209  ALA209     -0.2715
     87  CB       -11.7620    5.6040    0.1830 C.3   209  ALA209      0.0334
     88  N        -11.5150    3.4200    2.5740 N.am  210  SER210     -0.1936
     89  CA       -11.7550    3.1960    4.0020 C.3   210  SER210      0.2040
     90  C        -12.1380    1.7390    4.2070 C.2   210  SER210      0.2485
     91  O        -12.4290    1.0450    3.2310 O.2   210  SER210     -0.2729
     92  CB       -12.8590    4.1420    4.4910 C.3   210  SER210      0.2129
     93  OG       -14.1280    3.6650    4.0990 O.3   210  SER210     -0.2179
     94  N        -12.1110    1.2560    5.4640 N.am  211  PRO211     -0.2726
     95  CA       -12.3260   -0.1730    5.7180 C.3   211  PRO211      0.1402
     96  C        -13.7630   -0.6760    5.5550 C.2   211  PRO211      0.2269
     97  O        -13.9720   -1.8820    5.5280 O.2   211  PRO211     -0.2865
     98  CB       -11.8920   -0.3530    7.1730 C.3   211  PRO211      0.0296
     99  CG       -11.9490    0.9920    7.7810 C.3   211  PRO211      0.0237
    100  CD       -11.7800    1.9960    6.6920 C.3   211  PRO211      0.0939
    101  N         -4.1770   -3.1850    1.3850 N.3   243  HIS243     -0.1241
    102  CA        -3.9520   -2.4640    2.6410 C.3   243  HIS243      0.1621
    103  C         -2.9330   -3.1440    3.5630 C.2   243  HIS243      0.2264
    104  O         -1.9760   -2.5020    3.9980 O.2   243  HIS243     -0.2867
    105  CB        -5.2930   -2.1700    3.3600 C.3   243  HIS243      0.0745
    106  CG        -5.1340   -1.4290    4.6600 C.ar  243  HIS243      0.0817
    107  ND1       -4.7990   -0.0910    4.7310 N.ar  243  HIS243     -0.2268
    108  CD2       -5.1960   -1.8710    5.9400 C.ar  243  HIS243      0.1154
    109  CE1       -4.7050    0.2660    6.0020 C.ar  243  HIS243      0.1986
    110  NE2       -4.9310   -0.7980    6.7550 N.ar  243  HIS243     -0.2212
@<TRIPOS>BOND
     1    67    68    1
     2    70    69    2
     3    69    68    1
     4    69    76   am
     5    68    71    1
     6    76    77    1
     7    76    82    1
     8    77    80    1
     9    77    78    1
    10    71    72    1
    11    83    78   am
    12    83    84    1
    13    80    81    1
    14    78    79    2
    15    82    81    1
    16    72    73    1
    17    87    84    1
    18    84    85    1
    19    74    73   ar
    20    73    75   ar
    21   101   102    1
    22    85    88   am
    23    85    86    2
    24    88    89    1
    25   102   105    1
    26   102   103    1
    27    91    90    2
    28   105   106    1
    29   103   104    2
    30    89    90    1
    31    89    92    1
    32    93    92    1
    33    90    94   am
    34   106   107   ar
    35   106   108   ar
    36   107   109   ar
    37    94    95    1
    38    94   100    1
    39    97    96    2
    40    96    95    1
    41    95    98    1
    42   108   110   ar
    43   109   110   ar
    44    29    27   ar
    45    29    28   ar
    46    57    54    1
    47    57    58    1
    48    59    58   ar
    49    59    61   ar
    50    53    54    1
    51    27    25   ar
    52    54    55    1
    53   100    99    1
    54    58    60   ar
    55    28    26   ar
    56    98    99    1
    57    61    62   ar
    58    25    26   ar
    59    25    24    1
    60    49    48    1
    61    49    50    2
    62    47    48    1
    63    48    51    1
    64    55    56    2
    65    60    62   ar
    66    60    63   ar
    67    62    64   ar
    68    24    21    1
    69    30    31    1
    70    30    22   am
    71    31    34    1
    72    31    32    1
    73    21    22    1
    74    21    20    1
    75    63    65   ar
    76    51    52    1
    77    64    66   ar
    78    22    23    2
    79    33    32    2
    80    65    66   ar
    81    32    35   am
    82    18    17    1
    83    35    36    1
    84    19    17    1
    85    17    16    1
    86    36    37    1
    87    36    39    1
    88    41    43   ar
    89    41    40   ar
    90    43    45   ar
    91    37    38    2
    92    10     9    1
    93    16    13    1
    94    39    40    1
    95    40    42   ar
    96    45    46    1
    97    45    44   ar
    98    13    12    1
    99    13    14    1
   100    11     9    1
   101     9     8    2
   102    42    44   ar
   103    15    14    2
   104     8     7    1
   105     7     6    1
   106     6     5    1
   107     5     2    1
   108     4     3    2
   109     3     2    1
   110     2     1    1
