@<TRIPOS>MOLECULE
tmp/6gi2B00.pdb
 178 172 0 0 0
SMALL
GASTEIGER

@<TRIPOS>ATOM
      1  N          8.4260   -9.0420  -19.6150 N.3    54  ASP54      -0.1239
      2  CA         7.0290   -8.6300  -19.4490 C.3    54  ASP54       0.1674
      3  C          6.8790   -7.1420  -19.4310 C.2    54  ASP54       0.2266
      4  O          6.2840   -6.5520  -18.5190 O.2    54  ASP54      -0.2867
      5  CB         6.3630   -9.2370  -18.2370 C.3    54  ASP54       0.1410
      6  CG         6.1560  -10.7300  -18.3980 C.2    54  ASP54       0.3668
      7  OD1        5.6000  -11.1510  -19.4610 O.co2  54  ASP54      -0.2456
      8  OD2        6.5580  -11.4640  -17.4800 O.co2  54  ASP54      -0.2456
      9  N         -1.7330   -6.0690  -20.7100 N.3    88  ARG88      -0.1231
     10  CA        -0.6260   -6.0290  -19.7760 C.3    88  ARG88       0.1694
     11  C          0.3390   -7.2320  -19.9360 C.2    88  ARG88       0.2591
     12  O          1.5660   -7.1040  -19.7710 O.2    88  ARG88      -0.2718
     13  CB        -1.2550   -6.0170  -18.3940 C.3    88  ARG88       0.0321
     14  CG        -0.3130   -5.7370  -17.2690 C.3    88  ARG88       0.0489
     15  CD        -1.1040   -5.7240  -15.9810 C.3    88  ARG88       0.2205
     16  NE        -0.1770   -5.7480  -14.8750 N.pl3  88  ARG88      -0.0865
     17  CZ         0.3560   -6.8440  -14.3630 C.cat  88  ARG88       0.5346
     18  NH1        0.0560   -8.0490  -14.8580 N.pl3  88  ARG88       0.1354
     19  NH2        1.2240   -6.7280  -13.3710 N.pl3  88  ARG88       0.1354
     20  N         -0.2110   -8.3510  -20.3970 N.am   89  ILE89      -0.1980
     21  CA         0.5170   -9.6260  -20.5350 C.3    89  ILE89       0.1595
     22  C          0.1210  -10.2690  -21.8840 C.2    89  ILE89       0.2287
     23  O         -1.0500  -10.2560  -22.2540 O.2    89  ILE89      -0.2864
     24  CB         0.1600  -10.5790  -19.3500 C.3    89  ILE89       0.0276
     25  CG1        0.8660  -10.1380  -18.0430 C.3    89  ILE89       0.0022
     26  CG2        0.4860  -12.0360  -19.6800 C.3    89  ILE89       0.0022
     27  CD1        2.3780  -10.3360  -18.0040 C.3    89  ILE89       0.0001
     28  N          0.1520  -13.8030  -23.5020 N.3    91  ARG91      -0.1245
     29  CA         0.3550  -15.1970  -23.0970 C.3    91  ARG91       0.1563
     30  C          1.1400  -16.0230  -24.1110 C.2    91  ARG91       0.2260
     31  O          2.1040  -16.7040  -23.7640 O.2    91  ARG91      -0.2867
     32  CB        -0.9860  -15.8580  -22.7590 C.3    91  ARG91       0.0307
     33  CG        -1.6920  -15.2400  -21.5570 C.3    91  ARG91       0.0489
     34  CD        -2.7630  -16.1650  -20.9700 C.3    91  ARG91       0.2205
     35  NE        -3.5420  -16.8650  -22.0030 N.pl3  91  ARG91      -0.0865
     36  CZ        -3.4840  -18.1750  -22.2660 C.cat  91  ARG91       0.5346
     37  NH1       -2.7000  -18.9860  -21.5640 N.pl3  91  ARG91       0.1354
     38  NH2       -4.2290  -18.6850  -23.2410 N.pl3  91  ARG91       0.1354
     39  N          5.0230  -14.7500  -24.5280 N.3    94  ARG94      -0.1245
     40  CA         5.8740  -15.0500  -23.3960 C.3    94  ARG94       0.1563
     41  C          6.0450  -16.5400  -23.2050 C.2    94  ARG94       0.2260
     42  O          7.1280  -17.0110  -22.8230 O.2    94  ARG94      -0.2867
     43  CB         5.3830  -14.3480  -22.1210 C.3    94  ARG94       0.0307
     44  CG         4.1720  -14.9330  -21.4580 C.3    94  ARG94       0.0489
     45  CD         3.6060  -13.9420  -20.4260 C.3    94  ARG94       0.2205
     46  NE         4.5410  -13.6810  -19.3370 N.pl3  94  ARG94      -0.0865
     47  CZ         4.6830  -14.4420  -18.2490 C.cat  94  ARG94       0.5346
     48  NH1        5.5790  -14.0960  -17.3170 N.pl3  94  ARG94       0.1354
     49  NH2        4.0130  -15.5900  -18.1320 N.pl3  94  ARG94       0.1354
     50  N          3.5750  -26.1310  -24.1650 N.3   105  ASP105     -0.1239
     51  CA         3.4860  -25.9190  -22.7200 C.3   105  ASP105      0.1674
     52  C          2.5110  -26.9540  -22.1310 C.2   105  ASP105      0.2266
     53  O          1.3340  -26.9760  -22.5030 O.2   105  ASP105     -0.2867
     54  CB         3.0060  -24.5140  -22.4430 C.3   105  ASP105      0.1410
     55  CG         3.1430  -24.1350  -20.9750 C.2   105  ASP105      0.3668
     56  OD1        4.0600  -23.3160  -20.7060 O.co2 105  ASP105     -0.2456
     57  OD2        2.4040  -24.7070  -20.1280 O.co2 105  ASP105     -0.2456
     58  N          0.9550  -27.0740  -19.4350 N.3   107  LEU107     -0.1231
     59  CA        -0.1750  -26.4450  -18.7800 C.3   107  LEU107      0.1693
     60  C         -1.1030  -25.7040  -19.7400 C.2   107  LEU107      0.2592
     61  O         -2.2980  -25.9950  -19.7630 O.2   107  LEU107     -0.2718
     62  CB         0.3170  -25.4990  -17.6770 C.3   107  LEU107      0.0284
     63  CG         0.3010  -26.1360  -16.2770 C.3   107  LEU107      0.0019
     64  CD1        1.1880  -27.3640  -16.1550 C.3   107  LEU107      0.0001
     65  CD2        0.6750  -25.1090  -15.2220 C.3   107  LEU107      0.0001
     66  N         -0.5870  -24.7410  -20.5130 N.am  108  ASN108     -0.1974
     67  CA        -1.4660  -23.9260  -21.3680 C.3   108  ASN108      0.1688
     68  C         -1.5220  -24.3480  -22.8540 C.2   108  ASN108      0.2292
     69  O         -2.3290  -23.8040  -23.6290 O.2   108  ASN108     -0.2864
     70  CB        -1.1570  -22.4380  -21.2030 C.3   108  ASN108      0.1181
     71  CG         0.1810  -22.0320  -21.8100 C.2   108  ASN108      0.2629
     72  OD1        0.6420  -22.6360  -22.7640 O.2   108  ASN108     -0.2716
     73  ND2        0.7820  -20.9660  -21.2830 N.am  108  ASN108     -0.0877
     74  N          9.8020  -11.8160  -14.0770 N.3   146  HIS146     -0.1226
     75  CA         8.8750  -12.3840  -13.0930 C.3   146  HIS146      0.1752
     76  C          8.2010  -13.6300  -13.6620 C.2   146  HIS146      0.2596
     77  O          7.7800  -13.6200  -14.8160 O.2   146  HIS146     -0.2718
     78  CB         7.8450  -11.3120  -12.7440 C.3   146  HIS146      0.0759
     79  CG         6.7510  -11.7760  -11.8440 C.ar  146  HIS146      0.0818
     80  ND1        5.5290  -12.1920  -12.3380 N.ar  146  HIS146     -0.2268
     81  CD2        6.6670  -11.8400  -10.4880 C.ar  146  HIS146      0.1154
     82  CE1        4.7560  -12.5350  -11.3140 C.ar  146  HIS146      0.1986
     83  NE2        5.4010  -12.2950  -10.1800 N.ar  146  HIS146     -0.2212
     84  N          8.1410  -14.6910  -12.8660 N.am  147  ALA147     -0.1966
     85  CA         7.3970  -15.9280  -13.2190 C.3   147  ALA147      0.1728
     86  C          8.0590  -16.6020  -14.4090 C.2   147  ALA147      0.2616
     87  O          9.2410  -16.9370  -14.2960 O.2   147  ALA147     -0.2715
     88  CB         5.9180  -15.6630  -13.4030 C.3   147  ALA147      0.0334
     89  N          7.4110  -16.7500  -15.5570 N.am  148  TYR148     -0.1974
     90  CA         8.1440  -17.3020  -16.7120 C.3   148  TYR148      0.1639
     91  C          9.2960  -16.3680  -17.0970 C.2   148  TYR148      0.2290
     92  O         10.3300  -16.8130  -17.5740 O.2   148  TYR148     -0.2864
     93  CB         7.1770  -17.5020  -17.9140 C.3   148  TYR148      0.0560
     94  CG         6.5080  -18.8630  -18.0150 C.ar  148  TYR148     -0.0198
     95  CD1        6.5820  -19.7800  -17.0020 C.ar  148  TYR148     -0.0009
     96  CD2        5.8290  -19.2050  -19.1550 C.ar  148  TYR148     -0.0009
     97  CE1        6.0550  -21.0690  -17.1440 C.ar  148  TYR148      0.0417
     98  CE2        5.2150  -20.4200  -19.2610 C.ar  148  TYR148      0.0417
     99  CZ         5.3620  -21.3640  -18.2810 C.ar  148  TYR148      0.1957
    100  OH         4.7860  -22.6260  -18.4380 O.3   148  TYR148     -0.2866
    101  N          9.4750  -19.5060  -12.2100 N.3   173  SER173     -0.1217
    102  CA         8.6060  -20.6810  -12.2930 C.3   173  SER173      0.1889
    103  C          9.3550  -22.0160  -12.1510 C.2   173  SER173      0.2288
    104  O          9.5650  -22.7320  -13.1320 O.2   173  SER173     -0.2866
    105  CB         7.8620  -20.6040  -13.6260 C.3   173  SER173      0.2089
    106  OG         7.1380  -19.4100  -13.7160 O.3   173  SER173     -0.2183
    107  N          8.7580  -24.7650  -10.8580 N.3   175  TRP175     -0.1241
    108  CA         7.9080  -25.9320  -11.1150 C.3   175  TRP175      0.1605
    109  C          7.9210  -26.3870  -12.5800 C.2   175  TRP175      0.2264
    110  O          7.5040  -27.5270  -12.8900 O.2   175  TRP175     -0.2867
    111  CB         6.4920  -25.6390  -10.6510 C.3   175  TRP175      0.0550
    112  CG         5.9140  -24.4200  -11.2950 C.ar  175  TRP175      0.0003
    113  CD1        5.9270  -23.1280  -10.8100 C.ar  175  TRP175      0.0946
    114  CD2        5.2970  -24.3510  -12.5690 C.ar  175  TRP175      0.0152
    115  NE1        5.3690  -22.2830  -11.7250 N.ar  175  TRP175     -0.2442
    116  CE2        5.0390  -22.9910  -12.8410 C.ar  175  TRP175      0.0810
    117  CE3        4.9620  -25.3100  -13.5370 C.ar  175  TRP175      0.0012
    118  CZ2        4.3720  -22.5750  -13.9940 C.ar  175  TRP175      0.0191
    119  CZ3        4.3250  -24.8960  -14.6890 C.ar  175  TRP175      0.0001
    120  CH2        4.0750  -23.5430  -14.9350 C.ar  175  TRP175      0.0015
    121  N          2.7140  -17.5800   -1.9560 N.3   207  GLU207     -0.1231
    122  CA         2.6130  -18.2410   -3.2250 C.3   207  GLU207      0.1684
    123  C          2.5550  -19.7500   -3.0210 C.2   207  GLU207      0.2434
    124  O          3.3320  -20.3020   -2.2630 O.2   207  GLU207     -0.2733
    125  CB         3.8320  -17.9340   -4.0890 C.3   207  GLU207      0.0402
    126  CG         3.9290  -16.5080   -4.5570 C.3   207  GLU207      0.1161
    127  CD         5.0710  -16.3580   -5.5480 C.2   207  GLU207      0.3649
    128  OE1        6.0780  -15.6940   -5.2040 O.co2 207  GLU207     -0.2457
    129  OE2        4.9700  -16.9050   -6.6920 O.co2 207  GLU207     -0.2457
    130  N          1.7640  -20.4280   -3.8410 N.am  208  PRO208     -0.2729
    131  CA         1.8270  -21.8670   -3.8890 C.3   208  PRO208      0.1401
    132  C          3.0800  -22.3220   -4.6130 C.2   208  PRO208      0.2269
    133  O          3.7590  -21.4960   -5.2340 O.2   208  PRO208     -0.2865
    134  CB         0.5710  -22.2440   -4.6680 C.3   208  PRO208      0.0296
    135  CG         0.3190  -21.0860   -5.5430 C.3   208  PRO208      0.0237
    136  CD         0.7460  -19.8770   -4.7430 C.3   208  PRO208      0.0939
    137  N          3.1530  -24.1800   -7.2310 N.3   210  SER210     -0.1203
    138  CA         2.9030  -24.1270   -8.6740 C.3   210  SER210      0.2005
    139  C          1.4630  -23.6360   -8.9020 C.2   210  SER210      0.2461
    140  O          0.6860  -23.5610   -7.9550 O.2   210  SER210     -0.2732
    141  CB         3.0880  -25.5220   -9.2570 C.3   210  SER210      0.2103
    142  OG         2.0010  -26.3270   -8.8530 O.3   210  SER210     -0.2182
    143  N          1.1290  -23.2750  -10.1350 N.am  211  PRO211     -0.2717
    144  CA        -0.1450  -22.5770  -10.3270 C.3   211  PRO211      0.1535
    145  C         -1.3730  -23.4780  -10.2950 C.2   211  PRO211      0.2598
    146  O         -2.4800  -22.9600  -10.3170 O.2   211  PRO211     -0.2715
    147  CB        -0.0170  -21.9490  -11.7190 C.3   211  PRO211      0.0310
    148  CG         1.0950  -22.6360  -12.3820 C.3   211  PRO211      0.0237
    149  CD         2.0140  -23.1390  -11.3040 C.3   211  PRO211      0.0939
    150  N         -1.1670  -24.7900  -10.3620 N.am  212  ARG212     -0.1978
    151  CA        -2.2790  -25.7370  -10.5670 C.3   212  ARG212      0.1597
    152  C         -2.2500  -26.9210   -9.6170 C.2   212  ARG212      0.2287
    153  O         -2.8990  -27.9280   -9.8950 O.2   212  ARG212     -0.2864
    154  CB        -2.2390  -26.2740  -12.0130 C.3   212  ARG212      0.0334
    155  CG        -2.5250  -25.2280  -13.0640 C.3   212  ARG212      0.0492
    156  CD        -2.6960  -25.8070  -14.4510 C.3   212  ARG212      0.2205
    157  NE        -4.0940  -26.1170  -14.7440 N.pl3 212  ARG212     -0.0865
    158  CZ        -4.5590  -26.4260  -15.9550 C.cat 212  ARG212      0.5346
    159  NH1       -3.7520  -26.4070  -17.0120 N.pl3 212  ARG212      0.1354
    160  NH2       -5.8360  -26.7580  -16.1130 N.pl3 212  ARG212      0.1354
    161  N          1.4870  -14.3380   -5.8300 N.3   244  HIS244     -0.1241
    162  CA         2.2630  -14.4070   -7.0590 C.3   244  HIS244      0.1621
    163  C          2.2270  -13.1440   -7.9090 C.2   244  HIS244      0.2264
    164  O          3.2520  -12.6720   -8.4060 O.2   244  HIS244     -0.2867
    165  CB         1.7680  -15.5990   -7.8580 C.3   244  HIS244      0.0745
    166  CG         2.5310  -15.8370   -9.1220 C.ar  244  HIS244      0.0817
    167  ND1        3.8060  -16.3500   -9.1230 N.ar  244  HIS244     -0.2268
    168  CD2        2.2010  -15.6310  -10.4130 C.ar  244  HIS244      0.1154
    169  CE1        4.2350  -16.4350  -10.3770 C.ar  244  HIS244      0.1986
    170  NE2        3.2690  -16.0230  -11.1780 N.ar  244  HIS244     -0.2212
    171  N          5.5530   -9.0910   -8.6930 N.3   248  LEU248     -0.1245
    172  CA         6.0740   -8.4100   -9.8810 C.3   248  LEU248      0.1561
    173  C          6.4380   -6.9630   -9.5660 C.2   248  LEU248      0.2260
    174  O          7.5970   -6.5510   -9.6100 O.2   248  LEU248     -0.2867
    175  CB         5.0580   -8.4810  -11.0220 C.3   248  LEU248      0.0270
    176  CG         5.5680   -7.9430  -12.3670 C.3   248  LEU248      0.0019
    177  CD1        4.7670   -8.5770  -13.4820 C.3   248  LEU248      0.0001
    178  CD2        5.5070   -6.4550  -12.4740 C.3   248  LEU248      0.0001
@<TRIPOS>BOND
     1    39    40    1
     2    50    51    1
     3    30    31    2
     4    30    29    1
     5    69    68    2
     6    28    29    1
     7    40    41    1
     8    40    43    1
     9    38    36    1
    10    41    42    2
    11    29    32    1
    12    68    67    1
    13    72    71    2
    14    32    33    1
    15    51    54    1
    16    51    52    1
    17    53    52    2
    18    54    55    1
    19    36    35    2
    20    36    37    1
    21    23    22    2
    22    43    44    1
    23    35    34    1
    24    22    21    1
    25    71    73   am
    26    71    70    1
    27    33    34    1
    28    44    45    1
    29    67    70    1
    30    67    66    1
    31    55    56   ar
    32    55    57   ar
    33     9    10    1
    34    21    20    1
    35    21    24    1
    36    66    60   am
    37    45    46    1
    38    20    11   am
    39    11    10    1
    40    11    12    2
    41    10    13    1
    42    61    60    2
    43    60    59    1
    44    26    24    1
    45     1     2    1
    46     7     6   ar
    47     2     3    1
    48     2     5    1
    49    58    59    1
    50     3     4    2
    51    24    25    1
    52    46    47    2
    53    98    96   ar
    54    98    99   ar
    55    96    94   ar
    56    59    62    1
    57   100    99    1
    58     6     5    1
    59     6     8   ar
    60    13    14    1
    61    99    97   ar
    62    47    49    1
    63    47    48    1
    64    25    27    1
    65    94    93    1
    66    94    95   ar
    67    93    90    1
    68    62    63    1
    69    92    91    2
    70    14    15    1
    71    97    95   ar
    72    91    90    1
    73   159   158    1
    74    90    89    1
    75    63    64    1
    76    63    65    1
    77   160   158    1
    78    15    16    1
    79   158   157    2
    80    89    86   am
    81   120   119   ar
    82   120   118   ar
    83    16    17    2
    84    18    17    1
    85    77    76    2
    86   157   156    1
    87   119   117   ar
    88   156   155    1
    89    86    87    2
    90    86    85    1
    91    17    19    1
    92    74    75    1
    93   118   116   ar
    94   106   105    1
    95    76    75    1
    96    76    84   am
    97   105   102    1
    98   117   114   ar
    99   177   176    1
   100    88    85    1
   101    85    84    1
   102   104   103    2
   103    75    78    1
   104   155   154    1
   105   110   109    2
   106   116   114   ar
   107   116   115   ar
   108    78    79    1
   109   109   108    1
   110   114   112   ar
   111   178   176    1
   112   148   147    1
   113   148   149    1
   114   176   175    1
   115    80    79   ar
   116    80    82   ar
   117   102   101    1
   118   102   103    1
   119   154   151    1
   120    79    81   ar
   121   115   113   ar
   122   147   144    1
   123    82    83   ar
   124   149   143    1
   125   112   113   ar
   126   112   111    1
   127   170   168   ar
   128   170   169   ar
   129   108   107    1
   130   108   111    1
   131   175   172    1
   132   151   150    1
   133   151   152    1
   134    81    83   ar
   135   168   166   ar
   136   169   167   ar
   137   150   145   am
   138   144   145    1
   139   144   143    1
   140   146   145    2
   141   143   139   am
   142   153   152    2
   143   172   173    1
   144   172   171    1
   145   174   173    2
   146   141   142    1
   147   141   138    1
   148   167   166   ar
   149   166   165    1
   150   139   138    1
   151   139   140    2
   152   138   137    1
   153   164   163    2
   154   163   162    1
   155   165   162    1
   156   162   161    1
   157   129   127   ar
   158   127   128   ar
   159   127   126    1
   160   135   136    1
   161   135   134    1
   162   133   132    2
   163   136   130    1
   164   134   131    1
   165   132   131    1
   166   126   125    1
   167   125   122    1
   168   131   130    1
   169   130   123   am
   170   122   123    1
   171   122   121    1
   172   123   124    2
