@<TRIPOS>MOLECULE
tmp/6gi4A00.pdb
 97 92 0 0 0
SMALL
GASTEIGER

@<TRIPOS>ATOM
      1  N         72.6830   46.9420    7.9210 N.3    46  GLU46      -0.1245
      2  CA        72.3720   46.5690    9.2650 C.3    46  GLU46       0.1567
      3  C         71.2480   45.5260    9.2910 C.2    46  GLU46       0.2260
      4  O         71.4180   44.4650    9.9100 O.2    46  GLU46      -0.2867
      5  CB        72.0260   47.8080   10.0930 C.3    46  GLU46       0.0388
      6  CG        73.2160   48.7010   10.3720 C.3    46  GLU46       0.1160
      7  CD        74.2660   48.1270   11.3160 C.2    46  GLU46       0.3649
      8  OE1       73.9050   47.2710   12.1630 O.co2  46  GLU46      -0.2457
      9  OE2       75.3920   48.5990   11.2670 O.co2  46  GLU46      -0.2457
     10  N         73.2120   42.3220   17.9470 N.3    56  LYS56      -0.1245
     11  CA        74.1050   42.5640   19.1190 C.3    56  LYS56       0.1561
     12  C         73.4590   43.4430   20.2030 C.2    56  LYS56       0.2260
     13  O         73.0510   44.5570   19.8860 O.2    56  LYS56      -0.2867
     14  CB        75.3860   43.2350   18.6300 C.3    56  LYS56       0.0271
     15  CG        75.6230   43.1630   17.1280 C.3    56  LYS56       0.0035
     16  CD        76.4650   44.3070   16.6130 C.3    56  LYS56       0.0206
     17  CE        75.8040   45.6500   16.8590 C.3    56  LYS56       0.1093
     18  NZ        76.7620   46.7780   16.7470 N.3    56  LYS56      -0.1314
     19  N         70.3700   45.5670   19.8650 N.3    59  ALA59      -0.1245
     20  CA        70.2370   46.6050   18.8130 C.3    59  ALA59       0.1562
     21  C         69.0180   46.2600   17.9500 C.2    59  ALA59       0.2260
     22  O         68.7750   45.1030   17.6320 O.2    59  ALA59      -0.2867
     23  CB        71.4930   46.7270   18.0310 C.3    59  ALA59       0.0290
     24  N         69.4040   49.2120   13.3620 N.3    64  GLN64      -0.1231
     25  CA        69.9340   48.3570   14.4520 C.3    64  GLN64       0.1698
     26  C         70.6070   49.2680   15.4820 C.2    64  GLN64       0.2592
     27  O         71.8240   49.2210   15.6370 O.2    64  GLN64      -0.2718
     28  CB        70.7780   47.1940   13.8700 C.3    64  GLN64       0.0381
     29  CG        69.9530   46.1460   13.1140 C.3    64  GLN64       0.0905
     30  CD        70.6600   44.9260   12.5730 C.2    64  GLN64       0.2608
     31  OE1       70.0150   43.9370   12.2720 O.2    64  GLN64      -0.2717
     32  NE2       71.9740   44.9430   12.4740 N.am   64  GLN64      -0.0878
     33  N         69.8020   50.1180   16.1590 N.am   65  LEU65      -0.1966
     34  CA        70.1970   50.9910   17.2290 C.3    65  LEU65       0.1728
     35  C         69.9450   50.3280   18.5870 C.2    65  LEU65       0.2616
     36  O         68.8740   49.7840   18.8320 O.2    65  LEU65      -0.2715
     37  CB        69.3510   52.2570   17.1230 C.3    65  LEU65       0.0311
     38  CG        69.7050   53.0750   15.9010 C.3    65  LEU65       0.0022
     39  CD1       68.5460   53.9780   15.5540 C.3    65  LEU65       0.0001
     40  CD2       71.0250   53.8390   16.1570 C.3    65  LEU65       0.0001
     41  N         70.9130   50.4970   19.4850 N.am   66  LYS66      -0.1977
     42  CA        70.7590   50.0190   20.8350 C.3    66  LYS66       0.1596
     43  C         70.2250   51.1250   21.7260 C.2    66  LYS66       0.2287
     44  O         70.8460   52.2030   21.7480 O.2    66  LYS66      -0.2864
     45  CB        72.0980   49.5100   21.3320 C.3    66  LYS66       0.0298
     46  CG        71.9920   48.8800   22.6910 C.3    66  LYS66       0.0038
     47  CD        73.2450   48.1600   23.0230 C.3    66  LYS66       0.0206
     48  CE        73.3070   47.7890   24.4870 C.3    66  LYS66       0.1093
     49  NZ        72.0460   47.1510   24.9220 N.3    66  LYS66      -0.1314
     50  N         72.5880   52.7620   24.7310 N.3    69  THR69      -0.1203
     51  CA        73.8110   53.3910   24.3400 C.3    69  THR69       0.1994
     52  C         73.4780   54.4960   23.3470 C.2    69  THR69       0.2618
     53  O         73.3070   55.6510   23.7580 O.2    69  THR69      -0.2717
     54  CB        74.8380   52.3600   23.8480 C.3    69  THR69       0.1784
     55  OG1       74.2830   51.6040   22.7770 O.3    69  THR69      -0.2211
     56  CG2       75.2500   51.3820   24.9310 C.3    69  THR69       0.0376
     57  N         73.4180   54.1490   22.0710 N.am   70  SER70      -0.1951
     58  CA        73.1220   55.1090   21.0170 C.3    70  SER70       0.1924
     59  C         71.7870   55.8130   21.2720 C.2    70  SER70       0.2314
     60  O         71.7050   57.0220   21.1650 O.2    70  SER70      -0.2863
     61  CB        73.1810   54.5050   19.6370 C.3    70  SER70       0.2116
     62  OG        74.2910   53.6090   19.5340 O.3    70  SER70      -0.2180
     63  N         71.7730   59.9680   15.4580 N.3   102  TYR102     -0.1241
     64  CA        73.0040   59.4070   15.9580 C.3   102  TYR102      0.1605
     65  C         74.1580   59.6620   14.9720 C.2   102  TYR102      0.2264
     66  O         75.2730   60.0230   15.3480 O.2   102  TYR102     -0.2867
     67  CB        72.8130   57.9080   16.2760 C.3   102  TYR102      0.0534
     68  CG        74.0590   57.3640   16.9120 C.ar  102  TYR102     -0.0201
     69  CD1       74.4450   57.7740   18.1670 C.ar  102  TYR102     -0.0009
     70  CD2       74.8630   56.4530   16.2640 C.ar  102  TYR102     -0.0009
     71  CE1       75.5830   57.2810   18.7900 C.ar  102  TYR102      0.0417
     72  CE2       76.0270   55.9730   16.8550 C.ar  102  TYR102      0.0417
     73  CZ        76.3870   56.3800   18.1210 C.ar  102  TYR102      0.1957
     74  OH        77.5560   55.9740   18.7260 O.3   102  TYR102     -0.2866
     75  N         82.8430   54.4900   12.4630 N.3   127  SER127     -0.1202
     76  CA        82.4450   54.9490   13.8200 C.3   127  SER127      0.2020
     77  C         81.1000   54.3360   14.2100 C.2   127  SER127      0.2619
     78  O         80.9180   53.9860   15.3590 O.2   127  SER127     -0.2717
     79  CB        82.4180   56.4530   13.9570 C.3   127  SER127      0.2103
     80  OG        83.7060   56.9870   13.7200 O.3   127  SER127     -0.2182
     81  N         80.1620   54.2300   13.2740 N.am  128  TYR128     -0.1961
     82  CA        78.8790   53.6190   13.5470 C.3   128  TYR128      0.1771
     83  C         79.1270   52.1500   13.9250 C.2   128  TYR128      0.2619
     84  O         78.5020   51.6780   14.8680 O.2   128  TYR128     -0.2715
     85  CB        77.9870   53.7500   12.3050 C.3   128  TYR128      0.0574
     86  CG        76.5260   53.4990   12.5530 C.ar  128  TYR128     -0.0198
     87  CD1       75.6750   54.5570   12.8740 C.ar  128  TYR128     -0.0009
     88  CD2       75.9760   52.2350   12.3760 C.ar  128  TYR128     -0.0009
     89  CE1       74.3190   54.3580   13.0390 C.ar  128  TYR128      0.0417
     90  CE2       74.6230   52.0230   12.5990 C.ar  128  TYR128      0.0417
     91  CZ        73.7950   53.0840   12.9180 C.ar  128  TYR128      0.1957
     92  OH        72.4400   52.9140   13.0690 O.3   128  TYR128     -0.2866
     93  N         80.0340   51.5030   13.2130 N.am  129  ALA129     -0.1977
     94  CA        80.3560   50.0680   13.3840 C.3   129  ALA129      0.1597
     95  C         80.9940   49.8240   14.7710 C.2   129  ALA129      0.2287
     96  O         80.5100   48.9540   15.5500 O.2   129  ALA129     -0.2864
     97  CB        81.2430   49.5790   12.2810 C.3   129  ALA129      0.0319
@<TRIPOS>BOND
     1     1     2    1
     2     2     3    1
     3     2     5    1
     4     3     4    2
     5     5     6    1
     6     6     7    1
     7     9     7   ar
     8     7     8   ar
     9    31    30    2
    10    97    94    1
    11    85    86    1
    12    85    82    1
    13    88    86   ar
    14    88    90   ar
    15    75    76    1
    16    32    30   am
    17    86    87   ar
    18    30    29    1
    19    90    91   ar
    20    87    89   ar
    21    91    89   ar
    22    91    92    1
    23    29    28    1
    24    93    94    1
    25    93    83   am
    26    81    82    1
    27    81    77   am
    28    24    25    1
    29    94    95    1
    30    82    83    1
    31    80    79    1
    32    76    79    1
    33    76    77    1
    34    28    25    1
    35    83    84    2
    36    77    78    2
    37    25    26    1
    38    95    96    2
    39    65    66    2
    40    65    64    1
    41    63    64    1
    42    26    27    2
    43    26    33   am
    44    39    38    1
    45    38    40    1
    46    38    37    1
    47    64    67    1
    48    33    34    1
    49    70    72   ar
    50    70    68   ar
    51    67    68    1
    52    16    17    1
    53    16    15    1
    54    18    17    1
    55    72    73   ar
    56    68    69   ar
    57    37    34    1
    58    15    14    1
    59    34    35    1
    60    22    21    2
    61    10    11    1
    62    21    20    1
    63    23    20    1
    64    73    74    1
    65    73    71   ar
    66    69    71   ar
    67    35    36    2
    68    35    41   am
    69    14    11    1
    70    20    19    1
    71    11    12    1
    72    41    42    1
    73    62    61    1
    74    61    58    1
    75    13    12    2
    76    42    45    1
    77    42    43    1
    78    58    59    1
    79    58    57    1
    80    60    59    2
    81    45    46    1
    82    43    44    2
    83    57    52   am
    84    46    47    1
    85    55    54    1
    86    47    48    1
    87    52    53    2
    88    52    51    1
    89    54    51    1
    90    54    56    1
    91    51    50    1
    92    48    49    1
