@<TRIPOS>MOLECULE
tmp/6gi5B00.pdb
 192 189 0 0 0
SMALL
GASTEIGER

@<TRIPOS>ATOM
      1  N         12.9750    0.9660  -60.5960 N.3     1  ASP1       -0.1225
      2  CA        13.7690    0.2730  -61.6580 C.3     1  ASP1        0.1790
      3  C         15.1400   -0.1840  -61.1340 C.2     1  ASP1        0.2439
      4  O         15.4600    0.0310  -59.9630 O.2     1  ASP1       -0.2733
      5  CB        13.9100    1.1690  -62.9040 C.3     1  ASP1        0.1423
      6  CG        14.8920    2.3260  -62.7090 C.2     1  ASP1        0.3668
      7  OD1       16.0930    2.1390  -62.9930 O.co2   1  ASP1       -0.2456
      8  OD2       14.4460    3.4610  -62.4290 O.co2   1  ASP1       -0.2456
      9  N         15.9080   -0.9060  -61.9730 N.am    2  PRO2       -0.2729
     10  CA        17.2560   -1.3470  -61.5770 C.3     2  PRO2        0.1401
     11  C         18.3480   -0.2630  -61.5430 C.2     2  PRO2        0.2269
     12  O         19.5150   -0.5860  -61.3160 O.2     2  PRO2       -0.2865
     13  CB        17.6060   -2.4010  -62.6350 C.3     2  PRO2        0.0296
     14  CG        16.2940   -2.9220  -63.1070 C.3     2  PRO2        0.0237
     15  CD        15.3330   -1.7720  -63.0210 C.3     2  PRO2        0.0939
     16  N         18.8490    2.2490  -54.6010 N.3    91  ARG91      -0.1231
     17  CA        17.8390    1.7360  -53.6810 C.3    91  ARG91       0.1694
     18  C         18.0150    0.2180  -53.4610 C.2    91  ARG91       0.2591
     19  O         17.7130   -0.3110  -52.3830 O.2    91  ARG91      -0.2718
     20  CB        16.4440    2.0200  -54.2410 C.3    91  ARG91       0.0321
     21  CG        15.3310    1.9780  -53.2040 C.3    91  ARG91       0.0489
     22  CD        14.0050    2.4860  -53.7730 C.3    91  ARG91       0.2205
     23  NE        12.8890    1.6290  -53.3740 N.pl3  91  ARG91      -0.0865
     24  CZ        12.6690    0.4000  -53.8500 C.cat  91  ARG91       0.5346
     25  NH1       13.4750   -0.1300  -54.7710 N.pl3  91  ARG91       0.1354
     26  NH2       11.6510   -0.3190  -53.3860 N.pl3  91  ARG91       0.1354
     27  N         18.5030   -0.4780  -54.4880 N.am   92  ILE92      -0.1980
     28  CA        18.6620   -1.9270  -54.4330 C.3    92  ILE92       0.1595
     29  C         20.0140   -2.3420  -55.0350 C.2    92  ILE92       0.2287
     30  O         20.4790   -1.7500  -56.0030 O.2    92  ILE92      -0.2864
     31  CB        17.5370   -2.6380  -55.1990 C.3    92  ILE92       0.0276
     32  CG1       16.1850   -2.4210  -54.5080 C.3    92  ILE92       0.0022
     33  CG2       17.8500   -4.1200  -55.3290 C.3    92  ILE92       0.0022
     34  CD1       15.9500   -3.3030  -53.3000 C.3    92  ILE92       0.0001
     35  N         21.6810   -5.4550  -56.6480 N.3    94  ARG94      -0.1245
     36  CA        21.1890   -6.7440  -57.1470 C.3    94  ARG94       0.1563
     37  C         22.1700   -7.8850  -56.8870 C.2    94  ARG94       0.2260
     38  O         21.7800   -8.9430  -56.3820 O.2    94  ARG94      -0.2867
     39  CB        20.7480   -6.6490  -58.6160 C.3    94  ARG94       0.0307
     40  CG        19.5480   -5.7130  -58.8030 C.3    94  ARG94       0.0489
     41  CD        18.6860   -5.9950  -60.0290 C.3    94  ARG94       0.2205
     42  NE        19.4910   -6.2290  -61.2220 N.pl3  94  ARG94      -0.0865
     43  CZ        19.8160   -7.4330  -61.6830 C.cat  94  ARG94       0.5346
     44  NH1       19.3700   -8.5290  -61.0800 N.pl3  94  ARG94       0.1354
     45  NH2       20.5980   -7.5420  -62.7470 N.pl3  94  ARG94       0.1354
     46  N         22.4600   -8.6650  -52.8630 N.3    97  ARG97      -0.1231
     47  CA        21.2930   -9.3100  -52.2910 C.3    97  ARG97       0.1694
     48  C         21.0700  -10.6870  -52.8810 C.2    97  ARG97       0.2592
     49  O         20.6480  -11.6030  -52.1700 O.2    97  ARG97      -0.2718
     50  CB        20.0510   -8.4330  -52.4630 C.3    97  ARG97       0.0321
     51  CG        19.4140   -8.4500  -53.8440 C.3    97  ARG97       0.0489
     52  CD        18.4270   -7.2970  -53.9840 C.3    97  ARG97       0.2205
     53  NE        17.2890   -7.4280  -53.0750 N.pl3  97  ARG97      -0.0865
     54  CZ        16.2340   -8.1930  -53.3250 C.cat  97  ARG97       0.5346
     55  NH1       15.2570   -8.2950  -52.4340 N.pl3  97  ARG97       0.1354
     56  NH2       16.1670   -8.8830  -54.4590 N.pl3  97  ARG97       0.1354
     57  N         21.4030  -10.8700  -54.1540 N.am   98  THR98      -0.1953
     58  CA        21.2640  -12.1910  -54.7420 C.3    98  THR98       0.1897
     59  C         22.1420  -13.1870  -54.0150 C.2    98  THR98       0.2313
     60  O         21.7210  -14.3020  -53.7750 O.2    98  THR98      -0.2863
     61  CB        21.6220  -12.2150  -56.2300 C.3    98  THR98       0.1794
     62  OG1       20.9680  -11.1310  -56.8980 O.3    98  THR98      -0.2208
     63  CG2       21.1840  -13.5440  -56.8610 C.3    98  THR98       0.0378
     64  N         17.5590  -16.9310  -62.1010 N.3   115  LEU115     -0.1231
     65  CA        16.8400  -15.8120  -62.6940 C.3   115  LEU115      0.1693
     66  C         17.7690  -14.7970  -63.3390 C.2   115  LEU115      0.2592
     67  O         17.6070  -14.4860  -64.5150 O.2   115  LEU115     -0.2718
     68  CB        15.9380  -15.1250  -61.6700 C.3   115  LEU115      0.0284
     69  CG        14.4960  -15.0320  -62.1720 C.3   115  LEU115      0.0019
     70  CD1       13.8710  -16.4240  -62.2030 C.3   115  LEU115      0.0001
     71  CD2       13.6790  -14.0620  -61.3290 C.3   115  LEU115      0.0001
     72  N         18.7490  -14.2950  -62.5880 N.am  116  ASN116     -0.1974
     73  CA        19.6660  -13.2740  -63.1190 C.3   116  ASN116      0.1688
     74  C         21.1150  -13.7530  -63.2630 C.2   116  ASN116      0.2292
     75  O         21.9570  -13.0020  -63.7530 O.2   116  ASN116     -0.2864
     76  CB        19.6150  -11.9960  -62.2720 C.3   116  ASN116      0.1181
     77  CG        19.5330  -12.2830  -60.7840 C.2   116  ASN116      0.2629
     78  OD1       20.4360  -12.8950  -60.2050 O.2   116  ASN116     -0.2716
     79  ND2       18.4480  -11.8400  -60.1550 N.am  116  ASN116     -0.0877
     80  N         11.8690   -8.3970  -47.6820 N.3   154  HIS154     -0.1226
     81  CA        10.9070   -8.3980  -48.7720 C.3   154  HIS154      0.1752
     82  C         11.4570   -9.1710  -49.9760 C.2   154  HIS154      0.2597
     83  O         12.6110   -8.9860  -50.3280 O.2   154  HIS154     -0.2718
     84  CB        10.6590   -6.9570  -49.1780 C.3   154  HIS154      0.0759
     85  CG         9.8550   -6.8170  -50.4250 C.ar  154  HIS154      0.0818
     86  ND1       10.4160   -6.4680  -51.6340 N.ar  154  HIS154     -0.2268
     87  CD2        8.5340   -6.9940  -50.6560 C.ar  154  HIS154      0.1154
     88  CE1        9.4710   -6.4220  -52.5540 C.ar  154  HIS154      0.1986
     89  NE2        8.3190   -6.7280  -51.9850 N.ar  154  HIS154     -0.2212
     90  N         10.6500  -10.0420  -50.5760 N.am  155  SER155     -0.1938
     91  CA        11.0260  -10.7020  -51.8320 C.3   155  SER155      0.2055
     92  C         12.1590  -11.7020  -51.5550 C.2   155  SER155      0.2643
     93  O         12.0120  -12.5790  -50.7030 O.2   155  SER155     -0.2714
     94  CB        11.4510   -9.6550  -52.8650 C.3   155  SER155      0.2130
     95  OG        11.8880  -10.2700  -54.0600 O.3   155  SER155     -0.2179
     96  N         13.3180  -11.5420  -52.1870 N.am  156  TYR156     -0.1973
     97  CA        14.4690  -12.3710  -51.8280 C.3   156  TYR156      0.1639
     98  C         14.8310  -12.1640  -50.3480 C.2   156  TYR156      0.2290
     99  O         15.2790  -13.0890  -49.6700 O.2   156  TYR156     -0.2864
    100  CB        15.6570  -12.0370  -52.7260 C.3   156  TYR156      0.0560
    101  CG        15.7680  -12.8860  -53.9700 C.ar  156  TYR156     -0.0198
    102  CD1       14.6840  -13.5960  -54.4530 C.ar  156  TYR156     -0.0009
    103  CD2       16.9600  -12.9360  -54.6870 C.ar  156  TYR156     -0.0009
    104  CE1       14.7930  -14.3600  -55.6000 C.ar  156  TYR156      0.0417
    105  CE2       17.0750  -13.6870  -55.8400 C.ar  156  TYR156      0.0417
    106  CZ        15.9930  -14.4040  -56.2900 C.ar  156  TYR156      0.1957
    107  OH        16.1150  -15.1580  -57.4350 O.3   156  TYR156     -0.2866
    108  N          6.0420  -10.8350  -49.1070 N.3   179  SER179     -0.1217
    109  CA         6.1230  -11.3250  -50.4790 C.3   179  SER179      0.1889
    110  C          7.3770  -12.1790  -50.6860 C.2   179  SER179      0.2288
    111  O          8.0720  -12.0280  -51.6890 O.2   179  SER179     -0.2866
    112  CB         6.1420  -10.1510  -51.4650 C.3   179  SER179      0.2089
    113  OG         4.9850   -9.3410  -51.3260 O.3   179  SER179     -0.2183
    114  N          9.9160  -14.8880  -51.8250 N.3   181  SER181     -0.1217
    115  CA        10.0000  -15.4600  -53.1570 C.3   181  SER181      0.1889
    116  C          9.9550  -16.9970  -53.1160 C.2   181  SER181      0.2288
    117  O         10.9680  -17.6840  -53.3090 O.2   181  SER181     -0.2866
    118  CB        11.2550  -14.9450  -53.8530 C.3   181  SER181      0.2089
    119  OG        11.1710  -13.5330  -54.0080 O.3   181  SER181     -0.2183
    120  N          8.7140  -19.1310  -54.9710 N.3   183  TRP183     -0.1241
    121  CA         8.9880  -19.7210  -56.2850 C.3   183  TRP183      0.1605
    122  C         10.4590  -20.0870  -56.5190 C.2   183  TRP183      0.2264
    123  O         10.7660  -20.8410  -57.4500 O.2   183  TRP183     -0.2867
    124  CB         8.5590  -18.7310  -57.3740 C.3   183  TRP183      0.0550
    125  CG         9.2420  -17.3990  -57.2600 C.ar  183  TRP183      0.0003
    126  CD1        8.7990  -16.3040  -56.5790 C.ar  183  TRP183      0.0946
    127  CD2       10.5070  -17.0370  -57.8210 C.ar  183  TRP183      0.0152
    128  NE1        9.6950  -15.2720  -56.7060 N.ar  183  TRP183     -0.2442
    129  CE2       10.7540  -15.6990  -57.4660 C.ar  183  TRP183      0.0810
    130  CE3       11.4480  -17.7110  -58.6050 C.ar  183  TRP183      0.0012
    131  CZ2       11.9300  -15.0430  -57.8170 C.ar  183  TRP183      0.0191
    132  CZ3       12.6080  -17.0590  -58.9560 C.ar  183  TRP183      0.0001
    133  CH2       12.8310  -15.7310  -58.5850 C.ar  183  TRP183      0.0015
    134  N         -0.1710   -9.7060  -56.9780 N.3   215  GLU215     -0.1231
    135  CA         1.1220  -10.2710  -57.3350 C.3   215  GLU215      0.1684
    136  C          0.9460  -11.5020  -58.2010 C.2   215  GLU215      0.2434
    137  O          0.1480  -12.3670  -57.8700 O.2   215  GLU215     -0.2733
    138  CB         1.8930  -10.6870  -56.0790 C.3   215  GLU215      0.0402
    139  CG         2.7780   -9.6280  -55.4530 C.3   215  GLU215      0.1161
    140  CD         3.5300  -10.1630  -54.2460 C.2   215  GLU215      0.3649
    141  OE1        3.1290   -9.8460  -53.1050 O.co2 215  GLU215     -0.2457
    142  OE2        4.4510  -10.9920  -54.4350 O.co2 215  GLU215     -0.2457
    143  N          1.7910  -11.6470  -59.2310 N.am  216  PRO216     -0.2718
    144  CA         1.8900  -12.9160  -59.9280 C.3   216  PRO216      0.1535
    145  C          2.5440  -13.9890  -59.0760 C.2   216  PRO216      0.2598
    146  O          3.0990  -13.6890  -58.0230 O.2   216  PRO216     -0.2715
    147  CB         2.7690  -12.5930  -61.1460 C.3   216  PRO216      0.0310
    148  CG         3.4800  -11.3330  -60.8020 C.3   216  PRO216      0.0237
    149  CD         2.5430  -10.5770  -59.9120 C.3   216  PRO216      0.0939
    150  N          2.4380  -15.2330  -59.5270 N.am  217  ALA217     -0.1964
    151  CA         3.0450  -16.3770  -58.8500 C.3   217  ALA217      0.1728
    152  C          4.5670  -16.3330  -58.8660 C.2   217  ALA217      0.2617
    153  O          5.2190  -16.9210  -58.0100 O.2   217  ALA217     -0.2715
    154  CB         2.5600  -17.6700  -59.4890 C.3   217  ALA217      0.0334
    155  N          5.1180  -15.7030  -59.8980 N.am  218  SER218     -0.1936
    156  CA         6.5640  -15.4850  -60.0180 C.3   218  SER218      0.2040
    157  C          6.7900  -14.4190  -61.0850 C.2   218  SER218      0.2485
    158  O          5.8620  -14.0680  -61.8130 O.2   218  SER218     -0.2729
    159  CB         7.2840  -16.7860  -60.3990 C.3   218  SER218      0.2129
    160  OG         6.9100  -17.2240  -61.6920 O.3   218  SER218     -0.2179
    161  N          8.0130  -13.8760  -61.1630 N.am  219  PRO219     -0.2715
    162  CA         8.2630  -12.8040  -62.1220 C.3   219  PRO219      0.1536
    163  C          8.2900  -13.2820  -63.5780 C.2   219  PRO219      0.2598
    164  O          8.3170  -12.4650  -64.5010 O.2   219  PRO219     -0.2715
    165  CB         9.6400  -12.2630  -61.7050 C.3   219  PRO219      0.0310
    166  CG        10.2200  -13.2780  -60.7760 C.3   219  PRO219      0.0237
    167  CD         9.0580  -13.9570  -60.1310 C.3   219  PRO219      0.0939
    168  N          8.4420  -14.5890  -63.7660 N.am  220  ARG220     -0.1978
    169  CA         8.3240  -15.2160  -65.0810 C.3   220  ARG220      0.1597
    170  C          7.6960  -16.6070  -64.9210 C.2   220  ARG220      0.2287
    171  O          8.3770  -17.6290  -65.0500 O.2   220  ARG220     -0.2864
    172  CB         9.7070  -15.3350  -65.7390 C.3   220  ARG220      0.0334
    173  CG        10.3740  -14.0090  -66.0890 C.3   220  ARG220      0.0492
    174  CD        11.8910  -14.1190  -66.0460 C.3   220  ARG220      0.2205
    175  NE        12.5500  -13.0830  -66.8400 N.pl3 220  ARG220     -0.0865
    176  CZ        13.8560  -13.0450  -67.0880 C.cat 220  ARG220      0.5346
    177  NH1       14.6640  -13.9730  -66.5890 N.pl3 220  ARG220      0.1354
    178  NH2       14.3610  -12.0720  -67.8350 N.pl3 220  ARG220      0.1354
    179  N          3.7990   -6.5210  -56.2630 N.3   252  HIS252     -0.1226
    180  CA         5.0250   -6.9910  -55.6220 C.3   252  HIS252      0.1752
    181  C          5.8560   -5.8750  -54.9920 C.2   252  HIS252      0.2596
    182  O          6.3100   -5.9810  -53.8480 O.2   252  HIS252     -0.2718
    183  CB         5.8810   -7.7340  -56.6480 C.3   252  HIS252      0.0759
    184  CG         7.0850   -8.3950  -56.0610 C.ar  252  HIS252      0.0818
    185  ND1        7.0000   -9.4710  -55.2020 N.ar  252  HIS252     -0.2268
    186  CD2        8.4030   -8.1140  -56.1840 C.ar  252  HIS252      0.1154
    187  CE1        8.2150   -9.8410  -54.8400 C.ar  252  HIS252      0.1986
    188  NE2        9.0860   -9.0440  -55.4350 N.ar  252  HIS252     -0.2212
    189  N          6.1270   -4.8340  -55.7720 N.am  253  GLY253     -0.1957
    190  CA         6.9080   -3.7070  -55.2930 C.3   253  GLY253      0.1869
    191  C          6.2800   -3.0150  -54.0930 C.2   253  GLY253      0.2309
    192  O          6.9680   -2.5880  -53.1640 O.2   253  GLY253     -0.2863
@<TRIPOS>BOND
     1   178   176    1
     2   176   175    2
     3   176   177    1
     4   175   174    1
     5   173   174    1
     6   173   172    1
     7   172   169    1
     8   169   170    1
     9   169   168    1
    10   171   170    2
    11    67    66    2
    12   164   163    2
    13   168   163   am
    14    75    74    2
    15   163   162    1
    16    66    65    1
    17    66    72   am
    18    74    73    1
    19    73    72    1
    20    73    76    1
    21    14    15    1
    22    14    13    1
    23    15     9    1
    24     7     6   ar
    25     5     6    1
    26     5     2    1
    27    45    43    1
    28     6     8   ar
    29    65    64    1
    30    65    68    1
    31    13    10    1
    32    76    77    1
    33    70    69    1
    34    69    68    1
    35    69    71    1
    36   162   165    1
    37   162   161    1
    38     9    10    1
    39     9     3   am
    40   158   157    2
    41   165   166    1
    42   160   159    1
    43    43    42    2
    44    43    44    1
    45     2     3    1
    46     2     1    1
    47    10    11    1
    48    11    12    2
    49    42    41    1
    50   161   157   am
    51   161   167    1
    52   147   148    1
    53   147   144    1
    54     3     4    2
    55   157   156    1
    56   148   149    1
    57    77    78    2
    58    77    79   am
    59   166   167    1
    60   159   156    1
    61    41    40    1
    62   156   155    1
    63   144   143    1
    64   144   145    1
    65   149   143    1
    66   155   152   am
    67   150   145   am
    68   150   151    1
    69   154   151    1
    70   143   136   am
    71   145   146    2
    72   132   130   ar
    73   132   133   ar
    74   152   151    1
    75   152   153    2
    76    40    39    1
    77    39    36    1
    78   130   127   ar
    79   133   131   ar
    80   136   137    2
    81   136   135    1
    82   127   129   ar
    83   127   125   ar
    84   131   129   ar
    85   129   128   ar
    86   123   122    2
    87   107   106    1
    88   124   125    1
    89   124   121    1
    90   135   134    1
    91   135   138    1
    92   125   126   ar
    93    36    37    1
    94    36    35    1
    95    62    61    1
    96    37    38    2
    97    63    61    1
    98   128   126   ar
    99   183   184    1
   100   183   180    1
   101   122   121    1
   102   106   105   ar
   103   106   104   ar
   104   121   120    1
   105   179   180    1
   106    61    58    1
   107   186   184   ar
   108   186   188   ar
   109   138   139    1
   110   184   185   ar
   111    30    29    2
   112   105   103   ar
   113   189   190    1
   114   189   181   am
   115   180   181    1
   116   104   102   ar
   117   139   140    1
   118   188   187   ar
   119    33    31    1
   120   190   191    1
   121   185   187   ar
   122    31    32    1
   123    31    28    1
   124    29    28    1
   125   181   182    2
   126    25    24    1
   127    58    57    1
   128    58    59    1
   129   103   101   ar
   130    16    17    1
   131    32    34    1
   132    27    28    1
   133    27    18   am
   134    56    54    1
   135   102   101   ar
   136   142   140   ar
   137   140   141   ar
   138    20    17    1
   139    20    21    1
   140    57    48   am
   141   191   192    2
   142    95    94    1
   143    59    60    2
   144   119   118    1
   145    52    51    1
   146    52    53    1
   147   101   100    1
   148   118   115    1
   149    24    26    1
   150    24    23    2
   151    51    50    1
   152    22    23    1
   153    22    21    1
   154    17    18    1
   155    18    19    2
   156    54    53    2
   157    54    55    1
   158   117   116    2
   159   115   116    1
   160   115   114    1
   161    48    47    1
   162    48    49    2
   163    94    91    1
   164    46    47    1
   165   100    97    1
   166    88    89   ar
   167    88    86   ar
   168    50    47    1
   169    96    97    1
   170    96    92   am
   171    89    87   ar
   172    91    92    1
   173    91    90    1
   174    97    98    1
   175   111   110    2
   176    86    85   ar
   177    92    93    2
   178   112   113    1
   179   112   109    1
   180   110   109    1
   181    87    85   ar
   182    90    82   am
   183   109   108    1
   184    85    84    1
   185    98    99    2
   186    83    82    2
   187    82    81    1
   188    84    81    1
   189    81    80    1
