@<TRIPOS>MOLECULE
tmp/6gi6A00.pdb
 153 144 0 0 0
SMALL
GASTEIGER

@<TRIPOS>ATOM
      1  N        -19.8430  149.8460  164.7690 N.3    13  VAL13      -0.1231
      2  CA       -19.6360  149.7920  163.3270 C.3    13  VAL13       0.1692
      3  C        -18.4780  148.8880  162.9380 C.2    13  VAL13       0.2592
      4  O        -18.2270  148.7050  161.7380 O.2    13  VAL13      -0.2718
      5  CB       -19.4310  151.1990  162.7350 C.3    13  VAL13       0.0266
      6  CG1      -20.6270  152.0910  163.0440 C.3    13  VAL13       0.0020
      7  CG2      -18.1440  151.8110  163.2600 C.3    13  VAL13       0.0020
      8  N        -17.7670  148.3140  163.9030 N.am   14  GLY14      -0.1957
      9  CA       -16.6630  147.4310  163.5820 C.3    14  GLY14       0.1869
     10  C        -16.2040  146.5700  164.7410 C.2    14  GLY14       0.2309
     11  O        -16.1960  147.0150  165.8920 O.2    14  GLY14      -0.2863
     12  N        -14.9330  149.2810  166.9650 N.3    21  VAL21      -0.1245
     13  CA       -15.1100  150.6660  166.5570 C.3    21  VAL21       0.1561
     14  C        -16.5620  151.0340  166.7950 C.2    21  VAL21       0.2260
     15  O        -17.4690  150.2720  166.4380 O.2    21  VAL21      -0.2867
     16  CB       -14.7220  150.8930  165.0880 C.3    21  VAL21       0.0252
     17  CG1      -15.0630  152.3140  164.6890 C.3    21  VAL21       0.0019
     18  CG2      -13.2490  150.6400  164.9020 C.3    21  VAL21       0.0019
     19  N        -15.9100  158.9690  166.0080 N.3    32  ALA32      -0.1245
     20  CA       -15.5090  157.5780  165.8740 C.3    32  ALA32       0.1562
     21  C        -14.6270  157.2070  167.0570 C.2    32  ALA32       0.2260
     22  O        -13.6950  157.9460  167.3980 O.2    32  ALA32      -0.2867
     23  CB       -14.7640  157.3450  164.5630 C.3    32  ALA32       0.0290
     24  N        -12.4350  153.9720  168.6750 N.3    34  LYS34      -0.1245
     25  CA       -11.8660  152.6330  168.6430 C.3    34  LYS34       0.1561
     26  C        -11.5080  152.2340  170.0670 C.2    34  LYS34       0.2260
     27  O        -10.6750  152.8860  170.7070 O.2    34  LYS34      -0.2867
     28  CB       -10.6310  152.5720  167.7480 C.3    34  LYS34       0.0271
     29  CG       -10.0820  151.1650  167.5560 C.3    34  LYS34       0.0035
     30  CD        -8.9680  151.1590  166.5240 C.3    34  LYS34       0.0206
     31  CE        -8.3670  149.7780  166.3540 C.3    34  LYS34       0.1093
     32  NZ        -7.3250  149.7770  165.2850 N.3    34  LYS34      -0.1314
     33  N         -0.2450  154.5230  168.4450 N.3    47  GLU47      -0.1245
     34  CA        -1.0890  155.5530  167.8440 C.3    47  GLU47       0.1567
     35  C         -1.1650  156.7930  168.7240 C.2    47  GLU47       0.2260
     36  O         -1.1550  157.9250  168.2200 O.2    47  GLU47      -0.2867
     37  CB        -2.4900  155.0060  167.5820 C.3    47  GLU47       0.0388
     38  CG        -2.5570  153.9950  166.4520 C.3    47  GLU47       0.1160
     39  CD        -3.9100  153.9950  165.7610 C.2    47  GLU47       0.3649
     40  OE1       -4.7760  153.1810  166.1440 O.co2  47  GLU47      -0.2457
     41  OE2       -4.1110  154.8210  164.8440 O.co2  47  GLU47      -0.2457
     42  N         -6.7220  160.0900  158.8090 N.3    62  LEU62      -0.1245
     43  CA        -7.8720  160.1330  159.7070 C.3    62  LEU62       0.1561
     44  C         -7.6630  161.1720  160.8000 C.2    62  LEU62       0.2260
     45  O         -6.6400  161.1700  161.4880 O.2    62  LEU62      -0.2867
     46  CB        -8.1100  158.7590  160.3310 C.3    62  LEU62       0.0270
     47  CG        -9.2460  158.6780  161.3530 C.3    62  LEU62       0.0019
     48  CD1      -10.5750  159.1120  160.7400 C.3    62  LEU62       0.0001
     49  CD2       -9.3420  157.2730  161.9180 C.3    62  LEU62       0.0001
     50  N         -9.3070  155.5940  171.3210 N.3    80  LEU80      -0.1245
     51  CA        -8.7700  156.5050  170.3150 C.3    80  LEU80       0.1561
     52  C         -9.9680  157.1520  169.6340 C.2    80  LEU80       0.2260
     53  O        -10.7280  156.4730  168.9370 O.2    80  LEU80      -0.2867
     54  CB        -7.8940  155.7680  169.3010 C.3    80  LEU80       0.0270
     55  CG        -7.3030  156.6520  168.2030 C.3    80  LEU80       0.0019
     56  CD1       -6.3950  157.7020  168.8240 C.3    80  LEU80       0.0001
     57  CD2       -6.5460  155.8300  167.1520 C.3    80  LEU80       0.0001
     58  N        -11.6720  159.8040  167.0440 N.3    82  THR82      -0.1203
     59  CA       -11.3480  160.4290  165.7650 C.3    82  THR82       0.1994
     60  C        -12.6080  161.0020  165.1290 C.2    82  THR82       0.2618
     61  O        -13.7310  160.7520  165.5790 O.2    82  THR82      -0.2717
     62  CB       -10.7000  159.4310  164.7930 C.3    82  THR82       0.1784
     63  OG1      -11.6710  158.4530  164.4030 O.3    82  THR82      -0.2211
     64  CG2       -9.5210  158.7230  165.4380 C.3    82  THR82       0.0376
     65  N        -12.4080  161.7900  164.0690 N.am   83  HIS83      -0.1961
     66  CA       -13.5150  162.2220  163.2270 C.3    83  HIS83       0.1787
     67  C        -14.3360  161.0190  162.7790 C.2    83  HIS83       0.2620
     68  O        -13.8270  159.8990  162.6830 O.2    83  HIS83      -0.2715
     69  CB       -12.9900  162.9720  161.9980 C.3    83  HIS83       0.0785
     70  CG       -12.3250  164.2740  162.3190 C.ar   83  HIS83       0.0821
     71  ND1      -11.3810  164.8510  161.4960 N.ar   83  HIS83      -0.2267
     72  CD2      -12.4720  165.1140  163.3710 C.ar   83  HIS83       0.1154
     73  CE1      -10.9710  165.9870  162.0320 C.ar   83  HIS83       0.1986
     74  NE2      -11.6180  166.1710  163.1690 N.ar   83  HIS83      -0.2212
     75  N        -15.6160  161.2520  162.4870 N.am   84  TYR84      -0.1960
     76  CA       -16.5050  160.2150  161.9720 C.3    84  TYR84       0.1771
     77  C        -16.9080  160.5380  160.5400 C.2    84  TYR84       0.2620
     78  O        -17.3940  161.6410  160.2600 O.2    84  TYR84      -0.2715
     79  CB       -17.7560  160.0670  162.8370 C.3    84  TYR84       0.0574
     80  CG       -18.5800  158.8490  162.4760 C.ar   84  TYR84      -0.0198
     81  CD1      -18.2420  157.5940  162.9660 C.ar   84  TYR84      -0.0009
     82  CD2      -19.6880  158.9520  161.6480 C.ar   84  TYR84      -0.0009
     83  CE1      -18.9840  156.4750  162.6440 C.ar   84  TYR84       0.0417
     84  CE2      -20.4400  157.8360  161.3200 C.ar   84  TYR84       0.0417
     85  CZ       -20.0780  156.6010  161.8200 C.ar   84  TYR84       0.1957
     86  OH       -20.8130  155.4840  161.5010 O.3    84  TYR84      -0.2866
     87  N        -16.7230  159.5760  159.6400 N.am   85  HIS85      -0.1959
     88  CA       -17.0190  159.7600  158.2240 C.3    85  HIS85       0.1787
     89  C        -18.2430  158.9240  157.8680 C.2    85  HIS85       0.2620
     90  O        -18.2000  157.6900  157.9340 O.2    85  HIS85      -0.2715
     91  CB       -15.8100  159.3910  157.3700 C.3    85  HIS85       0.0785
     92  CG       -14.5970  160.2210  157.6600 C.ar   85  HIS85       0.0821
     93  ND1      -14.5130  161.5590  157.3340 N.ar   85  HIS85      -0.2267
     94  CD2      -13.4210  159.9050  158.2540 C.ar   85  HIS85       0.1154
     95  CE1      -13.3400  162.0310  157.7180 C.ar   85  HIS85       0.1986
     96  NE2      -12.6580  161.0470  158.2770 N.ar   85  HIS85      -0.2212
     97  N        -19.3360  159.6010  157.5000 N.am   86  GLU86      -0.1977
     98  CA       -20.5950  158.9040  157.2410 C.3    86  GLU86       0.1602
     99  C        -20.4390  157.8390  156.1590 C.2    86  GLU86       0.2287
    100  O        -21.0710  156.7790  156.2310 O.2    86  GLU86      -0.2864
    101  CB       -21.6840  159.9090  156.8470 C.3    86  GLU86       0.0415
    102  CG       -21.7800  161.0160  157.8900 C.3    86  GLU86       0.1163
    103  CD       -22.4880  160.6260  159.1600 C.2    86  GLU86       0.3649
    104  OE1      -22.9310  159.4780  159.2400 O.co2  86  GLU86      -0.2457
    105  OE2      -22.6040  161.4800  160.0920 O.co2  86  GLU86      -0.2457
    106  N        -18.0160  155.8530  155.5140 N.3    88  GLY88      -0.1210
    107  CA       -17.4490  154.6160  156.0200 C.3    88  GLY88       0.1956
    108  C        -16.0890  154.2790  155.4380 C.2    88  GLY88       0.2612
    109  O        -15.3870  155.1140  154.8590 O.2    88  GLY88      -0.2717
    110  N        -15.7110  153.0150  155.6140 N.am   89  SER89      -0.1952
    111  CA       -14.4420  152.5320  155.0950 C.3    89  SER89       0.1924
    112  C        -14.5070  152.3480  153.5870 C.2    89  SER89       0.2314
    113  O        -15.5550  152.0430  153.0150 O.2    89  SER89      -0.2863
    114  CB       -14.0650  151.2040  155.7380 C.3    89  SER89       0.2116
    115  OG       -15.0160  150.2190  155.3890 O.3    89  SER89      -0.2180
    116  N         -9.7590  148.4100  154.4440 N.3   139  LYS139     -0.1231
    117  CA       -10.4690  148.5940  155.7080 C.3   139  LYS139      0.1693
    118  C         -9.8350  149.6660  156.5830 C.2   139  LYS139      0.2592
    119  O        -10.4950  150.1690  157.4980 O.2   139  LYS139     -0.2718
    120  CB       -10.5330  147.2810  156.4840 C.3   139  LYS139      0.0285
    121  CG       -11.5020  146.2620  155.9150 C.3   139  LYS139      0.0035
    122  CD       -11.6250  145.0900  156.8590 C.3   139  LYS139      0.0206
    123  CE       -12.7500  144.1600  156.4530 C.3   139  LYS139      0.1093
    124  NZ       -13.0280  143.1930  157.5500 N.3   139  LYS139     -0.1314
    125  N         -8.5700  150.0080  156.3430 N.am  140  ASN140     -0.1974
    126  CA        -7.8950  151.0850  157.0540 C.3   140  ASN140      0.1688
    127  C         -7.9240  152.3950  156.2800 C.2   140  ASN140      0.2292
    128  O         -7.0680  153.2590  156.5020 O.2   140  ASN140     -0.2864
    129  CB        -6.4510  150.6930  157.3760 C.3   140  ASN140      0.1181
    130  CG        -6.3350  149.8780  158.6600 C.2   140  ASN140      0.2629
    131  OD1       -7.2170  149.9180  159.5220 O.2   140  ASN140     -0.2716
    132  ND2       -5.2370  149.1390  158.7930 N.am  140  ASN140     -0.0877
    133  N        -10.7950  155.4660  154.9510 N.3   142  LEU142     -0.1245
    134  CA       -12.1540  155.9790  155.0560 C.3   142  LEU142      0.1561
    135  C        -12.4260  156.9750  153.9380 C.2   142  LEU142      0.2260
    136  O        -11.5070  157.6210  153.4200 O.2   142  LEU142     -0.2867
    137  CB       -12.3840  156.6130  156.4200 C.3   142  LEU142      0.0270
    138  CG       -12.0730  155.5240  157.4460 C.3   142  LEU142      0.0019
    139  CD1      -11.0890  155.9830  158.5030 C.3   142  LEU142      0.0001
    140  CD2      -13.3510  154.9870  158.0500 C.3   142  LEU142      0.0001
    141  N         -5.9860  155.4920  158.0190 N.3   152  ALA152     -0.1231
    142  CA        -6.1650  155.3180  159.4510 C.3   152  ALA152      0.1694
    143  C         -5.3200  154.1480  159.9430 C.2   152  ALA152      0.2592
    144  O         -4.6930  153.4320  159.1590 O.2   152  ALA152     -0.2718
    145  CB        -7.6440  155.1040  159.8000 C.3   152  ALA152      0.0304
    146  N         -5.2950  153.9740  161.2690 N.am  153  ASP153     -0.1974
    147  CA        -4.6060  152.8640  161.9280 C.3   153  ASP153      0.1709
    148  C         -3.0870  152.9700  161.8560 C.2   153  ASP153      0.2293
    149  O         -2.4510  152.3250  161.0150 O.2   153  ASP153     -0.2864
    150  CB        -5.0450  151.5240  161.3370 C.3   153  ASP153      0.1436
    151  CG        -4.5460  150.3360  162.1480 C.2   153  ASP153      0.3671
    152  OD1       -3.6790  150.5200  163.0340 O.co2 153  ASP153     -0.2456
    153  OD2       -5.0280  149.2140  161.9030 O.co2 153  ASP153     -0.2456
@<TRIPOS>BOND
     1   113   112    2
     2   136   135    2
     3   112   111    1
     4   135   134    1
     5   116   117    1
     6   109   108    2
     7   133   134    1
     8   134   137    1
     9   111   110    1
    10   111   114    1
    11   115   114    1
    12   108   110   am
    13   108   107    1
    14   106   107    1
    15   117   120    1
    16   117   118    1
    17   121   120    1
    18   121   122    1
    19    99   100    2
    20    99    98    1
    21   127   128    2
    22   127   126    1
    23   125   118   am
    24   125   126    1
    25   137   138    1
    26   123   122    1
    27   123   124    1
    28   118   119    2
    29   101    98    1
    30   101   102    1
    31   126   129    1
    32    98    97    1
    33    93    92   ar
    34    93    95   ar
    35    91    92    1
    36    91    88    1
    37   129   130    1
    38   138   140    1
    39   138   139    1
    40    97    89   am
    41    92    94   ar
    42    95    96   ar
    43    89    90    2
    44    89    88    1
    45   102   103    1
    46   141   142    1
    47    88    87    1
    48    94    96   ar
    49   130   132   am
    50   130   131    2
    51    42    43    1
    52   144   143    2
    53   103   104   ar
    54   103   105   ar
    55   142   145    1
    56   142   143    1
    57    87    77   am
    58    43    46    1
    59    43    44    1
    60   143   146   am
    61    78    77    2
    62    46    47    1
    63    77    76    1
    64    48    47    1
    65    44    45    2
    66   149   148    2
    67   146   147    1
    68    84    82   ar
    69    84    85   ar
    70   150   147    1
    71   150   151    1
    72    47    49    1
    73    71    73   ar
    74    71    70   ar
    75    86    85    1
    76    82    80   ar
    77     4     3    2
    78    85    83   ar
    79   148   147    1
    80   153   151   ar
    81    76    75    1
    82    76    79    1
    83    69    70    1
    84    69    66    1
    85    73    74   ar
    86   151   152   ar
    87    70    72   ar
    88    80    79    1
    89    80    81   ar
    90    75    67   am
    91    83    81   ar
    92    68    67    2
    93     5     6    1
    94     5     7    1
    95     5     2    1
    96    67    66    1
    97     3     2    1
    98     3     8   am
    99    74    72   ar
   100    66    65    1
   101     2     1    1
   102     9     8    1
   103     9    10    1
   104    65    60   am
   105    63    62    1
   106    23    20    1
   107    17    16    1
   108    10    11    2
   109    62    64    1
   110    62    59    1
   111    41    39   ar
   112    18    16    1
   113    16    13    1
   114    60    61    2
   115    60    59    1
   116    32    31    1
   117    39    40   ar
   118    39    38    1
   119    59    58    1
   120    20    19    1
   121    20    21    1
   122    31    30    1
   123    15    14    2
   124    38    37    1
   125    30    29    1
   126    13    14    1
   127    13    12    1
   128    21    22    2
   129    57    55    1
   130    29    28    1
   131    37    34    1
   132    28    25    1
   133    34    33    1
   134    34    35    1
   135    55    56    1
   136    55    54    1
   137    36    35    2
   138    25    24    1
   139    25    26    1
   140    53    52    2
   141    54    51    1
   142    52    51    1
   143    26    27    2
   144    51    50    1
