@<TRIPOS>MOLECULE
tmp/6gicB00.pdb
 129 129 0 0 0
SMALL
GASTEIGER

@<TRIPOS>ATOM
      1  N          0.5600  -13.7590   -6.5370 N.3    12  PHE12      -0.1227
      2  CA         0.1170  -12.5760   -7.2630 C.3    12  PHE12       0.1736
      3  C          0.0520  -11.3210   -6.4020 C.2    12  PHE12       0.2596
      4  O         -0.3540  -10.2690   -6.9200 O.2    12  PHE12      -0.2718
      5  CB        -1.2640  -12.7940   -7.9010 C.3    12  PHE12       0.0547
      6  CG        -1.3990  -14.1170   -8.6040 C.ar   12  PHE12      -0.0202
      7  CD1       -0.6960  -14.3630   -9.7710 C.ar   12  PHE12      -0.0042
      8  CD2       -2.2110  -15.1210   -8.0870 C.ar   12  PHE12      -0.0042
      9  CE1       -0.7990  -15.5870  -10.4270 C.ar   12  PHE12      -0.0003
     10  CE2       -2.3200  -16.3440   -8.7390 C.ar   12  PHE12      -0.0003
     11  CZ        -1.6080  -16.5810   -9.9140 C.ar   12  PHE12      -0.0000
     12  N          0.4390  -11.3800   -5.1230 N.am   13  SER13      -0.1938
     13  CA         0.5310  -10.1690   -4.2980 C.3    13  SER13       0.2040
     14  C          1.4900   -9.1620   -4.9390 C.2    13  SER13       0.2485
     15  O          2.6460   -9.5080   -5.2210 O.2    13  SER13      -0.2729
     16  CB         1.0290  -10.4870   -2.8840 C.3    13  SER13       0.2129
     17  OG         1.1660   -9.3110   -2.0820 O.3    13  SER13      -0.2179
     18  N          1.0660   -7.9180   -5.1770 N.am   14  PRO14      -0.2715
     19  CA         2.0330   -6.9080   -5.6340 C.3    14  PRO14       0.1536
     20  C          3.0500   -6.5640   -4.5760 C.2    14  PRO14       0.2598
     21  O          4.1660   -6.1530   -4.9250 O.2    14  PRO14      -0.2715
     22  CB         1.1540   -5.7040   -5.9770 C.3    14  PRO14       0.0310
     23  CG        -0.1140   -5.8900   -5.2030 C.3    14  PRO14       0.0237
     24  CD        -0.2930   -7.3700   -5.0210 C.3    14  PRO14       0.0939
     25  N          2.6900   -6.7210   -3.2950 N.am   15  TYR15      -0.1974
     26  CA         3.6310   -6.4390   -2.2140 C.3    15  TYR15       0.1639
     27  C          4.7670   -7.4520   -2.2400 C.2    15  TYR15       0.2290
     28  O          5.9440   -7.0920   -2.1730 O.2    15  TYR15      -0.2864
     29  CB         2.9150   -6.4360   -0.8400 C.3    15  TYR15       0.0560
     30  CG         1.8860   -5.3350   -0.6630 C.ar   15  TYR15      -0.0198
     31  CD1        2.2700   -4.0380   -0.3100 C.ar   15  TYR15      -0.0009
     32  CD2        0.5290   -5.5910   -0.8460 C.ar   15  TYR15      -0.0009
     33  CE1        1.3240   -3.0280   -0.1470 C.ar   15  TYR15       0.0417
     34  CE2       -0.4100   -4.6010   -0.6900 C.ar   15  TYR15       0.0417
     35  CZ        -0.0110   -3.3210   -0.3370 C.ar   15  TYR15       0.1957
     36  OH        -0.9570   -2.3270   -0.1870 O.3    15  TYR15      -0.2866
     37  N         -0.8340    5.3660   -4.6970 N.3   118  HIS118     -0.1226
     38  CA        -1.2110    4.1000   -4.0870 C.3   118  HIS118      0.1752
     39  C         -2.6790    4.1030   -3.6740 C.2   118  HIS118      0.2596
     40  O         -3.4310    3.1790   -4.0020 O.2   118  HIS118     -0.2718
     41  CB        -0.2950    3.8340   -2.8850 C.3   118  HIS118      0.0759
     42  CG        -0.3410    2.4270   -2.3580 C.ar  118  HIS118      0.0818
     43  ND1       -0.0360    1.3260   -3.1300 N.ar  118  HIS118     -0.2268
     44  CD2       -0.6300    1.9490   -1.1210 C.ar  118  HIS118      0.1154
     45  CE1       -0.1460    0.2340   -2.3940 C.ar  118  HIS118      0.1986
     46  NE2       -0.4960    0.5860   -1.1700 N.ar  118  HIS118     -0.2212
     47  N         -3.1150    5.1530   -2.9830 N.am  119  ASP119     -0.1974
     48  CA        -4.4800    5.1900   -2.4720 C.3   119  ASP119      0.1709
     49  C         -5.5070    5.5370   -3.5350 C.2   119  ASP119      0.2293
     50  O         -6.6870    5.2160   -3.3420 O.2   119  ASP119     -0.2864
     51  CB        -4.6030    6.1720   -1.2980 C.3   119  ASP119      0.1436
     52  CG        -3.9930    5.6220   -0.0120 C.2   119  ASP119      0.3671
     53  OD1       -3.8320    4.3880    0.0770 O.co2 119  ASP119     -0.2456
     54  OD2       -3.6590    6.4150    0.9000 O.co2 119  ASP119     -0.2456
     55  N         -5.2420    4.3150   -6.7240 N.3   121  PHE121     -0.1227
     56  CA        -5.4440    2.9920   -7.3140 C.3   121  PHE121      0.1736
     57  C         -6.5360    2.2220   -6.5620 C.2   121  PHE121      0.2595
     58  O         -7.4420    1.6500   -7.1740 O.2   121  PHE121     -0.2718
     59  CB        -4.1080    2.2330   -7.3150 C.3   121  PHE121      0.0547
     60  CG        -4.1600    0.8250   -7.9030 C.ar  121  PHE121     -0.0202
     61  CD1       -5.1930    0.4190   -8.7370 C.ar  121  PHE121     -0.0042
     62  CD2       -3.1370   -0.0900   -7.6180 C.ar  121  PHE121     -0.0042
     63  CE1       -5.2180   -0.8490   -9.2790 C.ar  121  PHE121     -0.0003
     64  CE2       -3.1540   -1.3780   -8.1520 C.ar  121  PHE121     -0.0003
     65  CZ        -4.1980   -1.7540   -8.9850 C.ar  121  PHE121     -0.0000
     66  N         -6.4700    2.2120   -5.2270 N.am  122  ARG122     -0.1980
     67  CA        -7.4840    1.5250   -4.4320 C.3   122  ARG122      0.1597
     68  C         -8.8380    2.2080   -4.5440 C.2   122  ARG122      0.2287
     69  O         -9.8630    1.5420   -4.7010 O.2   122  ARG122     -0.2864
     70  CB        -7.0360    1.4530   -2.9790 C.3   122  ARG122      0.0334
     71  CG        -8.1210    1.0890   -1.9640 C.3   122  ARG122      0.0492
     72  CD        -8.4280    2.2630   -1.0440 C.3   122  ARG122      0.2205
     73  NE        -7.7940    2.0890    0.2490 N.pl3 122  ARG122     -0.0865
     74  CZ        -7.5220    3.0710    1.1060 C.cat 122  ARG122      0.5346
     75  NH1       -7.8150    4.3460    0.8200 N.pl3 122  ARG122      0.1354
     76  NH2       -6.9410    2.7640    2.2630 N.pl3 122  ARG122      0.1354
     77  N        -10.8270   -0.3660   -6.8160 N.3   126  PHE126     -0.1241
     78  CA       -11.4590   -1.2450   -5.8440 C.3   126  PHE126      0.1605
     79  C        -12.6360   -0.6180   -5.1190 C.2   126  PHE126      0.2264
     80  O        -13.4240   -1.3500   -4.5090 O.2   126  PHE126     -0.2867
     81  CB       -10.4380   -1.7000   -4.7930 C.3   126  PHE126      0.0534
     82  CG        -9.3190   -2.5480   -5.3540 C.ar  126  PHE126     -0.0203
     83  CD1       -8.2850   -1.9780   -6.0840 C.ar  126  PHE126     -0.0042
     84  CD2       -9.2980   -3.9120   -5.1500 C.ar  126  PHE126     -0.0042
     85  CE1       -7.2540   -2.7690   -6.5860 C.ar  126  PHE126     -0.0003
     86  CE2       -8.2820   -4.6850   -5.6500 C.ar  126  PHE126     -0.0003
     87  CZ        -7.2640   -4.1190   -6.3640 C.ar  126  PHE126     -0.0000
     88  N          2.6630   -2.3730   -8.8470 N.3   165  PHE165     -0.1241
     89  CA         1.3760   -1.6910   -8.7880 C.3   165  PHE165      0.1605
     90  C          1.0350   -1.0030  -10.1110 C.2   165  PHE165      0.2264
     91  O         -0.0780   -1.1630  -10.6300 O.2   165  PHE165     -0.2867
     92  CB         1.3810   -0.7310   -7.5980 C.3   165  PHE165      0.0534
     93  CG         1.3710   -1.4470   -6.2810 C.ar  165  PHE165     -0.0203
     94  CD1        2.5550   -1.8380   -5.6920 C.ar  165  PHE165     -0.0042
     95  CD2        0.1770   -1.7870   -5.6610 C.ar  165  PHE165     -0.0042
     96  CE1        2.5440   -2.5250   -4.4960 C.ar  165  PHE165     -0.0003
     97  CE2        0.1600   -2.4710   -4.4480 C.ar  165  PHE165     -0.0003
     98  CZ         1.3350   -2.8440   -3.8710 C.ar  165  PHE165     -0.0000
     99  N         -0.0840   -3.6620  -12.6610 N.3   168  ARG168     -0.1245
    100  CA        -1.4130   -4.2300  -12.4890 C.3   168  ARG168      0.1563
    101  C         -2.4800   -3.2210  -12.8650 C.2   168  ARG168      0.2260
    102  O         -3.4740   -3.5770  -13.5000 O.2   168  ARG168     -0.2867
    103  CB        -1.6270   -4.7240  -11.0540 C.3   168  ARG168      0.0307
    104  CG        -1.0120   -6.0780  -10.7900 C.3   168  ARG168      0.0489
    105  CD        -0.6000   -6.2470   -9.3590 C.3   168  ARG168      0.2205
    106  NE        -0.1540   -7.6190   -9.0730 N.pl3 168  ARG168     -0.0865
    107  CZ         1.0970   -8.0460   -9.1790 C.cat 168  ARG168      0.5346
    108  NH1        2.0430   -7.2130   -9.5750 N.pl3 168  ARG168      0.1354
    109  NH2        1.4070   -9.3130   -8.8890 N.pl3 168  ARG168      0.1354
    110  N         -5.2090   -3.9090  -15.5270 N.3   172  TYR172     -0.1241
    111  CA        -6.6260   -3.9010  -15.1900 C.3   172  TYR172      0.1605
    112  C         -7.3900   -2.9270  -16.0650 C.2   172  TYR172      0.2264
    113  O         -8.5510   -3.1690  -16.4070 O.2   172  TYR172     -0.2867
    114  CB        -6.8290   -3.5130  -13.7250 C.3   172  TYR172      0.0534
    115  CG        -6.2150   -4.4280  -12.7110 C.ar  172  TYR172     -0.0201
    116  CD1       -5.5470   -5.5680  -13.0890 C.ar  172  TYR172     -0.0009
    117  CD2       -6.3010   -4.1330  -11.3620 C.ar  172  TYR172     -0.0009
    118  CE1       -4.9790   -6.4070  -12.1480 C.ar  172  TYR172      0.0417
    119  CE2       -5.7420   -4.9560  -10.4160 C.ar  172  TYR172      0.0417
    120  CZ        -5.0790   -6.0970  -10.8080 C.ar  172  TYR172      0.1957
    121  OH        -4.5260   -6.9290   -9.8570 O.3   172  TYR172     -0.2866
    122  N        -10.5410  -11.5760   -7.9540 N.3   230  ILE230     -0.1245
    123  CA       -10.5500  -10.6410   -6.8320 C.3   230  ILE230      0.1561
    124  C        -11.9430  -10.0200   -6.7660 C.2   230  ILE230      0.2260
    125  O        -12.2640   -9.1680   -7.6110 O.2   230  ILE230     -0.2867
    126  CB        -9.4750   -9.5610   -6.9860 C.3   230  ILE230      0.0252
    127  CG1       -8.0850  -10.1690   -6.8610 C.3   230  ILE230      0.0019
    128  CG2       -9.6540   -8.4940   -5.9290 C.3   230  ILE230      0.0019
    129  CD1       -6.9620   -9.1820   -7.2440 C.3   230  ILE230      0.0001
@<TRIPOS>BOND
     1   113   112    2
     2   112   111    1
     3   110   111    1
     4   111   114    1
     5   114   115    1
     6   102   101    2
     7   116   115   ar
     8   116   118   ar
     9   101   100    1
    10   115   117   ar
    11    99   100    1
    12   100   103    1
    13   118   120   ar
    14   117   119   ar
    15   103   104    1
    16   120   119   ar
    17   120   121    1
    18   104   105    1
    19    91    90    2
    20     9    11   ar
    21     9     7   ar
    22    90    89    1
    23    11    10   ar
    24     7     6   ar
    25   108   107    1
    26   105   106    1
    27    63    65   ar
    28    63    61   ar
    29   107   106    2
    30   107   109    1
    31    65    64   ar
    32    88    89    1
    33    89    92    1
    34    10     8   ar
    35    61    60   ar
    36     6     8   ar
    37     6     5    1
    38    64    62   ar
    39   122   123    1
    40    60    62   ar
    41    60    59    1
    42     5     2    1
    43   125   124    2
    44    92    93    1
    45    59    56    1
    46    56    55    1
    47    56    57    1
    48     2     1    1
    49     2     3    1
    50   129   127    1
    51    58    57    2
    52   126   127    1
    53   126   123    1
    54   126   128    1
    55     4     3    2
    56   123   124    1
    57    77    78    1
    58    85    87   ar
    59    85    83   ar
    60    57    66   am
    61     3    12   am
    62    87    86   ar
    63    93    94   ar
    64    93    95   ar
    65    83    82   ar
    66    22    19    1
    67    22    23    1
    68    78    79    1
    69    78    81    1
    70    94    96   ar
    71    95    97   ar
    72    86    84   ar
    73    19    18    1
    74    19    20    1
    75    82    84   ar
    76    82    81    1
    77    66    67    1
    78    15    14    2
    79    23    24    1
    80    18    24    1
    81    18    14   am
    82    12    13    1
    83    79    80    2
    84    14    13    1
    85    21    20    2
    86    69    68    2
    87    37    38    1
    88    20    25   am
    89    68    67    1
    90    96    98   ar
    91    97    98   ar
    92    67    70    1
    93    13    16    1
    94    38    39    1
    95    38    41    1
    96    40    39    2
    97    39    47   am
    98    49    50    2
    99    49    48    1
   100    25    26    1
   101    43    45   ar
   102    43    42   ar
   103    47    48    1
   104    70    71    1
   105    41    42    1
   106    16    17    1
   107    48    51    1
   108    45    46   ar
   109    42    44   ar
   110    27    26    1
   111    27    28    2
   112    26    29    1
   113    71    72    1
   114    51    52    1
   115    46    44   ar
   116    72    73    1
   117    32    34   ar
   118    32    30   ar
   119    29    30    1
   120    34    35   ar
   121    30    31   ar
   122    35    36    1
   123    35    33   ar
   124    31    33   ar
   125    52    53   ar
   126    52    54   ar
   127    73    74    2
   128    75    74    1
   129    74    76    1
