@<TRIPOS>MOLECULE
tmp/6gieA00.pdb
 108 105 0 0 0
SMALL
GASTEIGER

@<TRIPOS>ATOM
      1  N         -9.2910  170.2120   63.6880 N.3   162  LEU162     -0.1245
      2  CA       -10.1280  170.3550   62.5470 C.3   162  LEU162      0.1561
      3  C         -9.7020  171.4770   61.6560 C.2   162  LEU162      0.2260
      4  O         -9.5550  172.6380   62.0710 O.2   162  LEU162     -0.2867
      5  CB       -11.5980  170.4770   63.0010 C.3   162  LEU162      0.0270
      6  CG       -12.6140  170.6930   61.8780 C.3   162  LEU162      0.0019
      7  CD1      -12.6910  169.5210   60.9310 C.3   162  LEU162      0.0001
      8  CD2      -14.0290  171.0250   62.3720 C.3   162  LEU162      0.0001
      9  N        -10.1510  173.5230   57.7550 N.3   164  VAL164     -0.1245
     10  CA       -10.8040  173.6590   56.5140 C.3   164  VAL164      0.1561
     11  C        -10.0130  174.6160   55.7410 C.2   164  VAL164      0.2260
     12  O         -9.5520  175.6020   56.3050 O.2   164  VAL164     -0.2867
     13  CB       -12.2710  174.1720   56.6390 C.3   164  VAL164      0.0252
     14  CG1      -12.3630  175.5130   57.3270 C.3   164  VAL164      0.0019
     15  CG2      -12.8680  174.3110   55.2460 C.3   164  VAL164      0.0019
     16  N        -11.0020  173.1030   47.6290 N.3   184  GLY184     -0.1210
     17  CA       -11.2480  173.1540   49.0350 C.3   184  GLY184      0.1956
     18  C        -10.8500  171.8600   49.6370 C.2   184  GLY184      0.2612
     19  O        -10.8840  170.8520   48.9780 O.2   184  GLY184     -0.2717
     20  N        -10.5080  171.8980   50.9040 N.am  185  HIS185     -0.1961
     21  CA        -9.8640  170.7920   51.5720 C.3   185  HIS185      0.1787
     22  C        -10.3090  170.7740   53.0080 C.2   185  HIS185      0.2621
     23  O        -10.3890  171.8120   53.6310 O.2   185  HIS185     -0.2715
     24  CB        -8.3390  170.9810   51.5780 C.3   185  HIS185      0.0785
     25  CG        -7.8010  171.2370   50.2250 C.ar  185  HIS185      0.0821
     26  ND1       -7.5980  172.5130   49.7530 N.ar  185  HIS185     -0.2267
     27  CD2       -7.6050  170.4020   49.1720 C.ar  185  HIS185      0.1154
     28  CE1       -7.1990  172.4420   48.4930 C.ar  185  HIS185      0.1986
     29  NE2       -7.2050  171.1740   48.1140 N.ar  185  HIS185     -0.2212
     30  N        -10.4210  169.5900   53.5590 N.am  186  THR186     -0.1937
     31  CA       -10.8810  169.4420   54.8920 C.3   186  THR186      0.2028
     32  C        -10.0270  168.3770   55.5230 C.2   186  THR186      0.2642
     33  O         -9.6410  167.4060   54.8220 O.2   186  THR186     -0.2714
     34  CB       -12.3550  168.9980   54.7840 C.3   186  THR186      0.1808
     35  OG1      -13.1880  169.6870   55.7090 O.3   186  THR186     -0.2208
     36  CG2      -12.5220  167.6210   54.8560 C.3   186  THR186      0.0379
     37  N         -9.7380  168.5300   56.8230 N.am  187  GLN187     -0.1963
     38  CA        -9.1080  167.4790   57.5140 C.3   187  GLN187      0.1733
     39  C         -9.4570  167.4290   58.9850 C.2   187  GLN187      0.2616
     40  O         -9.5740  168.4870   59.6380 O.2   187  GLN187     -0.2715
     41  CB        -7.5710  167.5270   57.2890 C.3   187  GLN187      0.0408
     42  CG        -6.8040  166.4260   58.0310 C.3   187  GLN187      0.0908
     43  CD        -5.3070  166.4150   57.7690 C.2   187  GLN187      0.2608
     44  OE1       -4.7150  165.3460   57.5740 O.2   187  GLN187     -0.2717
     45  NE2       -4.6760  167.5920   57.8010 N.am  187  GLN187     -0.0878
     46  N         -9.6660  166.2060   59.5060 N.am  188  TYR188     -0.1974
     47  CA       -10.0400  166.0760   60.9160 C.3   188  TYR188      0.1639
     48  C         -9.2970  164.9610   61.5950 C.2   188  TYR188      0.2290
     49  O         -9.3280  163.8330   61.1250 O.2   188  TYR188     -0.2864
     50  CB       -11.5600  165.8330   61.1130 C.3   188  TYR188      0.0560
     51  CG       -11.9620  165.6380   62.6010 C.ar  188  TYR188     -0.0198
     52  CD1      -11.8070  166.6640   63.5260 C.ar  188  TYR188     -0.0009
     53  CD2      -12.4550  164.4450   63.0630 C.ar  188  TYR188     -0.0009
     54  CE1      -12.1240  166.4990   64.8750 C.ar  188  TYR188      0.0417
     55  CE2      -12.8070  164.2570   64.4010 C.ar  188  TYR188      0.0417
     56  CZ       -12.6400  165.2870   65.3130 C.ar  188  TYR188      0.1957
     57  OH       -12.9800  165.1310   66.6470 O.3   188  TYR188     -0.2866
     58  N         -8.5960  161.8690   58.9500 N.3   196  VAL196     -0.1231
     59  CA        -9.1320  161.6540   57.6210 C.3   196  VAL196      0.1696
     60  C         -9.4630  162.9840   57.0250 C.2   196  VAL196      0.2632
     61  O         -9.5910  164.0090   57.7460 O.2   196  VAL196     -0.2714
     62  CB       -10.3830  160.8230   57.6910 C.3   196  VAL196      0.0266
     63  CG1      -10.0240  159.4210   58.2120 C.3   196  VAL196      0.0020
     64  CG2      -11.4190  161.4800   58.6050 C.3   196  VAL196      0.0020
     65  N         -9.6200  162.9670   55.6990 N.am  197  GLY197     -0.1718
     66  CA        -9.7880  164.1650   54.9620 C.2   197  GLY197      0.1480
     67  C        -10.3490  164.0250   53.5920 C.2   197  GLY197      0.2820
     68  O        -10.4500  162.9370   53.0320 O.2   197  GLY197     -0.2669
     69  N        -10.6690  165.1990   53.0360 N.am  198  ALA198     -0.1929
     70  CA       -11.3590  165.2790   51.7900 C.3   198  ALA198      0.1731
     71  C        -10.8740  166.4310   50.9660 C.2   198  ALA198      0.2616
     72  O        -10.5390  167.4910   51.5140 O.2   198  ALA198     -0.2715
     73  CB       -12.8990  165.3830   52.0580 C.3   198  ALA198      0.0334
     74  N        -10.9120  166.2720   49.6460 N.am  199  ASP199     -0.1957
     75  CA       -10.4210  167.3470   48.7480 C.3   199  ASP199      0.1840
     76  C        -11.3340  167.4440   47.5420 C.2   199  ASP199      0.2622
     77  O        -11.7610  166.4140   46.9620 O.2   199  ASP199     -0.2715
     78  CB        -8.9830  167.0550   48.2390 C.3   199  ASP199      0.1450
     79  CG        -8.0140  166.7030   49.3500 C.2   199  ASP199      0.3671
     80  OD1       -7.7030  167.6010   50.1870 O.co2 199  ASP199     -0.2456
     81  OD2       -7.5870  165.5080   49.4130 O.co2 199  ASP199     -0.2456
     82  N        -11.6480  168.6700   47.1520 N.am  200  PHE200     -0.1974
     83  CA       -12.4270  168.8880   45.9700 C.3   200  PHE200      0.1639
     84  C        -11.6790  169.9280   45.1630 C.2   200  PHE200      0.2290
     85  O        -11.4420  171.0360   45.6630 O.2   200  PHE200     -0.2864
     86  CB       -13.8370  169.3770   46.3270 C.3   200  PHE200      0.0560
     87  CG       -14.6280  169.8330   45.1320 C.ar  200  PHE200     -0.0200
     88  CD1      -14.6390  169.0840   43.9640 C.ar  200  PHE200     -0.0042
     89  CD2      -15.4140  170.9380   45.1830 C.ar  200  PHE200     -0.0042
     90  CE1      -15.3600  169.4650   42.8470 C.ar  200  PHE200     -0.0003
     91  CE2      -16.1850  171.3220   44.0640 C.ar  200  PHE200     -0.0003
     92  CZ       -16.1270  170.5950   42.8860 C.ar  200  PHE200     -0.0000
     93  N        -12.4330  164.7740   43.0400 N.3   210  ILE210     -0.1245
     94  CA       -12.8940  164.5020   44.3780 C.3   210  ILE210      0.1561
     95  C        -11.8740  163.5280   44.9970 C.2   210  ILE210      0.2260
     96  O        -11.3610  162.6400   44.3370 O.2   210  ILE210     -0.2867
     97  CB       -14.3680  164.0410   44.3570 C.3   210  ILE210      0.0252
     98  CG1      -14.8090  163.5460   45.7250 C.3   210  ILE210      0.0019
     99  CG2      -14.5940  162.9170   43.3500 C.3   210  ILE210      0.0019
    100  CD1      -14.9190  164.6380   46.7440 C.3   210  ILE210      0.0001
    101  N        -10.3930  161.6190   48.9090 N.3   212  LEU212     -0.1245
    102  CA       -10.3850  161.2980   50.2890 C.3   212  LEU212      0.1561
    103  C         -8.9860  160.8490   50.6880 C.2   212  LEU212      0.2260
    104  O         -8.2990  160.1690   49.9330 O.2   212  LEU212     -0.2867
    105  CB       -11.3190  160.1230   50.5470 C.3   212  LEU212      0.0270
    106  CG       -12.8220  160.3780   50.3400 C.3   212  LEU212      0.0019
    107  CD1      -13.6060  159.1730   50.8450 C.3   212  LEU212      0.0001
    108  CD2      -13.3330  161.6040   51.0340 C.3   212  LEU212      0.0001
@<TRIPOS>BOND
     1    90    92   ar
     2    90    88   ar
     3    92    91   ar
     4    93    94    1
     5    99    97    1
     6    88    87   ar
     7    91    89   ar
     8    96    95    2
     9    97    94    1
    10    97    98    1
    11    94    95    1
    12    87    89   ar
    13    87    86    1
    14    84    85    2
    15    84    83    1
    16    98   100    1
    17    83    86    1
    18    83    82    1
    19    77    76    2
    20    82    76   am
    21    76    75    1
    22    16    17    1
    23    29    28   ar
    24    29    27   ar
    25    78    75    1
    26    78    79    1
    27    28    26   ar
    28    75    74    1
    29   101   102    1
    30    19    18    2
    31    17    18    1
    32    27    25   ar
    33    79    81   ar
    34    79    80   ar
    35    18    20   am
    36    74    71   am
    37    26    25   ar
    38   104   103    2
    39    25    24    1
    40   102   105    1
    41   102   103    1
    42   106   105    1
    43   106   107    1
    44   106   108    1
    45    20    21    1
    46    71    72    2
    47    71    70    1
    48    21    24    1
    49    21    22    1
    50    70    73    1
    51    70    69    1
    52    22    30   am
    53    22    23    2
    54    68    67    2
    55    69    67   am
    56    30    31    1
    57    67    66    1
    58    34    36    1
    59    34    31    1
    60    34    35    1
    61    33    32    2
    62    31    32    1
    63    66    65    2
    64    15    13    1
    65    32    37   am
    66    65    60    1
    67    11    12    2
    68    11    10    1
    69    10    13    1
    70    10     9    1
    71    13    14    1
    72    37    38    1
    73    60    59    1
    74    60    61    2
    75    41    38    1
    76    41    42    1
    77    38    39    1
    78    44    43    2
    79    59    62    1
    80    59    58    1
    81    62    63    1
    82    62    64    1
    83    43    45   am
    84    43    42    1
    85    39    46   am
    86    39    40    2
    87    46    47    1
    88    47    50    1
    89    47    48    1
    90     7     6    1
    91    50    51    1
    92    49    48    2
    93     3     4    2
    94     3     2    1
    95     6     8    1
    96     6     5    1
    97     2     5    1
    98     2     1    1
    99    51    53   ar
   100    51    52   ar
   101    53    55   ar
   102    52    54   ar
   103    55    56   ar
   104    54    56   ar
   105    56    57    1
