@<TRIPOS>MOLECULE
tmp/6gihA00.pdb
 119 112 0 0 0
SMALL
GASTEIGER

@<TRIPOS>ATOM
      1  N       -136.2100 -191.6440  312.2740 N.3    34  GLN34      -0.1231
      2  CA      -135.8110 -190.4540  311.5080 C.3    34  GLN34       0.1698
      3  C       -136.6010 -189.1840  311.8920 C.2    34  GLN34       0.2592
      4  O       -136.0540 -188.0740  311.7990 O.2    34  GLN34      -0.2718
      5  CB      -135.8600 -190.7320  309.9820 C.3    34  GLN34       0.0381
      6  CG      -137.2680 -190.9680  309.3690 C.3    34  GLN34       0.0905
      7  CD      -137.9660 -192.2750  309.7080 C.2    34  GLN34       0.2608
      8  OE1     -137.3700 -193.2480  310.1900 O.2    34  GLN34      -0.2717
      9  NE2     -139.2670 -192.3340  309.4370 N.am   34  GLN34      -0.0878
     10  N       -137.8740 -189.3340  312.3500 N.am   35  ASP35      -0.1974
     11  CA      -138.7080 -188.1910  312.7700 C.3    35  ASP35       0.1709
     12  C       -138.1840 -187.5010  314.0380 C.2    35  ASP35       0.2293
     13  O       -138.6040 -186.3800  314.3320 O.2    35  ASP35      -0.2864
     14  CB      -140.1920 -188.5800  312.9350 C.3    35  ASP35       0.1436
     15  CG      -141.1160 -187.3770  312.9980 C.2    35  ASP35       0.3671
     16  OD1     -141.4010 -186.8000  311.9360 O.co2  35  ASP35      -0.2456
     17  OD2     -141.5270 -186.9960  314.1210 O.co2  35  ASP35      -0.2456
     18  N       -135.3880 -186.2110  314.3180 N.3    37  TYR37      -0.1227
     19  CA      -134.4620 -185.1870  313.8170 C.3    37  TYR37       0.1736
     20  C       -135.0160 -184.2970  312.7350 C.2    37  TYR37       0.2595
     21  O       -135.7760 -184.7600  311.8850 O.2    37  TYR37      -0.2718
     22  CB      -133.1830 -185.8760  313.2710 C.3    37  TYR37       0.0548
     23  CG      -132.6150 -186.9190  314.2060 C.ar   37  TYR37      -0.0200
     24  CD1     -131.7720 -186.5580  315.2550 C.ar   37  TYR37      -0.0009
     25  CD2     -132.9330 -188.2650  314.0590 C.ar   37  TYR37      -0.0009
     26  CE1     -131.2940 -187.5060  316.1560 C.ar   37  TYR37       0.0417
     27  CE2     -132.4260 -189.2270  314.9300 C.ar   37  TYR37       0.0417
     28  CZ      -131.5980 -188.8400  315.9700 C.ar   37  TYR37       0.1957
     29  OH      -131.0990 -189.7740  316.8410 O.3    37  TYR37      -0.2866
     30  N       -134.5530 -183.0440  312.7250 N.am   38  GLN38      -0.1965
     31  CA      -134.8660 -182.0340  311.7280 C.3    38  GLN38       0.1733
     32  C       -133.5350 -181.5930  311.1390 C.2    38  GLN38       0.2616
     33  O       -132.6700 -181.1280  311.8770 O.2    38  GLN38      -0.2715
     34  CB      -135.5510 -180.8100  312.3750 C.3    38  GLN38       0.0408
     35  CG      -137.0610 -180.7310  312.1790 C.3    38  GLN38       0.0908
     36  CD      -137.6710 -179.4770  312.8010 C.2    38  GLN38       0.2608
     37  OE1     -137.0640 -178.3890  312.8200 O.2    38  GLN38      -0.2717
     38  NE2     -138.8980 -179.5960  313.3110 N.am   38  GLN38      -0.0878
     39  N       -133.3720 -181.7320  309.8190 N.am   39  LEU39      -0.1977
     40  CA      -132.1780 -181.3000  309.1010 C.3    39  LEU39       0.1596
     41  C       -132.1950 -179.7660  309.0190 C.2    39  LEU39       0.2287
     42  O       -133.2300 -179.1930  308.6820 O.2    39  LEU39      -0.2864
     43  CB      -132.1790 -181.9030  307.6790 C.3    39  LEU39       0.0297
     44  CG      -132.1680 -183.4280  307.5650 C.3    39  LEU39       0.0022
     45  CD1     -132.1620 -183.8580  306.1040 C.3    39  LEU39       0.0001
     46  CD2     -130.9610 -184.0330  308.2950 C.3    39  LEU39       0.0001
     47  N       -125.0410 -183.2040  306.8690 N.3    52  PHE52      -0.1241
     48  CA      -125.9420 -182.1470  307.2860 C.3    52  PHE52       0.1605
     49  C       -125.8760 -181.8720  308.7790 C.2    52  PHE52       0.2264
     50  O       -125.7120 -182.7910  309.5950 O.2    52  PHE52      -0.2867
     51  CB      -127.3940 -182.5440  306.9510 C.3    52  PHE52       0.0534
     52  CG      -127.7010 -182.7770  305.4980 C.ar   52  PHE52      -0.0203
     53  CD1     -127.3920 -183.9870  304.8920 C.ar   52  PHE52      -0.0042
     54  CD2     -128.3740 -181.8200  304.7520 C.ar   52  PHE52      -0.0042
     55  CE1     -127.6810 -184.2030  303.5480 C.ar   52  PHE52      -0.0003
     56  CE2     -128.6750 -182.0450  303.4110 C.ar   52  PHE52      -0.0003
     57  CZ      -128.3250 -183.2310  302.8170 C.ar   52  PHE52      -0.0000
     58  N       -125.5600 -185.3550  310.5980 N.3    65  VAL65      -0.1245
     59  CA      -126.1920 -186.4530  309.8630 C.3    65  VAL65       0.1561
     60  C       -125.4580 -186.7020  308.5540 C.2    65  VAL65       0.2260
     61  O       -125.2940 -185.7770  307.7640 O.2    65  VAL65      -0.2867
     62  CB      -127.7060 -186.1860  309.6290 C.3    65  VAL65       0.0252
     63  CG1     -128.3360 -187.2660  308.7320 C.3    65  VAL65       0.0019
     64  CG2     -128.4500 -186.0790  310.9560 C.3    65  VAL65       0.0019
     65  N       -125.8290 -188.7680  305.1620 N.3    67  ILE67      -0.1245
     66  CA      -126.7600 -189.4820  304.2910 C.3    67  ILE67       0.1561
     67  C       -125.9170 -190.1660  303.2530 C.2    67  ILE67       0.2260
     68  O       -125.1770 -189.5010  302.5270 O.2    67  ILE67      -0.2867
     69  CB      -127.8370 -188.5300  303.6790 C.3    67  ILE67       0.0252
     70  CG1     -128.7500 -187.9850  304.8120 C.3    67  ILE67       0.0019
     71  CG2     -128.6760 -189.2810  302.6200 C.3    67  ILE67       0.0019
     72  CD1     -129.6340 -186.8440  304.4920 C.3    67  ILE67       0.0001
     73  N       -130.5860 -194.3330  310.9390 N.3    99  VAL99      -0.1245
     74  CA      -131.9740 -194.1220  310.4700 C.3    99  VAL99       0.1561
     75  C       -132.1180 -194.3580  308.9690 C.2    99  VAL99       0.2260
     76  O       -131.1380 -194.2880  308.2260 O.2    99  VAL99      -0.2867
     77  CB      -132.5710 -192.7330  310.8880 C.3    99  VAL99       0.0252
     78  CG1     -132.4760 -192.4900  312.3870 C.3    99  VAL99       0.0019
     79  CG2     -131.9240 -191.5890  310.1170 C.3    99  VAL99       0.0019
     80  N       -134.6530 -193.1940  305.6160 N.3   101  ASP101     -0.1239
     81  CA      -135.6780 -192.2880  305.1230 C.3   101  ASP101      0.1674
     82  C       -136.6590 -193.0630  304.2210 C.2   101  ASP101      0.2266
     83  O       -136.2330 -193.5630  303.1720 O.2   101  ASP101     -0.2867
     84  CB      -135.0310 -191.1390  304.3540 C.3   101  ASP101      0.1410
     85  CG      -135.9810 -190.1790  303.6680 C.2   101  ASP101      0.3668
     86  OD1     -137.0190 -189.8350  304.2720 O.co2 101  ASP101     -0.2456
     87  OD2     -135.6350 -189.6890  302.5820 O.co2 101  ASP101     -0.2456
     88  N       -136.8260 -191.1290  300.3580 N.3   104  SER104     -0.1217
     89  CA      -135.7370 -191.4160  299.4120 C.3   104  SER104      0.1889
     90  C       -135.2490 -192.8600  299.4370 C.2   104  SER104      0.2288
     91  O       -134.4540 -193.2280  298.5720 O.2   104  SER104     -0.2866
     92  CB      -134.5530 -190.4910  299.6750 C.3   104  SER104      0.2089
     93  OG      -133.9250 -190.8230  300.9060 O.3   104  SER104     -0.2183
     94  N       -133.1140 -194.1510  301.4980 N.3   106  THR106     -0.1204
     95  CA      -131.6700 -194.1640  301.7370 C.3   106  THR106      0.1979
     96  C       -131.3870 -194.1660  303.2400 C.2   106  THR106      0.2460
     97  O       -132.1890 -193.6280  304.0150 O.2   106  THR106     -0.2732
     98  CB      -130.9100 -193.0320  300.9590 C.3   106  THR106      0.1783
     99  OG1     -131.3290 -191.7520  301.3910 O.3   106  THR106     -0.2211
    100  CG2     -131.0550 -193.1330  299.4260 C.3   106  THR106      0.0376
    101  N       -130.2570 -194.7710  303.6800 N.am  107  PRO107     -0.2717
    102  CA      -129.9370 -194.7570  305.1120 C.3   107  PRO107      0.1535
    103  C       -129.0620 -193.5660  305.5060 C.2   107  PRO107      0.2598
    104  O       -128.4250 -192.9480  304.6560 O.2   107  PRO107     -0.2715
    105  CB      -129.1750 -196.0670  305.2950 C.3   107  PRO107      0.0310
    106  CG      -128.4770 -196.3050  303.9800 C.3   107  PRO107      0.0237
    107  CD      -129.2160 -195.5010  302.9090 C.3   107  PRO107      0.0939
    108  N       -129.0050 -193.2620  306.8070 N.am  108  ALA108     -0.1978
    109  CA      -128.1550 -192.2100  307.3230 C.3   108  ALA108      0.1597
    110  C       -127.6000 -192.5760  308.6770 C.2   108  ALA108      0.2287
    111  O       -128.2570 -193.2740  309.4450 O.2   108  ALA108     -0.2864
    112  CB      -128.9040 -190.8800  307.3890 C.3   108  ALA108      0.0319
    113  N       -126.2590 -190.9600  312.2150 N.3   110  VAL110     -0.1245
    114  CA      -126.3860 -189.7650  313.0600 C.3   110  VAL110      0.1561
    115  C       -125.2540 -189.7660  314.0750 C.2   110  VAL110      0.2260
    116  O       -125.0800 -190.7530  314.7890 O.2   110  VAL110     -0.2867
    117  CB      -127.7740 -189.7590  313.7520 C.3   110  VAL110      0.0252
    118  CG1     -127.9740 -188.5050  314.6060 C.3   110  VAL110      0.0019
    119  CG2     -128.9080 -189.9340  312.7300 C.3   110  VAL110      0.0019
@<TRIPOS>BOND
     1    91    90    2
     2    89    90    1
     3    89    92    1
     4    89    88    1
     5   100    98    1
     6    92    93    1
     7    98    99    1
     8    98    95    1
     9    94    95    1
    10    95    96    1
    11    68    67    2
    12    87    85   ar
    13    71    69    1
    14    57    56   ar
    15    57    55   ar
    16   107   101    1
    17   107   106    1
    18    83    82    2
    19    96   101   am
    20    96    97    2
    21    67    66    1
    22    56    54   ar
    23    55    53   ar
    24    85    86   ar
    25    85    84    1
    26    69    66    1
    27    69    70    1
    28   101   102    1
    29   106   105    1
    30    82    81    1
    31    66    65    1
    32    84    81    1
    33    72    70    1
    34   104   103    2
    35    54    52   ar
    36    53    52   ar
    37   102   105    1
    38   102   103    1
    39    81    80    1
    40    52    51    1
    41   103   108   am
    42    45    44    1
    43   108   109    1
    44    47    48    1
    45    51    48    1
    46    48    49    1
    47   109   112    1
    48   109   110    1
    49    44    43    1
    50    44    46    1
    51    43    40    1
    52    61    60    2
    53    76    75    2
    54    60    59    1
    55   110   111    2
    56    42    41    2
    57    63    62    1
    58    49    50    2
    59    75    74    1
    60    41    40    1
    61    40    39    1
    62     6     7    1
    63     6     5    1
    64     9     7   am
    65    62    59    1
    66    62    64    1
    67     7     8    2
    68    39    32   am
    69    59    58    1
    70     5     2    1
    71    79    77    1
    72    74    77    1
    73    74    73    1
    74    77    78    1
    75    32    31    1
    76    32    33    2
    77     2     3    1
    78     2     1    1
    79    31    34    1
    80    31    30    1
    81     4     3    2
    82    21    20    2
    83     3    10   am
    84    16    15   ar
    85    35    34    1
    86    35    36    1
    87   113   114    1
    88    10    11    1
    89    30    20   am
    90   119   117    1
    91    20    19    1
    92    11    14    1
    93    11    12    1
    94    36    37    2
    95    36    38   am
    96    14    15    1
    97    15    17   ar
    98   114   117    1
    99   114   115    1
   100    22    19    1
   101    22    23    1
   102   117   118    1
   103    19    18    1
   104    12    13    2
   105    25    23   ar
   106    25    27   ar
   107   115   116    2
   108    23    24   ar
   109    27    28   ar
   110    24    26   ar
   111    28    26   ar
   112    28    29    1
