@<TRIPOS>MOLECULE
tmp/6ginB00.pdb
 181 172 0 0 0
SMALL
GASTEIGER

@<TRIPOS>ATOM
      1  N        -13.9990  202.3180  193.4930 N.3    11  VAL11      -0.1231
      2  CA       -15.1470  202.1440  194.3850 C.3    11  VAL11       0.1692
      3  C        -15.7430  200.7510  194.3070 C.2    11  VAL11       0.2592
      4  O        -16.6930  200.4360  195.0470 O.2    11  VAL11      -0.2718
      5  CB       -16.2050  203.2020  194.0800 C.3    11  VAL11       0.0266
      6  CG1      -15.6150  204.6020  194.3850 C.3    11  VAL11       0.0020
      7  CG2      -16.6390  203.0860  192.5870 C.3    11  VAL11       0.0020
      8  N        -15.2110  199.8940  193.4380 N.am   12  GLY12      -0.1957
      9  CA       -15.6800  198.5190  193.4700 C.3    12  GLY12       0.1869
     10  C        -14.8300  197.6470  192.5790 C.2    12  GLY12       0.2309
     11  O        -14.2500  198.1420  191.6110 O.2    12  GLY12      -0.2863
     12  N        -16.2410  191.0120  187.4170 N.3    16  TYR16      -0.1241
     13  CA       -16.5680  191.8120  186.2410 C.3    16  TYR16       0.1605
     14  C        -15.5030  192.8310  185.8410 C.2    16  TYR16       0.2264
     15  O        -15.6420  193.4540  184.7790 O.2    16  TYR16      -0.2867
     16  CB       -17.8660  192.5850  186.4950 C.3    16  TYR16       0.0534
     17  CG       -17.7190  193.5840  187.6460 C.ar   16  TYR16      -0.0201
     18  CD1      -18.0000  193.2160  188.9710 C.ar   16  TYR16      -0.0009
     19  CD2      -17.2570  194.8790  187.4110 C.ar   16  TYR16      -0.0009
     20  CE1      -17.8550  194.1340  190.0180 C.ar   16  TYR16       0.0417
     21  CE2      -17.1200  195.7870  188.4360 C.ar   16  TYR16       0.0417
     22  CZ       -17.4120  195.4190  189.7340 C.ar   16  TYR16       0.1957
     23  OH       -17.2510  196.3430  190.7450 O.3    16  TYR16      -0.2866
     24  N        -14.6640  199.3810  189.0760 N.3    19  VAL19      -0.1245
     25  CA       -15.2500  200.6820  188.7780 C.3    19  VAL19       0.1561
     26  C        -14.4720  201.7280  189.5420 C.2    19  VAL19       0.2260
     27  O        -14.1070  201.5020  190.6990 O.2    19  VAL19      -0.2867
     28  CB       -16.7380  200.7530  189.1550 C.3    19  VAL19       0.0252
     29  CG1      -17.2190  202.1520  188.8980 C.3    19  VAL19       0.0019
     30  CG2      -17.5340  199.6710  188.3870 C.3    19  VAL19       0.0019
     31  N        -17.9970  207.8200  186.2500 N.3    30  ALA30      -0.1245
     32  CA       -17.6990  206.4400  186.6160 C.3    30  ALA30       0.1562
     33  C        -16.9860  205.8090  185.4370 C.2    30  ALA30       0.2260
     34  O        -17.3620  206.0520  184.2680 O.2    30  ALA30      -0.2867
     35  CB       -18.9600  205.6480  186.9860 C.3    30  ALA30       0.0290
     36  N        -15.9710  202.0930  184.2960 N.3    32  LYS32      -0.1245
     37  CA       -15.9220  200.6470  184.4270 C.3    32  LYS32       0.1561
     38  C        -14.8270  200.1140  183.5070 C.2    32  LYS32       0.2260
     39  O        -14.8730  200.3380  182.2980 O.2    32  LYS32      -0.2867
     40  CB       -17.2640  200.0010  184.0950 C.3    32  LYS32       0.0271
     41  CG       -17.2300  198.5010  184.3550 C.3    32  LYS32       0.0035
     42  CD       -18.5410  197.8380  184.0930 C.3    32  LYS32       0.0206
     43  CE       -18.3990  196.3380  184.2920 C.3    32  LYS32       0.1093
     44  NZ       -19.6340  195.6460  183.9350 N.3    32  LYS32      -0.1314
     45  N        -22.3400  196.1520  175.0530 N.3    45  GLU45      -0.1245
     46  CA       -22.8150  197.4260  175.5170 C.3    45  GLU45       0.1567
     47  C        -22.3100  198.5570  174.6140 C.2    45  GLU45       0.2260
     48  O        -23.0320  199.5270  174.3810 O.2    45  GLU45      -0.2867
     49  CB       -22.4230  197.5010  177.0010 C.3    45  GLU45       0.0388
     50  CG       -23.1350  198.4840  177.8560 C.3    45  GLU45       0.1160
     51  CD       -22.9760  198.1070  179.3390 C.2    45  GLU45       0.3649
     52  OE1      -22.2410  197.1380  179.6540 O.co2  45  GLU45      -0.2457
     53  OE2      -23.6450  198.7190  180.1760 O.co2  45  GLU45      -0.2457
     54  N        -28.9250  204.4060  183.1110 N.3    60  LEU60      -0.1245
     55  CA       -27.6050  205.0140  183.3120 C.3    60  LEU60       0.1561
     56  C        -27.1110  205.6620  182.0300 C.2    60  LEU60       0.2260
     57  O        -27.0230  204.9990  180.9970 O.2    60  LEU60      -0.2867
     58  CB       -26.6040  203.9600  183.7700 C.3    60  LEU60       0.0270
     59  CG       -25.1570  204.4650  183.9460 C.3    60  LEU60       0.0019
     60  CD1      -25.0320  205.5290  185.0710 C.3    60  LEU60       0.0001
     61  CD2      -24.2370  203.2640  184.2120 C.3    60  LEU60       0.0001
     62  N        -15.7970  201.7010  179.8760 N.3    78  LEU78      -0.1245
     63  CA       -17.1090  202.2980  179.7000 C.3    78  LEU78       0.1561
     64  C        -17.2030  203.4430  180.7000 C.2    78  LEU78       0.2260
     65  O        -16.9990  203.2350  181.8980 O.2    78  LEU78      -0.2867
     66  CB       -18.1910  201.2460  179.9210 C.3    78  LEU78       0.0270
     67  CG       -19.6400  201.6230  179.6730 C.3    78  LEU78       0.0019
     68  CD1      -19.8010  202.0040  178.2270 C.3    78  LEU78       0.0001
     69  CD2      -20.5040  200.4370  179.9720 C.3    78  LEU78       0.0001
     70  N        -19.3700  206.5500  182.3060 N.3    80  THR80      -0.1203
     71  CA       -20.7720  206.9270  182.4950 C.3    80  THR80       0.1994
     72  C        -20.8530  208.0620  183.5030 C.2    80  THR80       0.2618
     73  O        -19.8530  208.4960  184.0810 O.2    80  THR80      -0.2717
     74  CB       -21.6480  205.7690  183.0100 C.3    80  THR80       0.1784
     75  OG1      -21.2900  205.4460  184.3710 O.3    80  THR80      -0.2211
     76  CG2      -21.4830  204.4910  182.1080 C.3    80  THR80       0.0376
     77  N        -22.0740  208.5330  183.6980 N.am   81  HIS81      -0.1961
     78  CA       -22.3650  209.4050  184.8140 C.3    81  HIS81       0.1787
     79  C        -22.0520  208.6910  186.1190 C.2    81  HIS81       0.2620
     80  O        -22.1490  207.4640  186.2220 O.2    81  HIS81      -0.2715
     81  CB       -23.8230  209.8320  184.7400 C.3    81  HIS81       0.0785
     82  CG       -24.1020  210.7210  183.5650 C.ar   81  HIS81       0.0821
     83  ND1      -25.3710  210.9310  183.0620 N.ar   81  HIS81      -0.2267
     84  CD2      -23.2690  211.4830  182.8180 C.ar   81  HIS81       0.1154
     85  CE1      -25.3010  211.7640  182.0390 C.ar   81  HIS81       0.1986
     86  NE2      -24.0400  212.1220  181.8790 N.ar   81  HIS81      -0.2212
     87  N        -21.6680  209.4820  187.1090 N.am   82  TYR82      -0.1960
     88  CA       -21.2840  209.0130  188.4320 C.3    82  TYR82       0.1771
     89  C        -22.3630  209.3370  189.4600 C.2    82  TYR82       0.2620
     90  O        -22.8920  210.4580  189.4720 O.2    82  TYR82      -0.2715
     91  CB       -19.9700  209.6850  188.8500 C.3    82  TYR82       0.0574
     92  CG       -19.4440  209.1370  190.1550 C.ar   82  TYR82      -0.0198
     93  CD1      -18.8500  207.8690  190.2090 C.ar   82  TYR82      -0.0009
     94  CD2      -19.5670  209.8600  191.3360 C.ar   82  TYR82      -0.0009
     95  CE1      -18.3350  207.3670  191.4090 C.ar   82  TYR82       0.0417
     96  CE2      -19.0560  209.3740  192.5360 C.ar   82  TYR82       0.0417
     97  CZ       -18.4410  208.1190  192.5660 C.ar   82  TYR82       0.1957
     98  OH       -17.9680  207.6050  193.7710 O.3    82  TYR82      -0.2866
     99  N        -22.6610  208.3870  190.3630 N.am   83  HIS83      -0.1959
    100  CA       -23.6520  208.6250  191.4190 C.3    83  HIS83       0.1787
    101  C        -23.0680  208.3950  192.8050 C.2    83  HIS83       0.2620
    102  O        -22.8940  207.2440  193.2430 O.2    83  HIS83      -0.2715
    103  CB       -24.8840  207.7610  191.1740 C.3    83  HIS83       0.0785
    104  CG       -25.5340  208.1160  189.8720 C.ar   83  HIS83       0.0821
    105  ND1      -26.1760  209.3210  189.6850 N.ar   83  HIS83      -0.2267
    106  CD2      -25.5380  207.4940  188.6720 C.ar   83  HIS83       0.1154
    107  CE1      -26.5800  209.4130  188.4270 C.ar   83  HIS83       0.1986
    108  NE2      -26.2110  208.3130  187.7950 N.ar   83  HIS83      -0.2212
    109  N        -22.8150  209.4900  193.5170 N.am   84  GLU84      -0.1963
    110  CA       -22.1310  209.3600  194.7930 C.3    84  GLU84       0.1733
    111  C        -22.9220  208.5560  195.8190 C.2    84  GLU84       0.2616
    112  O        -22.3090  208.0020  196.7360 O.2    84  GLU84      -0.2715
    113  CB       -21.7950  210.7360  195.3310 C.3    84  GLU84       0.0429
    114  CG       -22.9620  211.5470  195.7830 C.3    84  GLU84       0.1163
    115  CD       -22.5160  212.9600  196.0830 C.2    84  GLU84       0.3649
    116  OE1      -21.3450  213.2830  195.7600 O.co2  84  GLU84      -0.2457
    117  OE2      -23.2940  213.7220  196.7010 O.co2  84  GLU84      -0.2457
    118  N        -24.2480  208.4370  195.6710 N.am   85  MET85      -0.1963
    119  CA       -25.0230  207.6070  196.5950 C.3    85  MET85       0.1736
    120  C        -24.7990  206.1130  196.3690 C.2    85  MET85       0.2617
    121  O        -25.2590  205.2970  197.1860 O.2    85  MET85      -0.2715
    122  CB       -26.5270  207.8870  196.4830 C.3    85  MET85       0.0427
    123  CG       -26.9650  209.2850  196.8430 C.3    85  MET85       0.0599
    124  SD       -26.5160  209.5890  198.5480 S.3    85  MET85      -0.1393
    125  CE       -26.9950  211.3240  198.7210 C.3    85  MET85       0.0692
    126  N        -24.1380  205.7380  195.2920 N.am   86  GLY86      -0.1940
    127  CA       -23.7530  204.3450  195.1000 C.3    86  GLY86       0.2014
    128  C        -24.8380  203.5340  194.4160 C.2    86  GLY86       0.2639
    129  O        -25.7680  204.0890  193.8230 O.2    86  GLY86      -0.2714
    130  N        -24.6860  202.1950  194.4480 N.am   87  SER87      -0.1949
    131  CA       -25.7450  201.3440  193.9200 C.3    87  SER87       0.1924
    132  C        -26.8470  201.2080  194.9630 C.2    87  SER87       0.2314
    133  O        -26.6350  201.4720  196.1370 O.2    87  SER87      -0.2863
    134  CB       -25.2410  199.9530  193.5750 C.3    87  SER87       0.2116
    135  OG       -24.8260  199.2710  194.7700 O.3    87  SER87      -0.2180
    136  N        -25.7110  199.3850  197.9430 N.3    90  ASP90      -0.1239
    137  CA       -25.0320  200.2360  198.9260 C.3    90  ASP90       0.1674
    138  C        -26.0270  201.0660  199.7310 C.2    90  ASP90       0.2266
    139  O        -25.9980  201.0910  200.9690 O.2    90  ASP90      -0.2867
    140  CB       -24.0770  201.1530  198.1750 C.3    90  ASP90       0.1410
    141  CG       -22.9430  200.3880  197.5090 C.2    90  ASP90       0.3668
    142  OD1      -22.2810  199.5310  198.1900 O.co2  90  ASP90      -0.2456
    143  OD2      -22.8440  200.5400  196.2540 O.co2  90  ASP90      -0.2456
    144  N        -27.1840  195.5710  192.7930 N.3   137  LYS137     -0.1231
    145  CA       -25.8780  196.1260  192.4360 C.3   137  LYS137      0.1693
    146  C        -25.8440  196.7850  191.0570 C.2   137  LYS137      0.2592
    147  O        -24.9310  197.5880  190.8100 O.2   137  LYS137     -0.2718
    148  CB       -24.7830  195.0570  192.4790 C.3   137  LYS137      0.0285
    149  CG       -24.3710  194.6240  193.8840 C.3   137  LYS137      0.0035
    150  CD       -23.3210  193.5240  193.7690 C.3   137  LYS137      0.0206
    151  CE       -22.8730  193.0430  195.1330 C.3   137  LYS137      0.1093
    152  NZ       -21.8040  192.0000  195.0300 N.3   137  LYS137     -0.1314
    153  N        -26.7770  196.4530  190.1520 N.am  138  ASN138     -0.1974
    154  CA       -26.8160  197.0600  188.8200 C.3   138  ASN138      0.1688
    155  C        -27.7860  198.2290  188.7220 C.2   138  ASN138      0.2292
    156  O        -28.2090  198.5750  187.6160 O.2   138  ASN138     -0.2864
    157  CB       -27.1650  196.0390  187.7290 C.3   138  ASN138      0.1181
    158  CG       -26.0440  195.0840  187.4930 C.2   138  ASN138      0.2629
    159  OD1      -24.9090  195.4400  187.7890 O.2   138  ASN138     -0.2716
    160  ND2      -26.3130  193.9230  186.8630 N.am  138  ASN138     -0.0877
    161  N        -28.2840  202.2580  190.1750 N.3   140  LEU140     -0.1245
    162  CA       -27.6220  203.3520  190.8670 C.3   140  LEU140      0.1561
    163  C        -28.6910  204.2590  191.4740 C.2   140  LEU140      0.2260
    164  O        -29.7890  204.3950  190.9190 O.2   140  LEU140     -0.2867
    165  CB       -26.7220  204.1340  189.9040 C.3   140  LEU140      0.0270
    166  CG       -25.6470  203.1810  189.3700 C.3   140  LEU140      0.0019
    167  CD1      -25.0030  203.7490  188.1980 C.3   140  LEU140      0.0001
    168  CD2      -24.5770  202.8930  190.4360 C.3   140  LEU140      0.0001
    169  N        -28.2690  200.1470  185.1560 N.3   150  ALA150     -0.1231
    170  CA       -26.9720  199.9860  184.5110 C.3   150  ALA150      0.1694
    171  C        -26.8030  198.5460  184.0220 C.2   150  ALA150      0.2592
    172  O        -27.5580  197.6400  184.4000 O.2   150  ALA150     -0.2718
    173  CB       -25.8140  200.3380  185.4830 C.3   150  ALA150      0.0304
    174  N        -25.7460  198.3520  183.2260 N.am  151  ASP151     -0.1974
    175  CA       -25.1730  197.0680  182.8110 C.3   151  ASP151      0.1709
    176  C        -26.0000  196.3790  181.7290 C.2   151  ASP151      0.2293
    177  O        -26.8010  195.4790  182.0230 O.2   151  ASP151     -0.2864
    178  CB       -24.9840  196.1070  184.0040 C.3   151  ASP151      0.1436
    179  CG       -24.1660  194.8740  183.6110 C.2   151  ASP151      0.3671
    180  OD1      -23.8270  194.7830  182.4050 O.co2 151  ASP151     -0.2456
    181  OD2      -23.8370  194.0300  184.4680 O.co2 151  ASP151     -0.2456
@<TRIPOS>BOND
     1    48    47    2
     2    47    46    1
     3    45    46    1
     4    46    49    1
     5    49    50    1
     6    50    51    1
     7    68    67    1
     8    51    52   ar
     9    51    53   ar
    10    67    66    1
    11    67    69    1
    12    63    62    1
    13    63    66    1
    14    63    64    1
    15    64    65    2
    16    57    56    2
    17   176   177    2
    18   176   175    1
    19    86    85   ar
    20    86    84   ar
    21    56    55    1
    22    85    83   ar
    23    76    74    1
    24    39    38    2
    25    70    71    1
    26   180   179   ar
    27    71    74    1
    28    71    72    1
    29   175   174    1
    30   175   178    1
    31    84    82   ar
    32    74    75    1
    33    83    82   ar
    34    54    55    1
    35   174   171   am
    36    55    58    1
    37    72    77   am
    38    72    73    2
    39    38    37    1
    40    82    81    1
    41   179   178    1
    42   179   181   ar
    43    77    78    1
    44    58    59    1
    45    44    43    1
    46    59    61    1
    47    59    60    1
    48   171   172    2
    49   171   170    1
    50    42    43    1
    51    42    41    1
    52    40    41    1
    53    40    37    1
    54    34    33    2
    55    36    37    1
    56   170   169    1
    57   170   173    1
    58    81    78    1
    59    15    14    2
    60    78    79    1
    61    33    32    1
    62    14    13    1
    63    79    80    2
    64    79    87   am
    65    13    16    1
    66    13    12    1
    67    31    32    1
    68    16    17    1
    69    32    35    1
    70   160   158   am
    71    87    88    1
    72    19    17   ar
    73    19    21   ar
    74   158   157    1
    75   158   159    2
    76   156   155    2
    77    17    18   ar
    78   157   154    1
    79   108   107   ar
    80   108   106   ar
    81   167   166    1
    82    30    28    1
    83   107   105   ar
    84    88    91    1
    85    88    89    1
    86    21    22   ar
    87   106   104   ar
    88   155   154    1
    89    25    24    1
    90    25    28    1
    91    25    26    1
    92   154   153    1
    93    91    92    1
    94    29    28    1
    95    18    20   ar
    96   166   165    1
    97   166   168    1
    98    89    90    2
    99    89    99   am
   100    26    27    2
   101   105   104   ar
   102    22    20   ar
   103    22    23    1
   104   104   103    1
   105   165   162    1
   106   153   146   am
   107    92    93   ar
   108    92    94   ar
   109   161   162    1
   110    93    95   ar
   111    99   100    1
   112   147   146    2
   113   162   163    1
   114   164   163    2
   115   146   145    1
   116   103   100    1
   117    94    96   ar
   118    95    97   ar
   119   100   101    1
   120    11    10    2
   121   145   148    1
   122   145   144    1
   123   148   149    1
   124    96    97   ar
   125    97    98    1
   126    10     9    1
   127     7     5    1
   128   101   102    2
   129   101   109   am
   130     8     9    1
   131     8     3   am
   132     1     2    1
   133   109   110    1
   134   134   131    1
   135   134   135    1
   136   150   149    1
   137   150   151    1
   138   129   128    2
   139   131   130    1
   140   131   132    1
   141     5     2    1
   142     5     6    1
   143     3     2    1
   144     3     4    2
   145   128   130   am
   146   128   127    1
   147   110   113    1
   148   110   111    1
   149   132   133    2
   150   152   151    1
   151   127   126    1
   152   126   120   am
   153   113   114    1
   154   118   111   am
   155   118   119    1
   156   116   115   ar
   157   114   115    1
   158   111   112    2
   159   115   117   ar
   160   143   141   ar
   161   120   119    1
   162   120   121    2
   163   122   119    1
   164   122   123    1
   165   123   124    1
   166   141   140    1
   167   141   142   ar
   168   136   137    1
   169   140   137    1
   170   124   125    1
   171   137   138    1
   172   138   139    2
