@<TRIPOS>MOLECULE
tmp/6gipA00.pdb
 160 152 0 0 0
SMALL
GASTEIGER

@<TRIPOS>ATOM
      1  N        -41.9120   -2.0830   -8.7780 N.3    11  VAL11      -0.1231
      2  CA       -41.5060   -2.0450  -10.1770 C.3    11  VAL11       0.1692
      3  C        -40.0660   -1.5780  -10.3350 C.2    11  VAL11       0.2592
      4  O        -39.6130   -1.3540  -11.4600 O.2    11  VAL11      -0.2718
      5  CB       -42.4540   -1.1630  -11.0020 C.3    11  VAL11       0.0266
      6  CG1      -43.8950   -1.6030  -10.8030 C.3    11  VAL11       0.0020
      7  CG2      -42.2730    0.3020  -10.6310 C.3    11  VAL11       0.0020
      8  N        -39.3380   -1.4110   -9.2320 N.am   12  GLY12      -0.1957
      9  CA       -37.9850   -0.8940   -9.2800 C.3    12  GLY12       0.1869
     10  C        -37.3000   -0.9090   -7.9290 C.2    12  GLY12       0.2309
     11  O        -37.9060   -0.5630   -6.9100 O.2    12  GLY12      -0.2863
     12  N        -39.2870    1.7120   -6.1900 N.3    19  VAL19      -0.1245
     13  CA       -40.4710    2.3140   -6.7820 C.3    19  VAL19       0.1561
     14  C        -41.5860    1.2820   -6.7780 C.2    19  VAL19       0.2260
     15  O        -41.3710    0.1190   -7.1430 O.2    19  VAL19      -0.2867
     16  CB       -40.2110    2.8390   -8.2010 C.3    19  VAL19       0.0252
     17  CG1      -41.4780    3.4660   -8.7450 C.3    19  VAL19       0.0019
     18  CG2      -39.0990    3.8470   -8.1780 C.3    19  VAL19       0.0019
     19  N        -47.4310    6.0330   -8.7800 N.3    30  ALA30      -0.1231
     20  CA       -46.0600    5.6110   -8.5560 C.3    30  ALA30       0.1694
     21  C        -45.5950    6.1500   -7.2100 C.2    30  ALA30       0.2592
     22  O        -45.8330    7.3160   -6.8760 O.2    30  ALA30      -0.2718
     23  CB       -45.1420    6.1020   -9.6820 C.3    30  ALA30       0.0304
     24  N        -44.9460    5.2960   -6.4310 N.am   31  VAL31      -0.1966
     25  CA       -44.5130    5.6480   -5.0820 C.3    31  VAL31       0.1727
     26  C        -43.0400    5.3320   -4.9860 C.2    31  VAL31       0.2616
     27  O        -42.6550    4.1570   -4.9930 O.2    31  VAL31      -0.2715
     28  CB       -45.2830    4.8860   -4.0010 C.3    31  VAL31       0.0290
     29  CG1      -44.8650    5.3840   -2.6200 C.3    31  VAL31       0.0023
     30  CG2      -46.7770    5.0220   -4.2110 C.3    31  VAL31       0.0023
     31  N        -42.2160    6.3580   -4.8700 N.am   32  LYS32      -0.1977
     32  CA       -40.8030    6.1540   -4.6020 C.3    32  LYS32       0.1596
     33  C        -40.5590    6.2780   -3.1040 C.2    32  LYS32       0.2287
     34  O        -40.9260    7.2820   -2.4900 O.2    32  LYS32      -0.2864
     35  CB       -39.9390    7.1470   -5.3680 C.3    32  LYS32       0.0298
     36  CG       -38.4530    6.8520   -5.2630 C.3    32  LYS32       0.0038
     37  CD       -37.6910    7.5370   -6.3800 C.3    32  LYS32       0.0206
     38  CE       -36.2050    7.4660   -6.1750 C.3    32  LYS32       0.1093
     39  NZ       -35.5240    8.3860   -7.1210 N.3    32  LYS32      -0.1314
     40  N        -36.2360   16.9350   -4.6230 N.3    45  GLU45      -0.1245
     41  CA       -37.4440   16.7360   -5.4190 C.3    45  GLU45       0.1567
     42  C        -38.6830   17.3090   -4.7270 C.2    45  GLU45       0.2260
     43  O        -39.5490   17.9110   -5.3780 O.2    45  GLU45      -0.2867
     44  CB       -37.6260   15.2530   -5.7230 C.3    45  GLU45       0.0388
     45  CG       -36.6550   14.7340   -6.7620 C.3    45  GLU45       0.1160
     46  CD       -37.1210   13.4390   -7.3980 C.2    45  GLU45       0.3649
     47  OE1      -36.9810   12.3710   -6.7500 O.co2  45  GLU45      -0.2457
     48  OE2      -37.6560   13.5030   -8.5320 O.co2  45  GLU45      -0.2457
     49  N        -42.5880   14.4690  -15.1180 N.3    60  LEU60      -0.1245
     50  CA       -43.3540   13.5030  -14.3380 C.3    60  LEU60       0.1561
     51  C        -44.3190   14.2200  -13.3870 C.2    60  LEU60       0.2260
     52  O        -43.9350   15.1600  -12.6890 O.2    60  LEU60      -0.2867
     53  CB       -42.3920   12.6030  -13.5570 C.3    60  LEU60       0.0270
     54  CG       -43.0370   11.5390  -12.6800 C.3    60  LEU60       0.0019
     55  CD1      -43.8220   10.5720  -13.5550 C.3    60  LEU60       0.0001
     56  CD2      -42.0030   10.8110  -11.8460 C.3    60  LEU60       0.0001
     57  N        -42.2230    9.7860   -2.2940 N.3    78  LEU78      -0.1245
     58  CA       -42.5750   10.6650   -3.3980 C.3    78  LEU78       0.1561
     59  C        -43.6320    9.9360   -4.2080 C.2    78  LEU78       0.2260
     60  O        -43.3730    8.8420   -4.7200 O.2    78  LEU78      -0.2867
     61  CB       -41.3450   10.9690   -4.2510 C.3    78  LEU78       0.0270
     62  CG       -41.4640   11.9200   -5.4300 C.3    78  LEU78       0.0019
     63  CD1      -42.1120   13.2080   -4.9960 C.3    78  LEU78       0.0001
     64  CD2      -40.0860   12.1860   -6.0030 C.3    78  LEU78       0.0001
     65  N        -46.2480   10.0810   -7.4290 N.3    80  THR80      -0.1203
     66  CA       -46.4190   10.7550   -8.7130 C.3    80  THR80       0.1994
     67  C        -47.4020    9.9570   -9.5530 C.2    80  THR80       0.2618
     68  O        -47.8460    8.8750   -9.1650 O.2    80  THR80      -0.2717
     69  CB       -45.1080   10.8930   -9.5080 C.3    80  THR80       0.1784
     70  OG1      -44.7150    9.6050   -9.9860 O.3    80  THR80      -0.2211
     71  CG2      -43.9690   11.4960   -8.6720 C.3    80  THR80       0.0376
     72  N        -47.7390   10.5110  -10.7210 N.am   81  HIS81      -0.1961
     73  CA       -48.5220    9.7860  -11.7170 C.3    81  HIS81       0.1787
     74  C        -47.8500    8.4560  -12.0250 C.2    81  HIS81       0.2620
     75  O        -46.6300    8.3170  -11.9090 O.2    81  HIS81      -0.2715
     76  CB       -48.6540   10.6290  -12.9960 C.3    81  HIS81       0.0785
     77  CG       -49.7000   10.1450  -13.9620 C.ar   81  HIS81       0.0821
     78  ND1      -49.5750    8.9760  -14.6860 N.ar   81  HIS81      -0.2267
     79  CD2      -50.8700   10.7030  -14.3580 C.ar   81  HIS81       0.1154
     80  CE1      -50.6330    8.8230  -15.4630 C.ar   81  HIS81       0.1986
     81  NE2      -51.4330    9.8580  -15.2840 N.ar   81  HIS81      -0.2212
     82  N        -48.6480    7.4640  -12.4050 N.am   82  TYR82      -0.1960
     83  CA       -48.1200    6.1710  -12.8140 C.3    82  TYR82       0.1771
     84  C        -48.2470    6.0160  -14.3220 C.2    82  TYR82       0.2620
     85  O        -49.3370    6.1840  -14.8780 O.2    82  TYR82      -0.2715
     86  CB       -48.8440    5.0160  -12.1250 C.3    82  TYR82       0.0574
     87  CG       -48.2150    3.6690  -12.4130 C.ar   82  TYR82      -0.0198
     88  CD1      -47.0940    3.2440  -11.7210 C.ar   82  TYR82      -0.0009
     89  CD2      -48.7290    2.8350  -13.3960 C.ar   82  TYR82      -0.0009
     90  CE1      -46.5150    2.0020  -11.9760 C.ar   82  TYR82       0.0417
     91  CE2      -48.1610    1.5930  -13.6590 C.ar   82  TYR82       0.0417
     92  CZ       -47.0570    1.1840  -12.9480 C.ar   82  TYR82       0.1957
     93  OH       -46.4950   -0.0390  -13.2180 O.3    82  TYR82      -0.2866
     94  N        -47.1540    5.6460  -14.9700 N.am   83  HIS83      -0.1959
     95  CA       -47.1440    5.4270  -16.4200 C.3    83  HIS83       0.1787
     96  C        -46.9500    3.9450  -16.7030 C.2    83  HIS83       0.2620
     97  O        -45.8770    3.3900  -16.4450 O.2    83  HIS83      -0.2715
     98  CB       -46.0660    6.2810  -17.0660 C.3    83  HIS83       0.0785
     99  CG       -46.3190    7.7460  -16.9130 C.ar   83  HIS83       0.0821
    100  ND1      -47.4150    8.3700  -17.4700 N.ar   83  HIS83      -0.2267
    101  CD2      -45.6420    8.7040  -16.2380 C.ar   83  HIS83       0.1154
    102  CE1      -47.3910    9.6550  -17.1660 C.ar   83  HIS83       0.1986
    103  NE2      -46.3250    9.8850  -16.4180 N.ar   83  HIS83      -0.2212
    104  N        -48.0030    3.3020  -17.2060 N.am   84  GLU84      -0.1977
    105  CA       -47.9520    1.8600  -17.4380 C.3    84  GLU84       0.1602
    106  C        -46.7830    1.4720  -18.3360 C.2    84  GLU84       0.2287
    107  O        -46.1880    0.4050  -18.1630 O.2    84  GLU84      -0.2864
    108  CB       -49.2640    1.3820  -18.0540 C.3    84  GLU84       0.0415
    109  CG       -50.4250    1.3360  -17.0830 C.3    84  GLU84       0.1163
    110  CD       -51.7070    0.9070  -17.7670 C.2    84  GLU84       0.3649
    111  OE1      -51.6660    0.6740  -19.0030 O.co2  84  GLU84      -0.2457
    112  OE2      -52.7460    0.8010  -17.0720 O.co2  84  GLU84      -0.2457
    113  N        -43.8330    2.5970  -18.5090 N.3    86  GLY86      -0.1210
    114  CA       -42.5270    2.6320  -17.8730 C.3    86  GLY86       0.1956
    115  C        -41.5460    3.6070  -18.5070 C.2    86  GLY86       0.2612
    116  O        -41.9100    4.6150  -19.1220 O.2    86  GLY86      -0.2717
    117  N        -40.2660    3.2860  -18.3460 N.am   87  SER87      -0.1952
    118  CA       -39.1980    4.1870  -18.7500 C.3    87  SER87       0.1924
    119  C        -38.9680    4.1210  -20.2540 C.2    87  SER87       0.2314
    120  O        -39.2300    3.1050  -20.9020 O.2    87  SER87      -0.2863
    121  CB       -37.8950    3.8380  -18.0430 C.3    87  SER87       0.2116
    122  OG       -37.3590    2.6500  -18.5920 O.3    87  SER87      -0.2180
    123  N        -33.5250    6.0850  -18.7430 N.3   137  LYS137     -0.1231
    124  CA       -34.2040    5.5030  -17.5890 C.3   137  LYS137      0.1693
    125  C        -34.9140    6.5570  -16.7620 C.2   137  LYS137      0.2592
    126  O        -35.7650    6.2140  -15.9400 O.2   137  LYS137     -0.2718
    127  CB       -33.2250    4.7270  -16.7030 C.3   137  LYS137      0.0285
    128  CG       -32.9680    3.3200  -17.1760 C.3   137  LYS137      0.0035
    129  CD       -31.7180    2.7210  -16.5420 C.3   137  LYS137      0.0206
    130  CE       -31.6000    1.2290  -16.8950 C.3   137  LYS137      0.1093
    131  NZ       -30.4030    0.6140  -16.2760 N.3   137  LYS137     -0.1314
    132  N        -34.5770    7.8280  -16.9420 N.am  138  ASN138     -0.1974
    133  CA       -35.2050    8.8900  -16.1690 C.3   138  ASN138      0.1688
    134  C        -36.3210    9.5640  -16.9350 C.2   138  ASN138      0.2292
    135  O        -36.7580   10.6570  -16.5640 O.2   138  ASN138     -0.2864
    136  CB       -34.1540    9.9030  -15.7180 C.3   138  ASN138      0.1181
    137  CG       -33.5660    9.5320  -14.3760 C.2   138  ASN138      0.2629
    138  OD1      -34.1180    8.6900  -13.6960 O.2   138  ASN138     -0.2716
    139  ND2      -32.4480   10.1420  -13.9970 N.am  138  ASN138     -0.0877
    140  N        -40.1860    8.7940  -18.6200 N.3   140  LEU140     -0.1245
    141  CA       -41.3120    7.8820  -18.7320 C.3   140  LEU140      0.1561
    142  C        -42.0590    8.1320  -20.0390 C.2   140  LEU140      0.2260
    143  O        -42.1060    9.2520  -20.5500 O.2   140  LEU140     -0.2867
    144  CB       -42.2700    8.0220  -17.5490 C.3   140  LEU140      0.0270
    145  CG       -41.7910    7.7050  -16.1270 C.3   140  LEU140      0.0019
    146  CD1      -41.4980    6.2420  -16.0390 C.3   140  LEU140      0.0001
    147  CD2      -40.5560    8.5200  -15.7140 C.3   140  LEU140      0.0001
    148  N        -38.2480   12.6170  -15.3770 N.3   150  ALA150     -0.1231
    149  CA       -38.3740   12.4200  -13.9390 C.3   150  ALA150      0.1694
    150  C        -37.0190   12.6220  -13.2630 C.2   150  ALA150      0.2592
    151  O        -35.9940   12.8570  -13.9150 O.2   150  ALA150     -0.2718
    152  CB       -38.9470   11.0360  -13.6160 C.3   150  ALA150      0.0304
    153  N        -37.0530   12.5360  -11.9310 N.am  151  ASP151     -0.1974
    154  CA       -35.8970   12.5520  -11.0440 C.3   151  ASP151      0.1709
    155  C        -35.2600   13.9260  -10.9970 C.2   151  ASP151      0.2293
    156  O        -34.3020   14.2100  -11.7120 O.2   151  ASP151     -0.2864
    157  CB       -34.8710   11.5090  -11.4560 C.3   151  ASP151      0.1436
    158  CG       -33.7870   11.3030  -10.4120 C.2   151  ASP151      0.3671
    159  OD1      -33.7500   12.0330   -9.3940 O.co2 151  ASP151     -0.2456
    160  OD2      -32.9570   10.3930  -10.6250 O.co2 151  ASP151     -0.2456
@<TRIPOS>BOND
     1   120   119    2
     2   143   142    2
     3   119   118    1
     4   142   141    1
     5   116   115    2
     6   111   110   ar
     7   118   117    1
     8   118   121    1
     9   123   124    1
    10   141   140    1
    11   141   144    1
    12   122   121    1
    13   113   114    1
    14   115   117   am
    15   115   114    1
    16   106   107    2
    17   106   105    1
    18   108   105    1
    19   108   109    1
    20   110   109    1
    21   110   112   ar
    22   124   125    1
    23   124   127    1
    24   144   145    1
    25   100   102   ar
    26   100    99   ar
    27   105   104    1
    28   104    96   am
    29   128   127    1
    30   128   129    1
    31   102   103   ar
    32    98    99    1
    33    98    95    1
    34   132   125   am
    35   132   133    1
    36   134   135    2
    37   134   133    1
    38    99   101   ar
    39   130   129    1
    40   130   131    1
    41   125   126    2
    42    96    97    2
    43    96    95    1
    44    95    94    1
    45   103   101   ar
    46   133   136    1
    47   145   146    1
    48   145   147    1
    49   136   137    1
    50    80    81   ar
    51    80    78   ar
    52   148   149    1
    53    81    79   ar
    54    49    50    1
    55    94    84   am
    56    85    84    2
    57    78    77   ar
    58   137   139   am
    59   137   138    2
    60    79    77   ar
    61    50    53    1
    62    50    51    1
    63    84    83    1
    64    77    76    1
    65   149   152    1
    66   149   150    1
    67   151   150    2
    68    91    89   ar
    69    91    92   ar
    70    53    54    1
    71    55    54    1
    72    89    87   ar
    73    51    52    2
    74   150   153   am
    75    93    92    1
    76    76    73    1
    77    92    90   ar
    78    83    82    1
    79    83    86    1
    80    54    56    1
    81    87    86    1
    82    87    88   ar
    83    82    74   am
    84    74    75    2
    85    74    73    1
    86    90    88   ar
    87   153   154    1
    88    73    72    1
    89   156   155    2
    90     4     3    2
    91   157   154    1
    92   157   158    1
    93   154   155    1
    94     5     6    1
    95     5     7    1
    96     5     2    1
    97    72    67   am
    98   160   158   ar
    99   158   159   ar
   100     3     2    1
   101     3     8   am
   102     2     1    1
   103    70    69    1
   104    23    20    1
   105    67    68    2
   106    67    66    1
   107    69    66    1
   108    69    71    1
   109     9     8    1
   110     9    10    1
   111    19    20    1
   112    17    16    1
   113    66    65    1
   114    20    21    1
   115    48    46   ar
   116    16    18    1
   117    16    13    1
   118    10    11    2
   119    46    45    1
   120    46    47   ar
   121    21    22    2
   122    21    24   am
   123    15    14    2
   124    39    38    1
   125    13    14    1
   126    13    12    1
   127    45    44    1
   128    24    25    1
   129    37    38    1
   130    37    36    1
   131    64    62    1
   132    44    41    1
   133    62    63    1
   134    62    61    1
   135    41    42    1
   136    41    40    1
   137    43    42    2
   138    35    36    1
   139    35    32    1
   140    25    26    1
   141    25    28    1
   142    27    26    2
   143    26    31   am
   144    31    32    1
   145    60    59    2
   146    32    33    1
   147    61    58    1
   148    30    28    1
   149    59    58    1
   150    28    29    1
   151    58    57    1
   152    33    34    2
