@<TRIPOS>MOLECULE
tmp/6giqL00.pdb
 120 112 0 0 0
SMALL
GASTEIGER

@<TRIPOS>ATOM
      1  N        180.6790  197.4690  225.9730 N.3     8  VAL8       -0.1245
      2  CA       181.8850  197.6260  225.1700 C.3     8  VAL8        0.1561
      3  C        182.6220  198.9120  225.5280 C.2     8  VAL8        0.2260
      4  O        183.8520  198.9240  225.6530 O.2     8  VAL8       -0.2867
      5  CB       181.5280  197.5350  223.6750 C.3     8  VAL8        0.0252
      6  CG1      180.3580  198.4360  223.3210 C.3     8  VAL8        0.0019
      7  CG2      182.7210  197.8880  222.8300 C.3     8  VAL8        0.0019
      8  N        186.4330  199.7480  228.8160 N.3    12  LEU12      -0.1231
      9  CA       187.6840  200.4960  228.8140 C.3    12  LEU12       0.1693
     10  C        187.7790  201.4170  230.0130 C.2    12  LEU12       0.2591
     11  O        188.8420  201.5210  230.6310 O.2    12  LEU12      -0.2718
     12  CB       187.8290  201.3110  227.5430 C.3    12  LEU12       0.0284
     13  CG       188.0270  200.5480  226.2550 C.3    12  LEU12       0.0019
     14  CD1      188.1530  201.5710  225.1720 C.3    12  LEU12       0.0001
     15  CD2      189.2640  199.6960  226.3510 C.3    12  LEU12       0.0001
     16  N        186.6800  202.0970  230.3430 N.am   13  VAL13      -0.1980
     17  CA       186.6420  202.9470  231.5270 C.3    13  VAL13       0.1595
     18  C        186.8960  202.1180  232.7750 C.2    13  VAL13       0.2287
     19  O        187.6630  202.5210  233.6540 O.2    13  VAL13      -0.2864
     20  CB       185.2960  203.6860  231.5960 C.3    13  VAL13       0.0276
     21  CG1      185.1890  204.5040  232.8590 C.3    13  VAL13       0.0022
     22  CG2      185.1340  204.5690  230.3910 C.3    13  VAL13       0.0022
     23  N        188.5750  198.9660  232.9480 N.3    15  SER15      -0.1202
     24  CA       189.9270  198.4330  232.9460 C.3    15  SER15       0.2020
     25  C        191.0110  199.4980  232.9380 C.2    15  SER15       0.2619
     26  O        192.1850  199.1420  233.0570 O.2    15  SER15      -0.2717
     27  CB       190.1110  197.5100  231.7480 C.3    15  SER15       0.2103
     28  OG       189.9780  198.2240  230.5400 O.3    15  SER15      -0.2182
     29  N        190.6740  200.7750  232.7840 N.am   16  TYR16      -0.1961
     30  CA       191.6700  201.8250  232.9200 C.3    16  TYR16       0.1771
     31  C        191.5450  202.6500  234.1900 C.2    16  TYR16       0.2619
     32  O        192.5580  202.8780  234.8520 O.2    16  TYR16      -0.2715
     33  CB       191.6530  202.7380  231.6910 C.3    16  TYR16       0.0574
     34  CG       192.4000  202.1370  230.5320 C.ar   16  TYR16      -0.0198
     35  CD1      193.7780  202.1920  230.4900 C.ar   16  TYR16      -0.0009
     36  CD2      191.7410  201.4910  229.5050 C.ar   16  TYR16      -0.0009
     37  CE1      194.4730  201.6480  229.4510 C.ar   16  TYR16       0.0417
     38  CE2      192.4310  200.9340  228.4610 C.ar   16  TYR16       0.0417
     39  CZ       193.7980  201.0130  228.4420 C.ar   16  TYR16       0.1957
     40  OH       194.4910  200.4610  227.3960 O.3    16  TYR16      -0.2866
     41  N        190.3570  203.1280  234.5670 N.am   17  ILE17      -0.1977
     42  CA       190.2800  204.0370  235.7010 C.3    17  ILE17       0.1596
     43  C        189.3760  203.5250  236.8120 C.2    17  ILE17       0.2287
     44  O        189.0730  204.2740  237.7350 O.2    17  ILE17      -0.2864
     45  CB       189.8400  205.4520  235.2760 C.3    17  ILE17       0.0276
     46  CG1      188.4320  205.4410  234.7040 C.3    17  ILE17       0.0022
     47  CG2      190.7750  206.0360  234.2730 C.3    17  ILE17       0.0022
     48  CD1      187.8630  206.8010  234.4920 C.3    17  ILE17       0.0001
     49  N        198.3360  211.5510  235.8180 N.3    34  SER34      -0.1217
     50  CA       196.9910  212.1090  235.8850 C.3    34  SER34       0.1889
     51  C        197.0260  213.6220  235.8560 C.2    34  SER34       0.2288
     52  O        196.1340  214.2600  235.2770 O.2    34  SER34      -0.2866
     53  CB       196.3000  211.6650  237.1610 C.3    34  SER34       0.2089
     54  OG       196.9490  212.2270  238.2790 O.3    34  SER34      -0.2183
     55  N        196.9760  208.1600  224.2100 N.3   195  ILE195     -0.1245
     56  CA       196.1990  206.9220  224.2500 C.3   195  ILE195      0.1561
     57  C        197.0850  205.7090  223.9640 C.2   195  ILE195      0.2260
     58  O        196.9860  204.6750  224.6460 O.2   195  ILE195     -0.2867
     59  CB       195.0090  207.0230  223.2860 C.3   195  ILE195      0.0252
     60  CG1      194.0390  208.0750  223.8030 C.3   195  ILE195      0.0019
     61  CG2      194.2980  205.7100  223.1630 C.3   195  ILE195      0.0019
     62  CD1      192.9490  208.4060  222.8430 C.3   195  ILE195      0.0001
     63  N        199.0160  205.0440  227.1330 N.3   198  LEU198     -0.1231
     64  CA       198.2390  204.3390  228.1440 C.3   198  LEU198      0.1693
     65  C        198.0870  202.8640  227.8120 C.2   198  LEU198      0.2591
     66  O        198.0590  202.0330  228.7220 O.2   198  LEU198     -0.2718
     67  CB       196.8680  204.9780  228.2950 C.3   198  LEU198      0.0284
     68  CG       196.9060  206.3850  228.8680 C.3   198  LEU198      0.0019
     69  CD1      195.5290  206.9750  228.8620 C.3   198  LEU198      0.0001
     70  CD2      197.4600  206.3500  230.2590 C.3   198  LEU198      0.0001
     71  N        198.0100  202.5210  226.5250 N.am  199  MET199     -0.1979
     72  CA       197.9650  201.1110  226.1340 C.3   199  MET199      0.1605
     73  C        199.2620  200.3930  226.4860 C.2   199  MET199      0.2287
     74  O        199.2470  199.2980  227.0800 O.2   199  MET199     -0.2864
     75  CB       197.7080  201.0050  224.6400 C.3   199  MET199      0.0413
     76  CG       196.3560  201.4650  224.1970 C.3   199  MET199      0.0598
     77  SD       196.3250  201.4730  222.4090 S.3   199  MET199     -0.1393
     78  CE       196.6300  199.7470  222.1310 C.3   199  MET199      0.0692
     79  N        199.3430  199.8740  230.1520 N.3   202  HIS202     -0.1226
     80  CA       198.3610  198.9480  230.6890 C.3   202  HIS202      0.1752
     81  C        198.7070  197.5000  230.4160 C.2   202  HIS202      0.2595
     82  O        198.2490  196.6210  231.1490 O.2   202  HIS202     -0.2718
     83  CB       196.9970  199.2760  230.1040 C.3   202  HIS202      0.0759
     84  CG       195.8770  198.4780  230.6810 C.ar  202  HIS202      0.0818
     85  ND1      195.4760  197.2710  230.1530 N.ar  202  HIS202     -0.2268
     86  CD2      195.0800  198.7050  231.7500 C.ar  202  HIS202      0.1154
     87  CE1      194.4690  196.7970  230.8620 C.ar  202  HIS202      0.1986
     88  NE2      194.2110  197.6470  231.8390 N.ar  202  HIS202     -0.2212
     89  N        199.5260  197.2210  229.4020 N.am  203  ILE203     -0.1980
     90  CA       199.9100  195.8240  229.2010 C.3   203  ILE203      0.1595
     91  C        200.8890  195.2820  230.2340 C.2   203  ILE203      0.2287
     92  O        201.1500  194.0800  230.2320 O.2   203  ILE203     -0.2864
     93  CB       200.5160  195.5750  227.8110 C.3   203  ILE203      0.0276
     94  CG1      201.7910  196.3870  227.6330 C.3   203  ILE203      0.0022
     95  CG2      199.4930  195.8860  226.7570 C.3   203  ILE203      0.0022
     96  CD1      202.6000  195.9780  226.4350 C.3   203  ILE203      0.0001
     97  N        192.0500  200.8150  241.3180 N.3   221  MET221     -0.1245
     98  CA       192.1370  202.2380  241.0450 C.3   221  MET221      0.1570
     99  C        191.1050  203.0040  241.8460 C.2   221  MET221      0.2261
    100  O        191.4230  204.0340  242.4560 O.2   221  MET221     -0.2867
    101  CB       191.9220  202.4970  239.5610 C.3   221  MET221      0.0387
    102  CG       192.0220  203.9460  239.1700 C.3   221  MET221      0.0595
    103  SD       193.6940  204.5150  239.3640 S.3   221  MET221     -0.1393
    104  CE       194.4070  203.5800  238.0390 C.3   221  MET221      0.0692
    105  N        191.8570  207.3310  242.8410 N.3   226  ILE226     -0.1245
    106  CA       190.9710  208.4220  242.4530 C.3   226  ILE226      0.1561
    107  C        191.0620  209.5720  243.4480 C.2   226  ILE226      0.2260
    108  O        191.3090  210.7190  243.0570 O.2   226  ILE226     -0.2867
    109  CB       189.5290  207.9210  242.2990 C.3   226  ILE226      0.0252
    110  CG1      189.4410  206.9610  241.1210 C.3   226  ILE226      0.0019
    111  CG2      188.5920  209.0780  242.1090 C.3   226  ILE226      0.0019
    112  CD1      189.8110  207.5790  239.8130 C.3   226  ILE226      0.0001
    113  N        194.6830  211.1500  243.4510 N.3   229  ASP229     -0.1239
    114  CA       194.8530  212.0740  242.3390 C.3   229  ASP229      0.1674
    115  C        194.0050  213.3150  242.5200 C.2   229  ASP229      0.2266
    116  O        194.3920  214.3780  242.0480 O.2   229  ASP229     -0.2867
    117  CB       194.5070  211.4270  241.0010 C.3   229  ASP229      0.1410
    118  CG       195.3400  210.2000  240.7030 C.2   229  ASP229      0.3668
    119  OD1      196.2940  209.9090  241.4480 O.co2 229  ASP229     -0.2456
    120  OD2      195.0290  209.5070  239.7170 O.co2 229  ASP229     -0.2456
@<TRIPOS>BOND
     1    78    77    1
     2    77    76    1
     3     7     5    1
     4    62    60    1
     5    61    59    1
     6    59    60    1
     7    59    56    1
     8     6     5    1
     9     5     2    1
    10    57    56    1
    11    57    58    2
    12    76    75    1
    13    55    56    1
    14    75    72    1
    15     2     3    1
    16     2     1    1
    17    14    13    1
    18     3     4    2
    19    72    73    1
    20    72    71    1
    21    13    15    1
    22    13    12    1
    23    96    94    1
    24    73    74    2
    25    71    65   am
    26    95    93    1
    27    63    64    1
    28    40    39    1
    29    12     9    1
    30    94    93    1
    31    93    90    1
    32    65    64    1
    33    65    66    2
    34    64    67    1
    35    67    68    1
    36    39    38   ar
    37    39    37   ar
    38    38    36   ar
    39     9     8    1
    40     9    10    1
    41    69    68    1
    42    68    70    1
    43    90    89    1
    44    90    91    1
    45    89    81   am
    46    37    35   ar
    47    36    34   ar
    48    10    16   am
    49    10    11    2
    50    83    84    1
    51    83    80    1
    52    79    80    1
    53    85    84   ar
    54    85    87   ar
    55    92    91    2
    56    16    17    1
    57    22    20    1
    58    81    80    1
    59    81    82    2
    60    35    34   ar
    61    34    33    1
    62    28    27    1
    63    84    86   ar
    64    87    88   ar
    65    17    20    1
    66    17    18    1
    67    20    21    1
    68    33    30    1
    69    27    24    1
    70    86    88   ar
    71    18    19    2
    72    29    30    1
    73    29    25   am
    74    30    31    1
    75    25    24    1
    76    25    26    2
    77    24    23    1
    78    31    41   am
    79    31    32    2
    80    47    45    1
    81    48    46    1
    82    41    42    1
    83    46    45    1
    84    45    42    1
    85    52    51    2
    86    42    43    1
    87    49    50    1
    88    51    50    1
    89    50    53    1
    90    43    44    2
    91    53    54    1
    92   104   103    1
    93   102   103    1
    94   102   101    1
    95   101    98    1
    96   120   118   ar
    97   112   110    1
    98   118   117    1
    99   118   119   ar
   100   117   114    1
   101    98    97    1
   102    98    99    1
   103   110   109    1
   104    99   100    2
   105   116   115    2
   106   111   109    1
   107   109   106    1
   108   114   115    1
   109   114   113    1
   110   106   105    1
   111   106   107    1
   112   108   107    2
