@<TRIPOS>MOLECULE
tmp/6giqD00.pdb
 212 202 0 0 0
SMALL
GASTEIGER

@<TRIPOS>ATOM
      1  N        188.6700  245.2120  174.7740 N.3    35  VAL35      -0.1245
      2  CA       187.2960  245.6990  174.8830 C.3    35  VAL35       0.1561
      3  C        186.9520  246.0250  176.3310 C.2    35  VAL35       0.2260
      4  O        186.2190  246.9880  176.5920 O.2    35  VAL35      -0.2867
      5  CB       186.3060  244.6950  174.2760 C.3    35  VAL35       0.0252
      6  CG1      184.8870  245.2340  174.3000 C.3    35  VAL35       0.0019
      7  CG2      186.6780  244.4030  172.8750 C.3    35  VAL35       0.0019
      8  N        185.8240  249.8060  177.2290 N.3    39  VAL39      -0.1231
      9  CA       184.3880  249.9640  177.4360 C.3    39  VAL39       0.1692
     10  C        184.0150  249.7840  178.9010 C.2    39  VAL39       0.2592
     11  O        183.3880  250.6630  179.4990 O.2    39  VAL39      -0.2718
     12  CB       183.5800  248.9820  176.5720 C.3    39  VAL39       0.0266
     13  CG1      182.1090  249.1490  176.8540 C.3    39  VAL39       0.0020
     14  CG2      183.8560  249.1900  175.1060 C.3    39  VAL39       0.0020
     15  N        184.3770  248.6380  179.4870 N.am   40  CYS40      -0.1970
     16  CA       183.8570  248.2940  180.8050 C.3    40  CYS40       0.1712
     17  C        184.5390  249.0980  181.8960 C.2    40  CYS40       0.2296
     18  O        183.9010  249.4870  182.8760 O.2    40  CYS40      -0.2864
     19  CB       184.0980  246.8280  181.1260 C.3    40  CYS40       0.0983
     20  SG       183.8040  245.5800  179.8930 S.3    40  CYS40      -0.0798
     21  N        185.4540  251.9620  182.5130 N.3    42  ALA42      -0.1231
     22  CA       184.9260  253.2080  183.0280 C.3    42  ALA42       0.1694
     23  C        184.0380  252.9820  184.2370 C.2    42  ALA42       0.2592
     24  O        183.8710  253.9010  185.0420 O.2    42  ALA42      -0.2718
     25  CB       184.1460  253.9380  181.9380 C.3    42  ALA42       0.0304
     26  N        183.4460  251.7930  184.3780 N.am   43  CYS43      -0.1956
     27  CA       182.4460  251.5790  185.4130 C.3    43  CYS43       0.1843
     28  C        182.5140  250.2370  186.1280 C.2    43  CYS43       0.2625
     29  O        181.6480  249.9770  186.9640 O.2    43  CYS43      -0.2714
     30  CB       181.0390  251.7620  184.8310 C.3    43  CYS43       0.0997
     31  SG       180.6760  253.4650  184.3730 S.3    43  CYS43      -0.0797
     32  N        183.5040  249.3900  185.8630 N.am   44  HIS44      -0.1973
     33  CA       183.6120  248.0950  186.5290 C.3    44  HIS44       0.1656
     34  C        185.0150  247.8720  187.0500 C.2    44  HIS44       0.2291
     35  O        185.9790  247.8990  186.2810 O.2    44  HIS44      -0.2864
     36  CB       183.2410  246.9510  185.5960 C.3    44  HIS44       0.0771
     37  CG       181.7790  246.8070  185.3710 C.ar   44  HIS44       0.0820
     38  ND1      180.9450  246.2350  186.3020 N.ar   44  HIS44      -0.2267
     39  CD2      180.9940  247.1720  184.3340 C.ar   44  HIS44       0.1154
     40  CE1      179.7090  246.2410  185.8430 C.ar   44  HIS44       0.1986
     41  NE2      179.7120  246.8060  184.6520 N.ar   44  HIS44      -0.2212
     42  N        176.0810  256.1720  189.1410 N.3   108  ASN108     -0.1240
     43  CA       175.3180  255.2060  188.3600 C.3   108  ASN108      0.1653
     44  C        173.8750  255.0970  188.8280 C.2   108  ASN108      0.2266
     45  O        173.2970  254.0090  188.7950 O.2   108  ASN108     -0.2867
     46  CB       176.0030  253.8480  188.3990 C.3   108  ASN108      0.1155
     47  CG       177.3000  253.8600  187.6580 C.2   108  ASN108      0.2627
     48  OD1      177.3600  254.2940  186.5160 O.2   108  ASN108     -0.2716
     49  ND2      178.3660  253.4720  188.3290 N.am  108  ASN108     -0.0877
     50  N        172.5450  252.3820  191.4940 N.3   111  ALA111     -0.1231
     51  CA       172.8900  250.9830  191.3050 C.3   111  ALA111      0.1694
     52  C        174.3940  250.7820  191.3770 C.2   111  ALA111      0.2592
     53  O        175.1650  251.5400  190.7890 O.2   111  ALA111     -0.2718
     54  CB       172.3670  250.4840  189.9640 C.3   111  ALA111      0.0304
     55  N        174.8030  249.7470  192.0990 N.am  112  LEU112     -0.1966
     56  CA       176.2140  249.4450  192.2780 C.3   112  LEU112      0.1713
     57  C        176.6740  248.4870  191.1940 C.2   112  LEU112      0.2458
     58  O        176.1410  247.3750  191.1060 O.2   112  LEU112     -0.2730
     59  CB       176.4560  248.8240  193.6360 C.3   112  LEU112      0.0310
     60  CG       177.8940  248.3810  193.8690 C.3   112  LEU112      0.0022
     61  CD1      178.8280  249.5550  193.8320 C.3   112  LEU112      0.0001
     62  CD2      178.0110  247.6530  195.1860 C.3   112  LEU112      0.0001
     63  N        177.6430  248.8540  190.3650 N.am  113  PRO113     -0.2716
     64  CA       178.1360  247.9350  189.3520 C.3   113  PRO113      0.1521
     65  C        179.0140  246.8750  189.9820 C.2   113  PRO113      0.2440
     66  O        180.0230  247.2030  190.6190 O.2   113  PRO113     -0.2731
     67  CB       178.9580  248.8380  188.4290 C.3   113  PRO113      0.0310
     68  CG       178.5040  250.1800  188.7080 C.3   113  PRO113      0.0237
     69  CD       178.1760  250.2020  190.1570 C.3   113  PRO113      0.0939
     70  N        178.6720  245.6030  189.8220 N.am  114  PRO114     -0.2727
     71  CA       179.4070  244.5550  190.5240 C.3   114  PRO114      0.1402
     72  C        180.7800  244.3290  189.9300 C.2   114  PRO114      0.2269
     73  O        181.0040  244.5130  188.7340 O.2   114  PRO114     -0.2865
     74  CB       178.5190  243.3250  190.3410 C.3   114  PRO114      0.0296
     75  CG       177.7840  243.5910  189.1080 C.3   114  PRO114      0.0237
     76  CD       177.5430  245.0580  189.0590 C.3   114  PRO114      0.0939
     77  N        183.7810  242.4820  188.3950 N.3   116  LEU116     -0.1245
     78  CA       183.6950  241.4600  187.3660 C.3   116  LEU116      0.1561
     79  C        184.8150  240.4360  187.4470 C.2   116  LEU116      0.2260
     80  O        185.1420  239.8180  186.4330 O.2   116  LEU116     -0.2867
     81  CB       183.6980  242.0970  185.9820 C.3   116  LEU116      0.0270
     82  CG       182.5720  243.0670  185.6630 C.3   116  LEU116      0.0019
     83  CD1      182.6970  243.5200  184.2340 C.3   116  LEU116      0.0001
     84  CD2      181.2220  242.4650  185.9190 C.3   116  LEU116      0.0001
     85  N        182.3920  237.1710  187.8200 N.3   119  ILE119     -0.1245
     86  CA       180.9960  237.3350  187.4510 C.3   119  ILE119      0.1561
     87  C        180.5140  236.2420  186.5050 C.2   119  ILE119      0.2260
     88  O        179.3060  236.0030  186.4140 O.2   119  ILE119     -0.2867
     89  CB       180.7900  238.7400  186.8680 C.3   119  ILE119      0.0252
     90  CG1      179.3250  239.1490  186.9440 C.3   119  ILE119      0.0019
     91  CG2      181.2580  238.7970  185.4410 C.3   119  ILE119      0.0019
     92  CD1      178.8130  239.2780  188.3430 C.3   119  ILE119      0.0001
     93  N        177.1320  233.5390  188.2620 N.3   123  ARG123     -0.1245
     94  CA       175.8060  233.5930  187.6690 C.3   123  ARG123      0.1563
     95  C        175.4760  232.2420  187.0670 C.2   123  ARG123      0.2260
     96  O        176.3480  231.5840  186.4970 O.2   123  ARG123     -0.2867
     97  CB       175.7080  234.6620  186.5890 C.3   123  ARG123      0.0307
     98  CG       175.8780  236.0750  187.0800 C.3   123  ARG123      0.0489
     99  CD       174.7380  236.4830  187.9790 C.3   123  ARG123      0.2205
    100  NE       174.8110  237.8950  188.3260 N.pl3 123  ARG123     -0.0865
    101  CZ       175.5020  238.3710  189.3530 C.cat 123  ARG123      0.5346
    102  NH1      175.5150  239.6680  189.6000 N.pl3 123  ARG123      0.1354
    103  NH2      176.1870  237.5500  190.1290 N.pl3 123  ARG123      0.1354
    104  N        175.0760  233.2700  179.8690 N.3   129  TYR129     -0.1227
    105  CA       174.3250  234.3470  180.4960 C.3   129  TYR129      0.1736
    106  C        174.9590  235.6990  180.2360 C.2   129  TYR129      0.2595
    107  O        174.2480  236.6620  179.9470 O.2   129  TYR129     -0.2718
    108  CB       174.2010  234.1180  181.9960 C.3   129  TYR129      0.0548
    109  CG       173.5670  235.2900  182.6910 C.ar  129  TYR129     -0.0200
    110  CD1      172.2280  235.5830  182.5160 C.ar  129  TYR129     -0.0009
    111  CD2      174.3170  236.1100  183.5220 C.ar  129  TYR129     -0.0009
    112  CE1      171.6570  236.6600  183.1420 C.ar  129  TYR129      0.0417
    113  CE2      173.7550  237.1830  184.1480 C.ar  129  TYR129      0.0417
    114  CZ       172.4260  237.4530  183.9570 C.ar  129  TYR129      0.1957
    115  OH       171.8610  238.5290  184.5900 O.3   129  TYR129     -0.2866
    116  N        176.2850  235.7930  180.3190 N.am  130  ILE130     -0.1980
    117  CA       176.9340  237.0850  180.1130 C.3   130  ILE130      0.1595
    118  C        176.8070  237.5200  178.6590 C.2   130  ILE130      0.2287
    119  O        176.5100  238.6890  178.3680 O.2   130  ILE130     -0.2864
    120  CB       178.4020  237.0230  180.5590 C.3   130  ILE130      0.0276
    121  CG1      178.4920  236.5400  181.9970 C.3   130  ILE130      0.0022
    122  CG2      179.0430  238.3760  180.4550 C.3   130  ILE130      0.0022
    123  CD1      177.7450  237.3780  182.9750 C.3   130  ILE130      0.0001
    124  N        173.2700  238.5020  178.0100 N.3   133  LEU133     -0.1231
    125  CA       172.9950  239.7600  178.6850 C.3   133  LEU133      0.1693
    126  C        173.4770  240.9310  177.8540 C.2   133  LEU133      0.2591
    127  O        172.7750  241.9390  177.7270 O.2   133  LEU133     -0.2718
    128  CB       173.6840  239.7810  180.0410 C.3   133  LEU133      0.0284
    129  CG       173.3900  240.9920  180.9100 C.3   133  LEU133      0.0019
    130  CD1      171.9920  240.8980  181.4530 C.3   133  LEU133      0.0001
    131  CD2      174.4010  241.0990  182.0100 C.3   133  LEU133      0.0001
    132  N        174.6730  240.8110  177.2790 N.am  134  LEU134     -0.1980
    133  CA       175.2250  241.9180  176.5110 C.3   134  LEU134      0.1596
    134  C        174.5050  242.0980  175.1840 C.2   134  LEU134      0.2287
    135  O        174.2310  243.2300  174.7730 O.2   134  LEU134     -0.2864
    136  CB       176.7080  241.6950  176.2820 C.3   134  LEU134      0.0297
    137  CG       177.4940  241.7790  177.5720 C.3   134  LEU134      0.0022
    138  CD1      178.9160  241.4060  177.3000 C.3   134  LEU134      0.0001
    139  CD2      177.3930  243.1770  178.1040 C.3   134  LEU134      0.0001
    140  N        167.9210  239.4220  182.1800 N.3   157  PHE157     -0.1241
    141  CA       168.1340  239.8280  183.5570 C.3   157  PHE157      0.1605
    142  C        166.9340  239.4100  184.4020 C.2   157  PHE157      0.2264
    143  O        165.7940  239.5240  183.9490 O.2   157  PHE157     -0.2867
    144  CB       168.3310  241.3320  183.6320 C.3   157  PHE157      0.0534
    145  CG       168.7220  241.8280  184.9830 C.ar  157  PHE157     -0.0203
    146  CD1      170.0100  241.6670  185.4450 C.ar  157  PHE157     -0.0042
    147  CD2      167.8040  242.4680  185.7870 C.ar  157  PHE157     -0.0042
    148  CE1      170.3700  242.1330  186.6840 C.ar  157  PHE157     -0.0003
    149  CE2      168.1610  242.9310  187.0270 C.ar  157  PHE157     -0.0003
    150  CZ       169.4450  242.7620  187.4750 C.ar  157  PHE157     -0.0000
    151  N        164.0570  244.3940  184.3100 N.3   161  SER161     -0.1202
    152  CA       164.5260  245.7660  184.4230 C.3   161  SER161      0.2020
    153  C        165.9530  245.7650  184.9500 C.2   161  SER161      0.2619
    154  O        166.1940  245.3980  186.1010 O.2   161  SER161     -0.2717
    155  CB       163.6090  246.5630  185.3410 C.3   161  SER161      0.2103
    156  OG       164.0800  247.8850  185.4970 O.3   161  SER161     -0.2182
    157  N        166.8930  246.1830  184.1110 N.am  162  ILE162     -0.1965
    158  CA       168.2950  246.2780  184.4890 C.3   162  ILE162      0.1727
    159  C        168.6840  247.7510  184.4760 C.2   162  ILE162      0.2616
    160  O        168.0770  248.5690  183.7750 O.2   162  ILE162     -0.2715
    161  CB       169.1740  245.4220  183.5470 C.3   162  ILE162      0.0290
    162  CG1      170.5870  245.2210  184.0910 C.3   162  ILE162      0.0022
    163  CG2      169.2420  246.0180  182.1660 C.3   162  ILE162      0.0023
    164  CD1      171.3880  244.2390  183.3060 C.3   162  ILE162      0.0001
    165  N        169.6720  248.1040  185.2940 N.am  163  ALA163     -0.1963
    166  CA       170.1660  249.4680  185.3660 C.3   163  ALA163      0.1728
    167  C        171.4230  249.6830  184.5360 C.2   163  ALA163      0.2616
    168  O        172.1350  250.6660  184.7510 O.2   163  ALA163     -0.2715
    169  CB       170.4210  249.8580  186.8180 C.3   163  ALA163      0.0334
    170  N        171.7220  248.7810  183.6140 N.am  164  MET164     -0.1963
    171  CA       172.8280  248.9610  182.6870 C.3   164  MET164      0.1736
    172  C        172.3100  249.6030  181.4110 C.2   164  MET164      0.2616
    173  O        171.1360  249.4760  181.0680 O.2   164  MET164     -0.2715
    174  CB       173.4680  247.6200  182.3370 C.3   164  MET164      0.0427
    175  CG       174.8790  247.6850  181.7980 C.3   164  MET164      0.0599
    176  SD       175.2780  246.2090  180.8550 S.3   164  MET164     -0.1393
    177  CE       174.9350  244.9330  182.0430 C.3   164  MET164      0.0692
    178  N        173.1890  250.2940  180.7060 N.am  165  ALA165     -0.1977
    179  CA       172.8790  250.7760  179.3730 C.3   165  ALA165      0.1597
    180  C        173.4280  249.8010  178.3440 C.2   165  ALA165      0.2287
    181  O        174.3530  249.0370  178.6190 O.2   165  ALA165     -0.2864
    182  CB       173.4700  252.1670  179.1440 C.3   165  ALA165      0.0319
    183  N        175.7930  248.9990  175.9320 N.3   167  VAL167     -0.1231
    184  CA       177.1010  249.6020  175.7490 C.3   167  VAL167      0.1692
    185  C        177.9510  248.8380  174.7430 C.2   167  VAL167      0.2591
    186  O        179.1640  248.9650  174.7470 O.2   167  VAL167     -0.2718
    187  CB       177.8260  249.7290  177.0960 C.3   167  VAL167      0.0266
    188  CG1      177.1230  250.7420  177.9440 C.3   167  VAL167      0.0020
    189  CG2      177.8210  248.3980  177.7830 C.3   167  VAL167      0.0020
    190  N        177.3340  248.0440  173.8820 N.am  168  LEU168     -0.1980
    191  CA       178.0460  247.3980  172.7840 C.3   168  LEU168      0.1596
    192  C        177.3610  247.7880  171.4820 C.2   168  LEU168      0.2287
    193  O        176.2810  247.2860  171.1590 O.2   168  LEU168     -0.2864
    194  CB       178.0920  245.8920  172.9700 C.3   168  LEU168      0.0297
    195  CG       178.9780  245.4610  174.1300 C.3   168  LEU168      0.0022
    196  CD1      178.8960  243.9770  174.3090 C.3   168  LEU168      0.0001
    197  CD2      180.3990  245.8730  173.8650 C.3   168  LEU168      0.0001
    198  N        184.7990  239.6730  175.4360 N.3   190  VAL190     -0.1245
    199  CA       184.8210  240.0000  176.8610 C.3   190  VAL190      0.1561
    200  C        184.3220  238.8430  177.6960 C.2   190  VAL190      0.2260
    201  O        184.7520  238.6860  178.8380 O.2   190  VAL190     -0.2867
    202  CB       184.0350  241.2730  177.2190 C.3   190  VAL190      0.0252
    203  CG1      184.7080  242.4520  176.6700 C.3   190  VAL190      0.0019
    204  CG2      182.6140  241.2030  176.7460 C.3   190  VAL190      0.0019
    205  N        186.4570  237.3830  180.7400 N.3   194  LEU194     -0.1245
    206  CA       185.9620  237.2410  182.1020 C.3   194  LEU194      0.1561
    207  C        186.0030  235.7910  182.5600 C.2   194  LEU194      0.2260
    208  O        186.1960  235.5310  183.7530 O.2   194  LEU194     -0.2867
    209  CB       184.5510  237.8060  182.2100 C.3   194  LEU194      0.0270
    210  CG       184.4670  239.3130  182.0000 C.3   194  LEU194      0.0019
    211  CD1      183.0350  239.7760  182.0360 C.3   194  LEU194      0.0001
    212  CD2      185.2960  240.0410  183.0250 C.3   194  LEU194      0.0001
@<TRIPOS>BOND
     1   193   192    2
     2   192   191    1
     3   191   194    1
     4   191   190    1
     5     7     5    1
     6   194   195    1
     7   197   195    1
     8   190   185   am
     9   195   196    1
    10     5     6    1
    11     5     2    1
    12   185   186    2
    13   185   184    1
    14   135   134    2
    15     1     2    1
    16     2     3    1
    17    14    12    1
    18   134   133    1
    19   198   199    1
    20   184   183    1
    21   184   187    1
    22   136   133    1
    23   136   137    1
    24     3     4    2
    25   133   132    1
    26    12    13    1
    27    12     9    1
    28   203   202    1
    29   204   202    1
    30   199   202    1
    31   199   200    1
    32   187   189    1
    33   187   188    1
    34     8     9    1
    35   132   126   am
    36   138   137    1
    37     9    10    1
    38   137   139    1
    39   200   201    2
    40   127   126    2
    41   126   125    1
    42   124   125    1
    43   180   181    2
    44   180   179    1
    45   119   118    2
    46   118   117    1
    47   125   128    1
    48    10    15   am
    49    10    11    2
    50   182   179    1
    51   179   178    1
    52    15    16    1
    53   104   105    1
    54    20    19    1
    55   107   106    2
    56   128   129    1
    57   117   116    1
    58   117   120    1
    59   106   116   am
    60   106   105    1
    61   122   120    1
    62   105   108    1
    63   120   121    1
    64   178   172   am
    65   205   206    1
    66    16    19    1
    67    16    17    1
    68   176   175    1
    69   176   177    1
    70   129   130    1
    71   129   131    1
    72   173   172    2
    73   172   171    1
    74   175   174    1
    75    17    18    2
    76    25    22    1
    77   108   109    1
    78   121   123    1
    79   210   211    1
    80   210   209    1
    81   210   212    1
    82   206   209    1
    83   206   207    1
    84   163   161    1
    85   140   141    1
    86   174   171    1
    87    21    22    1
    88   110   109   ar
    89   110   112   ar
    90   207   208    2
    91   171   170    1
    92   109   111   ar
    93    22    23    1
    94   112   114   ar
    95   164   162    1
    96   111   113   ar
    97   161   162    1
    98   161   158    1
    99   141   144    1
   100   141   142    1
   101   170   167   am
   102   144   145    1
   103   160   159    2
   104   143   142    2
   105   114   113   ar
   106   114   115    1
   107   157   158    1
   108   157   153   am
   109    83    82    1
   110    23    26   am
   111    23    24    2
   112   151   152    1
   113    39    41   ar
   114    39    37   ar
   115    31    30    1
   116    26    27    1
   117   152   153    1
   118   152   155    1
   119   159   158    1
   120   159   165   am
   121   167   168    2
   122   167   166    1
   123    41    40   ar
   124    30    27    1
   125   153   154    2
   126   145   146   ar
   127   145   147   ar
   128   165   166    1
   129   155   156    1
   130   166   169    1
   131    37    36    1
   132    37    38   ar
   133    27    28    1
   134    91    89    1
   135   146   148   ar
   136    36    33    1
   137    82    84    1
   138    82    81    1
   139   147   149   ar
   140    40    38   ar
   141    32    28   am
   142    32    33    1
   143    81    78    1
   144    28    29    2
   145    35    34    2
   146    88    87    2
   147    80    79    2
   148    96    95    2
   149    87    86    1
   150    48    47    2
   151    33    34    1
   152    97    98    1
   153    97    94    1
   154   148   150   ar
   155    89    90    1
   156    89    86    1
   157    90    92    1
   158   149   150   ar
   159    95    94    1
   160    98    99    1
   161    78    79    1
   162    78    77    1
   163    86    85    1
   164    47    49   am
   165    47    46    1
   166    94    93    1
   167    99   100    1
   168   100   101    2
   169    43    46    1
   170    43    44    1
   171    43    42    1
   172    67    68    1
   173    67    64    1
   174    68    69    1
   175    73    72    2
   176    45    44    2
   177    76    75    1
   178    76    70    1
   179    75    74    1
   180    64    65    1
   181    64    63    1
   182   101   102    1
   183   101   103    1
   184    70    65   am
   185    70    71    1
   186    72    71    1
   187    54    51    1
   188    65    66    2
   189    69    63    1
   190    74    71    1
   191    63    57   am
   192    53    52    2
   193    58    57    2
   194    57    56    1
   195    51    52    1
   196    51    50    1
   197    52    55   am
   198    55    56    1
   199    56    59    1
   200    59    60    1
   201    61    60    1
   202    60    62    1
