@<TRIPOS>MOLECULE
tmp/6giuB00.pdb
 160 152 0 0 0
SMALL
GASTEIGER

@<TRIPOS>ATOM
      1  N         -6.7380   46.6060  348.7820 N.3    34  LYS34      -0.1245
      2  CA        -8.0880   46.1960  349.0490 C.3    34  LYS34       0.1561
      3  C         -8.1150   44.6610  349.0040 C.2    34  LYS34       0.2260
      4  O         -7.6420   44.0570  349.9770 O.2    34  LYS34      -0.2867
      5  CB        -9.0700   46.8740  348.1080 C.3    34  LYS34       0.0271
      6  CG        -9.2010   48.3390  348.4280 C.3    34  LYS34       0.0035
      7  CD       -10.0380   49.1260  347.4060 C.3    34  LYS34       0.0206
      8  CE       -11.4940   48.7180  347.3940 C.3    34  LYS34       0.1093
      9  NZ       -12.2950   49.6130  346.5120 N.3    34  LYS34      -0.1314
     10  N         -4.9910   45.4760  343.7690 N.3    39  ASP39      -0.1225
     11  CA        -6.2800   46.1530  343.8690 C.3    39  ASP39       0.1805
     12  C         -6.0560   47.3140  344.8310 C.2    39  ASP39       0.2597
     13  O         -6.0520   47.1220  346.0590 O.2    39  ASP39      -0.2718
     14  CB        -7.3360   45.1610  344.3750 C.3    39  ASP39       0.1424
     15  CG        -8.7180   45.6990  344.6080 C.2    39  ASP39       0.3668
     16  OD1       -8.9890   46.8390  344.1930 O.co2  39  ASP39      -0.2456
     17  OD2       -9.5440   44.9800  345.2280 O.co2  39  ASP39      -0.2456
     18  N         -5.7180   48.4810  344.2720 N.am   40  LEU40      -0.1979
     19  CA        -5.2150   49.5810  345.0620 C.3    40  LEU40       0.1596
     20  C         -6.2080   50.6770  345.3530 C.2    40  LEU40       0.2287
     21  O         -7.2320   50.8410  344.6810 O.2    40  LEU40      -0.2864
     22  CB        -4.0260   50.2260  344.3130 C.3    40  LEU40       0.0297
     23  CG        -2.9540   49.2450  343.8420 C.3    40  LEU40       0.0022
     24  CD1       -1.8570   49.9420  343.0940 C.3    40  LEU40       0.0001
     25  CD2       -2.3760   48.4430  344.9980 C.3    40  LEU40       0.0001
     26  N        -18.0260   53.3670  344.8040 N.3    68  GLU68      -0.1245
     27  CA       -17.0390   52.3090  344.9160 C.3    68  GLU68       0.1567
     28  C        -16.4890   52.1210  346.3310 C.2    68  GLU68       0.2260
     29  O        -16.4170   50.9870  346.8330 O.2    68  GLU68      -0.2867
     30  CB       -15.8330   52.5940  343.9720 C.3    68  GLU68       0.0388
     31  CG       -14.7370   51.5520  344.1340 C.3    68  GLU68       0.1160
     32  CD       -13.4970   51.7150  343.3120 C.2    68  GLU68       0.3649
     33  OE1      -13.4170   52.7030  342.5520 O.co2  68  GLU68      -0.2457
     34  OE2      -12.6160   50.8350  343.4320 O.co2  68  GLU68      -0.2457
     35  N        -17.5440   56.8000  340.9640 N.3    88  ASP88      -0.1239
     36  CA       -16.1850   56.2580  341.0530 C.3    88  ASP88       0.1674
     37  C        -15.3320   57.4690  341.3190 C.2    88  ASP88       0.2266
     38  O        -15.2130   58.3260  340.4300 O.2    88  ASP88      -0.2867
     39  CB       -15.7770   55.5360  339.8040 C.3    88  ASP88       0.1410
     40  CG       -14.5000   54.7670  339.9720 C.2    88  ASP88       0.3668
     41  OD1      -13.7130   55.1250  340.8800 O.co2  88  ASP88      -0.2456
     42  OD2      -14.2650   53.8540  339.1490 O.co2  88  ASP88      -0.2456
     43  N        -12.1210   57.9460  341.8440 N.3    90  ILE90      -0.1231
     44  CA       -10.9440   57.8810  341.0190 C.3    90  ILE90       0.1692
     45  C        -11.0300   56.6160  340.2370 C.2    90  ILE90       0.2592
     46  O        -10.8310   55.5570  340.8220 O.2    90  ILE90      -0.2718
     47  CB        -9.5940   57.9540  341.7560 C.3    90  ILE90       0.0266
     48  CG1       -9.5160   59.2220  342.6290 C.3    90  ILE90       0.0019
     49  CG2       -8.4350   57.9000  340.7770 C.3    90  ILE90       0.0020
     50  CD1       -8.1880   59.3420  343.4130 C.3    90  ILE90       0.0001
     51  N        -11.2920   56.7070  338.9310 N.am   91  ASP91      -0.1960
     52  CA       -11.2290   55.5550  338.0210 C.3    91  ASP91       0.1840
     53  C         -9.8140   55.6080  337.4520 C.2    91  ASP91       0.2623
     54  O         -9.4300   56.6210  336.8420 O.2    91  ASP91      -0.2715
     55  CB       -12.2900   55.6000  336.9400 C.3    91  ASP91       0.1450
     56  CG       -12.3510   54.3030  336.1460 C.2    91  ASP91       0.3671
     57  OD1      -12.3840   53.2160  336.7670 O.co2  91  ASP91      -0.2456
     58  OD2      -12.3160   54.3770  334.9030 O.co2  91  ASP91      -0.2456
     59  N         -9.0450   54.5480  337.6460 N.am   92  GLY92      -0.1940
     60  CA        -7.6400   54.5010  337.3250 C.3    92  GLY92       0.2014
     61  C         -6.7770   54.6530  338.5650 C.2    92  GLY92       0.2640
     62  O         -5.7980   55.3950  338.5300 O.2    92  GLY92      -0.2714
     63  N         -7.0700   53.9170  339.6430 N.am   93  THR93      -0.1936
     64  CA        -6.2600   54.0000  340.8480 C.3    93  THR93       0.2028
     65  C         -4.8300   53.5260  340.6320 C.2    93  THR93       0.2642
     66  O         -3.8980   54.1100  341.1760 O.2    93  THR93      -0.2714
     67  CB        -6.9010   53.2120  341.9900 C.3    93  THR93       0.1808
     68  OG1       -7.1760   51.8850  341.5430 O.3    93  THR93      -0.2208
     69  CG2       -8.1290   53.8750  342.4960 C.3    93  THR93       0.0379
     70  N         -4.6190   52.4620  339.8450 N.am   94  THR94      -0.1950
     71  CA        -3.2310   52.0430  339.5750 C.3    94  THR94       0.1897
     72  C         -2.4880   53.1620  338.8370 C.2    94  THR94       0.2313
     73  O         -1.3490   53.5000  339.1700 O.2    94  THR94      -0.2863
     74  CB        -3.2110   50.7310  338.8390 C.3    94  THR94       0.1794
     75  OG1       -3.6910   49.7320  339.7660 O.3    94  THR94      -0.2208
     76  CG2       -1.8290   50.3400  338.3580 C.3    94  THR94       0.0378
     77  N         -8.4450   46.0970  328.7010 N.3   160  GLU160     -0.1245
     78  CA        -7.4920   46.0590  329.8080 C.3   160  GLU160      0.1567
     79  C         -7.3530   44.6480  330.2880 C.2   160  GLU160      0.2260
     80  O         -8.2690   43.8260  330.1330 O.2   160  GLU160     -0.2867
     81  CB        -7.9310   46.9710  330.9500 C.3   160  GLU160      0.0388
     82  CG        -8.0910   48.4270  330.5470 C.3   160  GLU160      0.1160
     83  CD        -6.8350   49.2050  330.2760 C.2   160  GLU160      0.3649
     84  OE1       -5.7470   48.8200  330.7660 O.co2 160  GLU160     -0.2457
     85  OE2       -6.9750   50.2700  329.6300 O.co2 160  GLU160     -0.2457
     86  N         -7.8870   43.0010  337.0180 N.3   163  SER163     -0.1217
     87  CA        -7.3340   42.9600  338.3660 C.3   163  SER163      0.1889
     88  C         -6.9680   41.5610  338.8180 C.2   163  SER163      0.2288
     89  O         -6.2870   41.4280  339.8310 O.2   163  SER163     -0.2866
     90  CB        -8.3200   43.5530  339.3630 C.3   163  SER163      0.2089
     91  OG        -8.3170   44.9580  339.1970 O.3   163  SER163     -0.2183
     92  N         -5.7600   52.3920  330.8530 N.3   192  GLY192     -0.1210
     93  CA        -5.8500   52.0420  332.2590 C.3   192  GLY192      0.1956
     94  C         -7.0260   52.5420  333.0590 C.2   192  GLY192      0.2613
     95  O         -6.9930   52.4870  334.2930 O.2   192  GLY192     -0.2717
     96  N         -8.0920   53.0160  332.4020 N.am  193  THR193     -0.1938
     97  CA        -9.3040   53.4310  333.0930 C.3   193  THR193      0.2028
     98  C        -10.4840   53.0630  332.2060 C.2   193  THR193      0.2642
     99  O        -10.4580   53.3510  330.9960 O.2   193  THR193     -0.2714
    100  CB        -9.3220   54.9120  333.5250 C.3   193  THR193      0.1808
    101  OG1      -10.5850   55.5040  333.2370 O.3   193  THR193     -0.2208
    102  CG2       -8.2290   55.7340  332.9360 C.3   193  THR193      0.0379
    103  N        -11.4930   52.4080  332.7630 N.am  194  ALA194     -0.1977
    104  CA       -12.6720   52.0190  332.0040 C.3   194  ALA194      0.1597
    105  C        -13.3780   53.2470  331.4680 C.2   194  ALA194      0.2287
    106  O        -13.7860   53.3060  330.2990 O.2   194  ALA194     -0.2864
    107  CB       -13.6260   51.2540  332.9060 C.3   194  ALA194      0.0319
    108  N        -14.6430   44.8290  328.1050 N.3   211  GLU211     -0.1245
    109  CA       -13.9760   44.3410  329.3010 C.3   211  GLU211      0.1567
    110  C        -14.9160   43.4930  330.1190 C.2   211  GLU211      0.2260
    111  O        -16.1090   43.7830  330.1900 O.2   211  GLU211     -0.2867
    112  CB       -13.4240   45.4900  330.1730 C.3   211  GLU211      0.0388
    113  CG       -12.4720   45.0070  331.2550 C.3   211  GLU211      0.1160
    114  CD       -11.6820   46.0650  331.9960 C.2   211  GLU211      0.3649
    115  OE1      -11.6290   47.2370  331.5600 O.co2 211  GLU211     -0.2457
    116  OE2      -11.1080   45.6960  333.0430 O.co2 211  GLU211     -0.2457
    117  N        -15.1260   42.2340  334.1060 N.3   213  GLY213     -0.1210
    118  CA       -14.5640   42.4810  335.4220 C.3   213  GLY213      0.1956
    119  C        -14.8370   43.8800  335.9090 C.2   213  GLY213      0.2612
    120  O        -14.6220   44.1480  337.0900 O.2   213  GLY213     -0.2717
    121  N        -15.3390   44.7580  335.0610 N.am  214  ILE214     -0.1965
    122  CA       -15.7150   46.0900  335.5010 C.3   214  ILE214      0.1727
    123  C        -16.8250   46.0160  336.5380 C.2   214  ILE214      0.2616
    124  O        -17.4750   44.9560  336.7150 O.2   214  ILE214     -0.2715
    125  CB       -16.1170   47.0070  334.3170 C.3   214  ILE214      0.0290
    126  CG1      -17.2330   46.4620  333.4020 C.3   214  ILE214      0.0022
    127  CG2      -14.8690   47.3410  333.4700 C.3   214  ILE214      0.0023
    128  CD1      -18.6720   46.6110  333.9180 C.3   214  ILE214      0.0001
    129  N        -17.0520   47.1500  337.2190 N.am  215  HIS215     -0.1973
    130  CA       -18.1700   47.2840  338.1540 C.3   215  HIS215      0.1656
    131  C        -19.1130   48.3630  337.6500 C.2   215  HIS215      0.2291
    132  O        -18.8020   49.1050  336.7110 O.2   215  HIS215     -0.2864
    133  CB       -17.6630   47.6090  339.5660 C.3   215  HIS215      0.0771
    134  CG       -16.8600   46.4930  340.1390 C.ar  215  HIS215      0.0820
    135  ND1      -17.4600   45.4280  340.7990 N.ar  215  HIS215     -0.2267
    136  CD2      -15.5230   46.2920  340.1500 C.ar  215  HIS215      0.1154
    137  CE1      -16.4850   44.5890  341.1200 C.ar  215  HIS215      0.1986
    138  NE2      -15.2960   45.0640  340.7690 N.ar  215  HIS215     -0.2212
    139  N        -20.0490   51.1880  338.7350 N.3   217  TRP217     -0.1227
    140  CA       -19.5390   52.5600  338.8210 C.3   217  TRP217      0.1737
    141  C        -18.4490   52.8510  337.7830 C.2   217  TRP217      0.2595
    142  O        -18.1420   54.0300  337.5590 O.2   217  TRP217     -0.2718
    143  CB       -19.0280   52.8500  340.2210 C.3   217  TRP217      0.0564
    144  CG       -18.0050   51.8650  340.6850 C.ar  217  TRP217      0.0003
    145  CD1      -16.6890   51.8190  340.3460 C.ar  217  TRP217      0.0946
    146  CD2      -18.2140   50.7980  341.6180 C.ar  217  TRP217      0.0152
    147  NE1      -16.0790   50.7450  340.9460 N.ar  217  TRP217     -0.2442
    148  CE2      -16.9890   50.1120  341.7560 C.ar  217  TRP217      0.0810
    149  CE3      -19.3310   50.3390  342.3350 C.ar  217  TRP217      0.0012
    150  CZ2      -16.8500   48.9810  342.5710 C.ar  217  TRP217      0.0191
    151  CZ3      -19.1950   49.1970  343.1110 C.ar  217  TRP217      0.0001
    152  CH2      -17.9640   48.5480  343.2440 C.ar  217  TRP217      0.0015
    153  N        -17.8770   51.8200  337.1450 N.am  218  ASP218     -0.1974
    154  CA       -16.8920   52.0100  336.0880 C.3   218  ASP218      0.1709
    155  C        -17.5380   52.4350  334.8010 C.2   218  ASP218      0.2293
    156  O        -16.9020   53.1290  334.0120 O.2   218  ASP218     -0.2864
    157  CB       -16.1430   50.6850  335.8390 C.3   218  ASP218      0.1436
    158  CG       -15.2030   50.3810  336.9770 C.2   218  ASP218      0.3671
    159  OD1      -14.6430   51.3390  337.5310 O.co2 218  ASP218     -0.2456
    160  OD2      -15.0360   49.1730  337.3410 O.co2 218  ASP218     -0.2456
@<TRIPOS>BOND
     1   108   109    1
     2    77    78    1
     3   109   110    1
     4   109   112    1
     5    85    83   ar
     6    78    79    1
     7    78    81    1
     8   110   111    2
     9    80    79    2
    10   112   113    1
    11    83    82    1
    12    83    84   ar
    13   106   105    2
    14    82    81    1
    15    92    93    1
    16    99    98    2
    17   113   114    1
    18   105   104    1
    19   115   114   ar
    20   114   116   ar
    21   104   103    1
    22   104   107    1
    23    98   103   am
    24    98    97    1
    25    93    94    1
    26    96    94   am
    27    96    97    1
    28   102   100    1
    29    94    95    2
    30    97   100    1
    31   101   100    1
    32   126   128    1
    33   126   125    1
    34   127   125    1
    35   156   155    2
    36   117   118    1
    37   125   122    1
    38   155   154    1
    39    58    56   ar
    40   121   122    1
    41   121   119   am
    42   118   119    1
    43   122   123    1
    44   157   154    1
    45   157   158    1
    46   119   120    2
    47   154   153    1
    48    56    57   ar
    49    56    55    1
    50   123   124    2
    51   123   129   am
    52   132   131    2
    53    54    53    2
    54    55    52    1
    55   158   160   ar
    56   158   159   ar
    57    86    87    1
    58   153   141   am
    59   129   130    1
    60    60    59    1
    61    60    61    1
    62    53    59   am
    63    53    52    1
    64   142   141    2
    65   131   130    1
    66   141   140    1
    67    52    51    1
    68   130   133    1
    69    76    74    1
    70    87    88    1
    71    87    90    1
    72    62    61    2
    73    61    63   am
    74   139   140    1
    75    88    89    2
    76   140   143    1
    77    72    73    2
    78    72    71    1
    79    74    71    1
    80    74    75    1
    81    51    45   am
    82    42    40   ar
    83    91    90    1
    84   133   134    1
    85    71    70    1
    86    63    64    1
    87    39    40    1
    88    39    36    1
    89    70    65   am
    90    40    41   ar
    91   134   136   ar
    92   134   135   ar
    93   136   138   ar
    94   143   144    1
    95    45    46    2
    96    45    44    1
    97   145   144   ar
    98   145   147   ar
    99    38    37    2
   100    65    64    1
   101    65    66    2
   102   144   146   ar
   103   138   137   ar
   104    49    47    1
   105   135   137   ar
   106    64    67    1
   107   147   148   ar
   108    35    36    1
   109    44    47    1
   110    44    43    1
   111    36    37    1
   112    68    67    1
   113   146   148   ar
   114   146   149   ar
   115   148   150   ar
   116    47    48    1
   117    67    69    1
   118   149   151   ar
   119    33    32   ar
   120   150   152   ar
   121    48    50    1
   122    24    23    1
   123   151   152   ar
   124    32    34   ar
   125    32    31    1
   126    10    11    1
   127    23    22    1
   128    23    25    1
   129    11    14    1
   130    11    12    1
   131    30    31    1
   132    30    27    1
   133    16    15   ar
   134    18    12   am
   135    18    19    1
   136    22    19    1
   137    14    15    1
   138    15    17   ar
   139    21    20    2
   140    26    27    1
   141    12    13    2
   142    27    28    1
   143    19    20    1
   144    28    29    2
   145     9     8    1
   146     8     7    1
   147     7     6    1
   148     5     6    1
   149     5     2    1
   150     1     2    1
   151     3     2    1
   152     3     4    2
