@<TRIPOS>MOLECULE
tmp/6gj0B00.pdb
 147 140 0 0 0
SMALL
GASTEIGER

@<TRIPOS>ATOM
      1  N         44.7350   29.8820  193.6180 N.3    38  VAL38      -0.1231
      2  CA        44.8080   28.9740  192.4750 C.3    38  VAL38       0.1692
      3  C         46.1090   28.1800  192.4500 C.2    38  VAL38       0.2592
      4  O         46.3630   27.4260  191.5140 O.2    38  VAL38      -0.2718
      5  CB        44.6370   29.7250  191.1350 C.3    38  VAL38       0.0266
      6  CG1       43.2590   30.3730  191.0830 C.3    38  VAL38       0.0020
      7  CG2       45.7380   30.7600  190.9390 C.3    38  VAL38       0.0020
      8  N         46.9280   28.3430  193.4830 N.am   39  ASP39      -0.1960
      9  CA        48.2050   27.6390  193.5670 C.3    39  ASP39       0.1840
     10  C         48.0360   26.5190  194.5940 C.2    39  ASP39       0.2621
     11  O         48.1380   26.7500  195.8030 O.2    39  ASP39      -0.2715
     12  CB        49.3260   28.6100  193.9500 C.3    39  ASP39       0.1450
     13  CG        50.6880   27.9410  194.0830 C.2    39  ASP39       0.3671
     14  OD1       50.8720   26.8090  193.5870 O.co2  39  ASP39      -0.2456
     15  OD2       51.5920   28.5710  194.6840 O.co2  39  ASP39      -0.2456
     16  N         47.7720   25.3120  194.1010 N.am   40  LEU40      -0.1977
     17  CA        47.2730   24.2140  194.9360 C.3    40  LEU40       0.1596
     18  C         48.3290   23.2050  195.3600 C.2    40  LEU40       0.2287
     19  O         49.3590   23.0530  194.7140 O.2    40  LEU40      -0.2864
     20  CB        46.1680   23.4590  194.1870 C.3    40  LEU40       0.0297
     21  CG        45.0940   24.3230  193.5300 C.3    40  LEU40       0.0022
     22  CD1       44.0440   23.4410  192.8450 C.3    40  LEU40       0.0001
     23  CD2       44.4320   25.2550  194.5520 C.3    40  LEU40       0.0001
     24  N         51.0900   15.3810  196.9140 N.3    45  ASP45      -0.1239
     25  CA        52.2840   16.0760  196.4130 C.3    45  ASP45       0.1674
     26  C         53.4290   15.9210  197.4230 C.2    45  ASP45       0.2266
     27  O         54.5600   15.5610  197.0830 O.2    45  ASP45      -0.2867
     28  CB        52.0250   17.5800  196.1950 C.3    45  ASP45       0.1410
     29  CG        50.9750   17.8700  195.1350 C.2    45  ASP45       0.3668
     30  OD1       49.7680   17.7430  195.4320 O.co2  45  ASP45      -0.2456
     31  OD2       51.3650   18.2740  194.0040 O.co2  45  ASP45      -0.2456
     32  N         60.1100   20.7620  194.5230 N.3    68  GLU68      -0.1231
     33  CA        59.0830   21.8000  194.6450 C.3    68  GLU68       0.1699
     34  C         58.5270   21.9930  196.0510 C.2    68  GLU68       0.2592
     35  O         58.4810   23.1190  196.5560 O.2    68  GLU68      -0.2718
     36  CB        57.8980   21.5170  193.7140 C.3    68  GLU68       0.0402
     37  CG        56.8060   22.5630  193.8440 C.3    68  GLU68       0.1161
     38  CD        55.5990   22.2570  192.9830 C.2    68  GLU68       0.3649
     39  OE1       55.6400   21.2300  192.2800 O.co2  68  GLU68      -0.2457
     40  OE2       54.6190   23.0320  193.0230 O.co2  68  GLU68      -0.2457
     41  N         58.0540   20.9240  196.6810 N.am   69  GLU69      -0.1979
     42  CA        57.3790   21.1430  197.9530 C.3    69  GLU69       0.1602
     43  C         58.3990   21.3690  199.0790 C.2    69  GLU69       0.2287
     44  O         58.0700   21.9590  200.1120 O.2    69  GLU69      -0.2864
     45  CB        56.4230   19.9840  198.2740 C.3    69  GLU69       0.0415
     46  CG        55.4480   19.6380  197.1100 C.3    69  GLU69       0.1163
     47  CD        54.6170   20.8320  196.6130 C.2    69  GLU69       0.3649
     48  OE1       54.5550   21.8820  197.2940 O.co2  69  GLU69      -0.2457
     49  OE2       54.0100   20.7120  195.5250 O.co2  69  GLU69      -0.2457
     50  N         59.8040   17.2730  190.6410 N.3    88  ASP88      -0.1239
     51  CA        58.4250   17.7300  190.7580 C.3    88  ASP88       0.1674
     52  C         57.5620   16.5040  191.0400 C.2    88  ASP88       0.2266
     53  O         57.3110   15.7120  190.1320 O.2    88  ASP88      -0.2867
     54  CB        57.9860   18.4450  189.4720 C.3    88  ASP88       0.1410
     55  CG        56.6960   19.2220  189.6350 C.2    88  ASP88       0.3668
     56  OD1       55.9050   18.9350  190.5660 O.co2  88  ASP88      -0.2456
     57  OD2       56.4660   20.1180  188.7960 O.co2  88  ASP88      -0.2456
     58  N         54.3880   15.9860  191.7440 N.3    90  ILE90      -0.1231
     59  CA        53.2190   15.9840  190.8750 C.3    90  ILE90       0.1692
     60  C         53.2680   17.2480  190.0380 C.2    90  ILE90       0.2592
     61  O         52.9810   18.3250  190.5420 O.2    90  ILE90      -0.2718
     62  CB        51.8870   15.9390  191.6560 C.3    90  ILE90       0.0266
     63  CG1       51.8180   14.6800  192.5360 C.3    90  ILE90       0.0019
     64  CG2       50.7020   15.9850  190.6860 C.3    90  ILE90       0.0020
     65  CD1       50.5410   14.6030  193.3970 C.3    90  ILE90       0.0001
     66  N         53.6470   17.1170  188.7700 N.am   91  ASP91      -0.1960
     67  CA        53.4990   18.2390  187.8620 C.3    91  ASP91       0.1840
     68  C         52.1080   18.1420  187.2520 C.2    91  ASP91       0.2623
     69  O         51.7740   17.1640  186.6050 O.2    91  ASP91      -0.2715
     70  CB        54.5730   18.2330  186.7890 C.3    91  ASP91       0.1450
     71  CG        54.5320   19.4790  185.9480 C.2    91  ASP91       0.3671
     72  OD1       54.3220   20.5640  186.5210 O.co2  91  ASP91      -0.2456
     73  OD2       54.6600   19.3700  184.7150 O.co2  91  ASP91      -0.2456
     74  N         51.2640   19.1250  187.5040 N.am   92  GLY92      -0.1940
     75  CA        49.8770   18.9210  187.1580 C.3    92  GLY92       0.2014
     76  C         48.9490   18.8120  188.3520 C.2    92  GLY92       0.2640
     77  O         47.9660   18.0890  188.2900 O.2    92  GLY92      -0.2714
     78  N         49.2500   19.5080  189.4460 N.am   93  THR93      -0.1936
     79  CA        48.4120   19.3900  190.6490 C.3    93  THR93       0.2028
     80  C         46.9750   19.8480  190.4240 C.2    93  THR93       0.2643
     81  O         46.0430   19.2160  190.8980 O.2    93  THR93      -0.2714
     82  CB        49.0190   20.1810  191.8390 C.3    93  THR93       0.1808
     83  OG1       50.3530   19.7180  192.0530 O.3    93  THR93      -0.2208
     84  CG2       48.1990   19.9480  193.1210 C.3    93  THR93       0.0379
     85  N         46.7830   20.9500  189.7100 N.am   94  THR94      -0.1936
     86  CA        45.4270   21.3810  189.4250 C.3    94  THR94       0.2028
     87  C         44.6840   20.3050  188.6180 C.2    94  THR94       0.2642
     88  O         43.5470   19.9700  188.9220 O.2    94  THR94      -0.2714
     89  CB        45.4210   22.7140  188.6870 C.3    94  THR94       0.1808
     90  OG1       45.9670   23.7270  189.5510 O.3    94  THR94      -0.2208
     91  CG2       44.0180   23.0910  188.2550 C.3    94  THR94       0.0379
     92  N         45.3470   19.7460  187.6160 N.am   95  ASN95      -0.1971
     93  CA        44.8010   18.5890  186.9020 C.3    95  ASN95       0.1688
     94  C         44.4500   17.4550  187.8560 C.2    95  ASN95       0.2292
     95  O         43.3610   16.8920  187.8090 O.2    95  ASN95      -0.2864
     96  CB        45.8120   18.0840  185.8620 C.3    95  ASN95       0.1181
     97  CG        45.8220   18.9350  184.5960 C.2    95  ASN95       0.2629
     98  OD1       45.1050   19.9320  184.4980 O.2    95  ASN95      -0.2716
     99  ND2       46.6460   18.5410  183.6150 N.am   95  ASN95      -0.0877
    100  N         51.0990   27.0110  178.6330 N.3   160  GLU160     -0.1245
    101  CA        50.1260   27.0980  179.7320 C.3   160  GLU160      0.1567
    102  C         49.9330   28.5590  180.1100 C.2   160  GLU160      0.2260
    103  O         50.8060   29.3910  179.8570 O.2   160  GLU160     -0.2867
    104  CB        50.5820   26.3010  180.9570 C.3   160  GLU160      0.0388
    105  CG        50.6850   24.7960  180.7260 C.3   160  GLU160      0.1160
    106  CD        49.3520   24.1440  180.3930 C.2   160  GLU160      0.3649
    107  OE1       48.2950   24.5670  180.9330 O.co2 160  GLU160     -0.2457
    108  OE2       49.3600   23.1800  179.6000 O.co2 160  GLU160     -0.2457
    109  N         50.2520   30.5170  186.7640 N.3   163  SER163     -0.1217
    110  CA        49.5710   30.5650  188.0530 C.3   163  SER163      0.1889
    111  C         49.1990   31.9880  188.4740 C.2   163  SER163      0.2288
    112  O         48.3660   32.1730  189.3540 O.2   163  SER163     -0.2866
    113  CB        50.4250   29.9010  189.1450 C.3   163  SER163      0.2089
    114  OG        51.7430   30.4050  189.1460 O.3   163  SER163     -0.2183
    115  N         47.9130   21.0650  180.5940 N.3   192  GLY192     -0.1210
    116  CA        47.9180   21.4420  182.0050 C.3   192  GLY192      0.1956
    117  C         49.1540   21.0520  182.7910 C.2   192  GLY192      0.2612
    118  O         49.1880   21.1330  184.0040 O.2   192  GLY192     -0.2717
    119  N         50.1810   20.6060  182.0940 N.am  193  THR193     -0.1952
    120  CA        51.4600   20.2740  182.7110 C.3   193  THR193      0.1897
    121  C         52.6300   20.5140  181.7640 C.2   193  THR193      0.2313
    122  O         52.6270   20.0510  180.6290 O.2   193  THR193     -0.2863
    123  CB        51.4780   18.7930  183.2620 C.3   193  THR193      0.1794
    124  OG1       52.8210   18.2730  183.2330 O.3   193  THR193     -0.2208
    125  CG2       50.4690   17.8500  182.6010 C.3   193  THR193      0.0378
    126  N         62.1640   22.5650  188.4070 N.3   217  TRP217     -0.1227
    127  CA        61.6380   21.2140  188.5580 C.3   217  TRP217      0.1737
    128  C         60.5530   20.8760  187.5390 C.2   217  TRP217      0.2595
    129  O         60.2410   19.6990  187.3430 O.2   217  TRP217     -0.2718
    130  CB        61.0940   20.9940  189.9650 C.3   217  TRP217      0.0564
    131  CG        60.1620   22.0530  190.4270 C.ar  217  TRP217      0.0003
    132  CD1       58.8400   22.1830  190.1060 C.ar  217  TRP217      0.0946
    133  CD2       60.4650   23.1300  191.3240 C.ar  217  TRP217      0.0152
    134  NE1       58.3070   23.2880  190.7340 N.ar  217  TRP217     -0.2442
    135  CE2       59.2820   23.8780  191.4960 C.ar  217  TRP217      0.0810
    136  CE3       61.6190   23.5220  192.0130 C.ar  217  TRP217      0.0012
    137  CZ2       59.2190   25.0090  192.3150 C.ar  217  TRP217      0.0191
    138  CZ3       61.5570   24.6500  192.8260 C.ar  217  TRP217      0.0001
    139  CH2       60.3650   25.3770  192.9690 C.ar  217  TRP217      0.0015
    140  N         59.9800   21.8920  186.8960 N.am  218  ASP218     -0.1974
    141  CA        58.9980   21.6500  185.8340 C.3   218  ASP218      0.1709
    142  C         59.6550   21.1040  184.5950 C.2   218  ASP218      0.2293
    143  O         59.0360   20.3570  183.8290 O.2   218  ASP218     -0.2864
    144  CB        58.2640   22.9280  185.4370 C.3   218  ASP218      0.1436
    145  CG        57.3260   23.4190  186.5170 C.2   218  ASP218      0.3671
    146  OD1       56.6290   22.5840  187.1270 O.co2 218  ASP218     -0.2456
    147  OD2       57.2860   24.6410  186.7420 O.co2 218  ASP218     -0.2456
@<TRIPOS>BOND
     1   100   101    1
     2   108   106   ar
     3   101   102    1
     4   101   104    1
     5   103   102    2
     6   106   105    1
     7   106   107   ar
     8   115   116    1
     9   122   121    2
    10   105   104    1
    11   121   120    1
    12   116   117    1
    13   119   120    1
    14   119   117   am
    15   125   123    1
    16   120   123    1
    17   117   118    2
    18   124   123    1
    19    99    97   am
    20   143   142    2
    21    98    97    2
    22   142   141    1
    23    97    96    1
    24    73    71   ar
    25   144   141    1
    26   144   145    1
    27   141   140    1
    28    96    93    1
    29    71    72   ar
    30    71    70    1
    31   145   147   ar
    32   145   146   ar
    33    69    68    2
    34   109   110    1
    35    70    67    1
    36   140   128   am
    37    93    92    1
    38    93    94    1
    39    75    74    1
    40    75    76    1
    41    68    74   am
    42    68    67    1
    43   129   128    2
    44   128   127    1
    45    92    87   am
    46    95    94    2
    47    67    66    1
    48   110   111    1
    49   110   113    1
    50    91    89    1
    51    77    76    2
    52    76    78   am
    53   126   127    1
    54   111   112    2
    55   127   130    1
    56    87    88    2
    57    87    86    1
    58    89    86    1
    59    89    90    1
    60    66    60   am
    61    57    55   ar
    62   113   114    1
    63    86    85    1
    64    78    79    1
    65    54    55    1
    66    54    51    1
    67    55    56   ar
    68    85    80   am
    69   130   131    1
    70    60    61    2
    71    60    59    1
    72   132   131   ar
    73   132   134   ar
    74    53    52    2
    75    80    79    1
    76    80    81    2
    77   131   133   ar
    78    50    51    1
    79    79    82    1
    80    64    62    1
    81   134   135   ar
    82    51    52    1
    83    59    62    1
    84    59    58    1
    85     7     5    1
    86     6     5    1
    87     5     2    1
    88   133   135   ar
    89   133   136   ar
    90   135   137   ar
    91     4     3    2
    92    62    63    1
    93    82    83    1
    94    82    84    1
    95   136   138   ar
    96    39    38   ar
    97   137   139   ar
    98     3     2    1
    99     3     8   am
   100     2     1    1
   101    63    65    1
   102   138   139   ar
   103    22    21    1
   104    38    40   ar
   105    38    37    1
   106     8     9    1
   107    21    20    1
   108    21    23    1
   109     9    12    1
   110     9    10    1
   111    14    13   ar
   112    36    37    1
   113    36    33    1
   114    12    13    1
   115    31    29   ar
   116    13    15   ar
   117    16    10   am
   118    16    17    1
   119    20    17    1
   120    32    33    1
   121    10    11    2
   122    33    34    1
   123    19    18    2
   124    17    18    1
   125    29    30   ar
   126    29    28    1
   127    49    47   ar
   128    34    35    2
   129    34    41   am
   130    28    25    1
   131    25    24    1
   132    25    26    1
   133    47    46    1
   134    47    48   ar
   135    41    42    1
   136    27    26    2
   137    46    45    1
   138    42    45    1
   139    42    43    1
   140    43    44    2
