@<TRIPOS>MOLECULE
tmp/6gj4D01.pdb
 177 167 0 0 0
SMALL
GASTEIGER

@<TRIPOS>ATOM
      1  N         19.3370   -2.6960  -28.4550 N.3   200  TYR200     -0.1241
      2  CA        17.9850   -3.2210  -28.5940 C.3   200  TYR200      0.1605
      3  C         18.0550   -4.6360  -29.1560 C.2   200  TYR200      0.2264
      4  O         18.6670   -4.8640  -30.2050 O.2   200  TYR200     -0.2867
      5  CB        17.1520   -2.3290  -29.5130 C.3   200  TYR200      0.0534
      6  CG        16.8700   -0.9570  -28.9560 C.ar  200  TYR200     -0.0201
      7  CD1       15.8180   -0.7500  -28.0770 C.ar  200  TYR200     -0.0009
      8  CD2       17.6370    0.1380  -29.3260 C.ar  200  TYR200     -0.0009
      9  CE1       15.5480    0.5080  -27.5700 C.ar  200  TYR200      0.0417
     10  CE2       17.3760    1.3960  -28.8260 C.ar  200  TYR200      0.0417
     11  CZ        16.3320    1.5750  -27.9480 C.ar  200  TYR200      0.1957
     12  OH        16.0750    2.8280  -27.4550 O.3   200  TYR200     -0.2866
     13  N          9.2430    3.5520  -32.9520 N.3   235  GLY235     -0.1210
     14  CA         8.7470    3.8180  -31.6100 C.3   235  GLY235      0.1956
     15  C          9.8420    4.2420  -30.6480 C.2   235  GLY235      0.2611
     16  O          9.7050    5.2400  -29.9350 O.2   235  GLY235     -0.2717
     17  N         10.9490    3.4920  -30.6160 N.am  236  VAL236     -0.1979
     18  CA        12.0080    3.7650  -29.6460 C.3   236  VAL236      0.1595
     19  C         12.8560    4.9750  -30.0030 C.2   236  VAL236      0.2287
     20  O         13.7200    5.3620  -29.2060 O.2   236  VAL236     -0.2864
     21  CB        12.9430    2.5540  -29.4710 C.3   236  VAL236      0.0276
     22  CG1       12.1370    1.3010  -29.1690 C.3   236  VAL236      0.0022
     23  CG2       13.7990    2.3620  -30.7130 C.3   236  VAL236      0.0022
     24  N         11.0180    9.7720  -29.2140 N.3   239  CYS239     -0.1221
     25  CA        11.4050   10.8360  -28.2950 C.3   239  CYS239      0.1808
     26  C         12.7370   11.4780  -28.6510 C.2   239  CYS239      0.2601
     27  O         13.0600   12.5330  -28.0960 O.2   239  CYS239     -0.2717
     28  CB        11.4430   10.3020  -26.8680 C.3   239  CYS239      0.0970
     29  SG         9.8100    9.8170  -26.2900 S.3   239  CYS239     -0.0800
     30  N         13.5050   10.8820  -29.5630 N.am  240  LEU240     -0.1979
     31  CA        14.7230   11.5210  -30.0350 C.3   240  LEU240      0.1596
     32  C         14.4440   12.5960  -31.0810 C.2   240  LEU240      0.2287
     33  O         15.2490   13.5200  -31.2400 O.2   240  LEU240     -0.2864
     34  CB        15.6710   10.4670  -30.6150 C.3   240  LEU240      0.0297
     35  CG        16.1450    9.3580  -29.6750 C.3   240  LEU240      0.0022
     36  CD1       16.8870    8.2850  -30.4550 C.3   240  LEU240      0.0001
     37  CD2       17.0260    9.9390  -28.5760 C.3   240  LEU240      0.0001
     38  N          9.6030   16.6600  -25.9400 N.3   245  GLN245     -0.1231
     39  CA         9.9750   15.3540  -25.4200 C.3   245  GLN245      0.1698
     40  C         11.1190   15.4560  -24.4150 C.2   245  GLN245      0.2592
     41  O         11.8760   14.5060  -24.2240 O.2   245  GLN245     -0.2718
     42  CB        10.3190   14.4030  -26.5690 C.3   245  GLN245      0.0381
     43  CG         9.1140   14.0160  -27.4410 C.3   245  GLN245      0.0905
     44  CD         7.9980   13.3500  -26.6470 C.2   245  GLN245      0.2608
     45  OE1        8.2570   12.5290  -25.7710 O.2   245  GLN245     -0.2717
     46  NE2        6.7510   13.7080  -26.9480 N.am  245  GLN245     -0.0878
     47  N         11.2540   16.6030  -23.7540 N.am  246  LEU246     -0.1980
     48  CA        12.2130   16.7490  -22.6600 C.3   246  LEU246      0.1596
     49  C         13.6470   16.7310  -23.1680 C.2   246  LEU246      0.2287
     50  O         14.5710   16.3840  -22.4320 O.2   246  LEU246     -0.2864
     51  CB        12.0180   15.6590  -21.6050 C.3   246  LEU246      0.0297
     52  CG        10.8550   15.8200  -20.6230 C.3   246  LEU246      0.0022
     53  CD1        9.5460   16.0530  -21.3580 C.3   246  LEU246      0.0001
     54  CD2       10.7460   14.6170  -19.6920 C.3   246  LEU246      0.0001
     55  N         15.0290   14.6630  -24.9970 N.3   248  ALA248     -0.1231
     56  CA        15.5510   13.3160  -24.8220 C.3   248  ALA248      0.1694
     57  C         16.6500   13.0410  -25.8330 C.2   248  ALA248      0.2592
     58  O         16.5410   13.4090  -27.0060 O.2   248  ALA248     -0.2718
     59  CB        14.4380   12.2820  -24.9720 C.3   248  ALA248      0.0304
     60  N         17.7110   12.3780  -25.3730 N.am  249  ASP249     -0.1974
     61  CA        18.8380   12.0210  -26.2240 C.3   249  ASP249      0.1709
     62  C         19.3710   10.6540  -25.8080 C.2   249  ASP249      0.2293
     63  O         18.9290   10.0620  -24.8210 O.2   249  ASP249     -0.2864
     64  CB        19.9420   13.0830  -26.1670 C.3   249  ASP249      0.1436
     65  CG        20.4000   13.3770  -24.7470 C.2   249  ASP249      0.3671
     66  OD1       20.4500   12.4390  -23.9210 O.co2 249  ASP249     -0.2456
     67  OD2       20.7280   14.5510  -24.4630 O.co2 249  ASP249     -0.2456
     68  N         20.8360   10.4340  -21.9570 N.3   252  LYS252     -0.1231
     69  CA        19.8760   10.3960  -20.8600 C.3   252  LYS252      0.1693
     70  C         19.0820    9.0980  -20.8530 C.2   252  LYS252      0.2591
     71  O         18.5740    8.6970  -19.8000 O.2   252  LYS252     -0.2718
     72  CB        18.9370   11.6020  -20.9170 C.3   252  LYS252      0.0285
     73  CG        19.5610   12.8970  -20.4060 C.3   252  LYS252      0.0035
     74  CD        18.5050   13.9670  -20.1620 C.3   252  LYS252      0.0206
     75  CE        17.8060   14.3790  -21.4510 C.3   252  LYS252      0.1093
     76  NZ        18.6820   15.1800  -22.3660 N.3   252  LYS252     -0.1314
     77  N         18.9630    8.4310  -22.0030 N.am  253  LEU253     -0.1980
     78  CA        18.3460    7.1090  -22.0230 C.3   253  LEU253      0.1596
     79  C         19.2530    6.0710  -21.3730 C.2   253  LEU253      0.2287
     80  O         18.7860    5.2170  -20.6100 O.2   253  LEU253     -0.2864
     81  CB        18.0120    6.7130  -23.4620 C.3   253  LEU253      0.0297
     82  CG        17.4820    5.2980  -23.6900 C.3   253  LEU253      0.0022
     83  CD1       16.0880    5.1230  -23.0860 C.3   253  LEU253      0.0001
     84  CD2       17.4890    4.9530  -25.1780 C.3   253  LEU253      0.0001
     85  N         19.4330    6.6020  -17.4460 N.3   256  ASN256     -0.1225
     86  CA        18.2510    6.1970  -16.7020 C.3   256  ASN256      0.1785
     87  C         17.8640    4.7450  -16.9290 C.2   256  ASN256      0.2597
     88  O         17.0760    4.2000  -16.1510 O.2   256  ASN256     -0.2718
     89  CB        17.0700    7.1040  -17.0620 C.3   256  ASN256      0.1169
     90  CG        17.1970    8.4970  -16.4550 C.2   256  ASN256      0.2627
     91  OD1       16.9030    8.6950  -15.2770 O.2   256  ASN256     -0.2716
     92  ND2       17.6410    9.4640  -17.2540 N.am  256  ASN256     -0.0877
     93  N         18.4020    4.1020  -17.9620 N.am  257  MET257     -0.1979
     94  CA        18.0390    2.7240  -18.2630 C.3   257  MET257      0.1605
     95  C         19.0780    1.7120  -17.8080 C.2   257  MET257      0.2287
     96  O         18.7260    0.5520  -17.5690 O.2   257  MET257     -0.2864
     97  CB        17.7960    2.5550  -19.7680 C.3   257  MET257      0.0413
     98  CG        16.5000    3.1910  -20.2630 C.3   257  MET257      0.0598
     99  SD        15.0330    2.4710  -19.5030 S.3   257  MET257     -0.1393
    100  CE        14.9990    0.8450  -20.2320 C.3   257  MET257      0.0692
    101  N         14.5830   -1.4880  -15.1570 N.3   303  THR303     -0.1203
    102  CA        14.1070   -0.1970  -15.6220 C.3   303  THR303      0.1994
    103  C         13.1830   -0.4160  -16.8080 C.2   303  THR303      0.2618
    104  O         13.2540   -1.4350  -17.5000 O.2   303  THR303     -0.2717
    105  CB        15.2570    0.7180  -16.0360 C.3   303  THR303      0.1784
    106  OG1       16.1030    0.0140  -16.9540 O.3   303  THR303     -0.2211
    107  CG2       16.0610    1.1540  -14.8170 C.3   303  THR303      0.0376
    108  N         12.3200    0.5650  -17.0410 N.am  304  VAL304     -0.1965
    109  CA        11.3720    0.5180  -18.1460 C.3   304  VAL304      0.1727
    110  C         11.1780    1.9290  -18.6750 C.2   304  VAL304      0.2616
    111  O         11.1180    2.8940  -17.9070 O.2   304  VAL304     -0.2715
    112  CB        10.0210   -0.0940  -17.7180 C.3   304  VAL304      0.0290
    113  CG1        9.0300   -0.0230  -18.8720 C.3   304  VAL304      0.0023
    114  CG2       10.2000   -1.5250  -17.2450 C.3   304  VAL304      0.0023
    115  N         11.0730    2.0420  -19.9930 N.am  305  ALA305     -0.1963
    116  CA        10.6720    3.2810  -20.6410 C.3   305  ALA305      0.1728
    117  C          9.5480    2.9560  -21.6120 C.2   305  ALA305      0.2616
    118  O          9.6320    1.9750  -22.3590 O.2   305  ALA305     -0.2715
    119  CB        11.8510    3.9480  -21.3660 C.3   305  ALA305      0.0334
    120  N          8.4950    3.7610  -21.5860 N.am  306  ALA306     -0.1963
    121  CA         7.3350    3.5650  -22.4420 C.3   306  ALA306      0.1728
    122  C          7.0520    4.8530  -23.2000 C.2   306  ALA306      0.2616
    123  O          7.2510    5.9500  -22.6710 O.2   306  ALA306     -0.2715
    124  CB         6.1090    3.1440  -21.6200 C.3   306  ALA306      0.0334
    125  N          6.5890    4.7200  -24.4380 N.am  307  ILE307     -0.1977
    126  CA         6.2230    5.8660  -25.2640 C.3   307  ILE307      0.1596
    127  C          4.8450    5.5950  -25.8580 C.2   307  ILE307      0.2287
    128  O          4.6800    4.6680  -26.6610 O.2   307  ILE307     -0.2864
    129  CB         7.2580    6.1510  -26.3660 C.3   307  ILE307      0.0276
    130  CG1        6.6450    7.0080  -27.4780 C.3   307  ILE307      0.0022
    131  CG2        7.8340    4.8570  -26.9290 C.3   307  ILE307      0.0022
    132  CD1        6.1460    8.3510  -27.0150 C.3   307  ILE307      0.0001
    133  N         10.9090    4.1550   -8.5700 N.3   338  ASN338     -0.1225
    134  CA        10.4070    4.9450   -9.6940 C.3   338  ASN338      0.1785
    135  C         11.1700    4.6360  -10.9830 C.2   338  ASN338      0.2597
    136  O         11.6330    5.5310  -11.6940 O.2   338  ASN338     -0.2718
    137  CB        10.4670    6.4370   -9.3640 C.3   338  ASN338      0.1169
    138  CG         9.9000    6.7530   -7.9930 C.2   338  ASN338      0.2627
    139  OD1        8.6920    6.9170   -7.8350 O.2   338  ASN338     -0.2716
    140  ND2       10.7740    6.8460   -6.9920 N.am  338  ASN338     -0.0877
    141  N         11.3000    3.3470  -11.2890 N.am  339  ASN339     -0.1974
    142  CA        12.1370    2.9070  -12.3980 C.3   339  ASN339      0.1688
    143  C         11.3640    2.7430  -13.7030 C.2   339  ASN339      0.2292
    144  O         11.8660    2.0990  -14.6320 O.2   339  ASN339     -0.2864
    145  CB        12.8430    1.5970  -12.0430 C.3   339  ASN339      0.1181
    146  CG        11.8740    0.5160  -11.6310 C.2   339  ASN339      0.2629
    147  OD1       10.7190    0.7980  -11.3230 O.2   339  ASN339     -0.2716
    148  ND2       12.3370   -0.7300  -11.6200 N.am  339  ASN339     -0.0877
    149  N          9.4860    5.0910  -16.6230 N.3   341  LYS341     -0.1231
    150  CA         9.2270    6.4130  -17.1780 C.3   341  LYS341      0.1693
    151  C          8.2150    6.3160  -18.3180 C.2   341  LYS341      0.2593
    152  O          8.1660    5.3190  -19.0450 O.2   341  LYS341     -0.2718
    153  CB        10.5250    7.0550  -17.6870 C.3   341  LYS341      0.0285
    154  CG        10.4120    8.5350  -18.0550 C.3   341  LYS341      0.0035
    155  CD        10.4010    9.4180  -16.8120 C.3   341  LYS341      0.0206
    156  CE        10.3580   10.8990  -17.1710 C.3   341  LYS341      0.1093
    157  NZ         9.0830   11.3020  -17.8360 N.3   341  LYS341     -0.1314
    158  N          7.4090    7.3670  -18.4760 N.am  342  THR342     -0.1939
    159  CA         6.3700    7.4070  -19.4990 C.3   342  THR342      0.2028
    160  C          6.5100    8.6730  -20.3270 C.2   342  THR342      0.2642
    161  O          6.6670    9.7680  -19.7770 O.2   342  THR342     -0.2714
    162  CB         4.9700    7.3530  -18.8820 C.3   342  THR342      0.1808
    163  OG1        4.8270    6.1520  -18.1150 O.3   342  THR342     -0.2208
    164  CG2        3.9120    7.3790  -19.9760 C.3   342  THR342      0.0379
    165  N          6.4580    8.5210  -21.6440 N.am  343  ALA343     -0.1977
    166  CA         6.4400    9.6520  -22.5550 C.3   343  ALA343      0.1597
    167  C          5.1870    9.5690  -23.4130 C.2   343  ALA343      0.2287
    168  O          4.6100    8.4940  -23.6010 O.2   343  ALA343     -0.2864
    169  CB         7.6950    9.6910  -23.4360 C.3   343  ALA343      0.0319
    170  N         10.2290   -0.2240  -23.8690 N.3   359  ILE359     -0.1245
    171  CA        11.6500   -0.5360  -23.7690 C.3   359  ILE359      0.1561
    172  C         11.9030   -1.0290  -22.3530 C.2   359  ILE359      0.2260
    173  O         11.8240   -0.2460  -21.3950 O.2   359  ILE359     -0.2867
    174  CB        12.5360    0.6740  -24.0820 C.3   359  ILE359      0.0252
    175  CG1       12.2170    1.2510  -25.4610 C.3   359  ILE359      0.0019
    176  CG2       14.0060    0.2880  -23.9620 C.3   359  ILE359      0.0019
    177  CD1       12.8650    2.5990  -25.6970 C.3   359  ILE359      0.0001
@<TRIPOS>BOND
     1    13    14    1
     2    14    15    1
     3    33    32    2
     4    32    31    1
     5    23    21    1
     6    15    17   am
     7    15    16    2
     8    17    18    1
     9    34    31    1
    10    34    35    1
    11    36    35    1
    12     4     3    2
    13    31    30    1
    14    19    18    1
    15    19    20    2
    16    35    37    1
    17    18    21    1
    18    30    26   am
    19     5     6    1
    20     5     2    1
    21    21    22    1
    22     8     6   ar
    23     8    10   ar
    24    24    25    1
    25     3     2    1
    26     6     7   ar
    27    10    11   ar
    28    26    25    1
    29    26    27    2
    30     2     1    1
    31    25    28    1
    32     7     9   ar
    33    11     9   ar
    34    11    12    1
    35   130   132    1
    36   130   129    1
    37    43    44    1
    38    43    42    1
    39    58    57    2
    40    46    44   am
    41   131   129    1
    42    28    29    1
    43   128   127    2
    44    44    45    2
    45    42    39    1
    46   129   126    1
    47    61    64    1
    48    61    62    1
    49    61    60    1
    50    64    65    1
    51    38    39    1
    52   127   126    1
    53    57    60   am
    54    57    56    1
    55    62    63    2
    56   177   175    1
    57   175   174    1
    58    39    40    1
    59   126   125    1
    60    84    82    1
    61    55    56    1
    62    59    56    1
    63    65    67   ar
    64    65    66   ar
    65   125   122   am
    66    40    41    2
    67    40    47   am
    68   174   176    1
    69   174   171    1
    70   170   171    1
    71   171   172    1
    72    47    48    1
    73    82    81    1
    74    82    83    1
    75   168   167    2
    76    81    78    1
    77   169   166    1
    78   167   166    1
    79   122   123    2
    80   122   121    1
    81    49    48    1
    82    49    50    2
    83    48    51    1
    84   166   165    1
    85   121   124    1
    86   121   120    1
    87    76    75    1
    88   118   117    2
    89   172   173    2
    90    78    77    1
    91    78    79    1
    92    77    70   am
    93    68    69    1
    94   165   160   am
    95   117   120   am
    96   117   116    1
    97    51    52    1
    98    75    74    1
    99    79    80    2
   100   119   116    1
   101    53    52    1
   102    72    69    1
   103    72    73    1
   104    69    70    1
   105    70    71    2
   106   116   115    1
   107    52    54    1
   108    73    74    1
   109   160   161    2
   110   160   159    1
   111    98    97    1
   112    98    99    1
   113   100    99    1
   114   115   110   am
   115   164   162    1
   116    97    94    1
   117   159   162    1
   118   159   158    1
   119   152   151    2
   120   162   163    1
   121   113   112    1
   122   110   109    1
   123   110   111    2
   124   158   151   am
   125   151   150    1
   126    94    93    1
   127    94    95    1
   128   109   112    1
   129   109   108    1
   130   154   153    1
   131   154   155    1
   132    93    87   am
   133   157   156    1
   134    95    96    2
   135   112   114    1
   136   153   150    1
   137   104   103    2
   138    85    86    1
   139    92    90   am
   140   150   149    1
   141   156   155    1
   142    89    86    1
   143    89    90    1
   144   108   103   am
   145   106   105    1
   146    87    86    1
   147    87    88    2
   148   103   102    1
   149    90    91    2
   150   105   102    1
   151   105   107    1
   152   102   101    1
   153   144   143    2
   154   143   142    1
   155   142   145    1
   156   142   141    1
   157   145   146    1
   158   136   135    2
   159   146   148   am
   160   146   147    2
   161   141   135   am
   162   135   134    1
   163   134   137    1
   164   134   133    1
   165   137   138    1
   166   138   139    2
   167   138   140   am
