@<TRIPOS>MOLECULE
tmp/6gjbA00.pdb
 219 210 0 0 0
SMALL
GASTEIGER

@<TRIPOS>ATOM
      1  N         16.6410   16.3430   48.5850 N.3    23  TYR23      -0.1227
      2  CA        15.2650   16.5280   48.1180 C.3    23  TYR23       0.1736
      3  C         15.0340   15.8840   46.7350 C.2    23  TYR23       0.2595
      4  O         15.9610   15.8410   45.9290 O.2    23  TYR23      -0.2718
      5  CB        14.9580   18.0380   48.0650 C.3    23  TYR23       0.0548
      6  CG        13.5680   18.4150   47.5940 C.ar   23  TYR23      -0.0200
      7  CD1       12.4370   17.8650   48.1850 C.ar   23  TYR23      -0.0009
      8  CD2       13.3830   19.3680   46.5960 C.ar   23  TYR23      -0.0009
      9  CE1       11.1560   18.2240   47.7710 C.ar   23  TYR23       0.0417
     10  CE2       12.1060   19.7450   46.1820 C.ar   23  TYR23       0.0417
     11  CZ        10.9930   19.1660   46.7690 C.ar   23  TYR23       0.1957
     12  OH         9.7300   19.5340   46.3660 O.3    23  TYR23      -0.2866
     13  N         13.8030   15.3770   46.4810 N.am   24  ILE24      -0.1980
     14  CA        13.3400   14.9370   45.1560 C.3    24  ILE24       0.1595
     15  C         12.1060   15.7680   44.7360 C.2    24  ILE24       0.2287
     16  O         12.2090   16.5830   43.8190 O.2    24  ILE24      -0.2864
     17  CB        13.0790   13.4050   45.1310 C.3    24  ILE24       0.0276
     18  CG1       14.4290   12.6440   45.1860 C.3    24  ILE24       0.0022
     19  CG2       12.2700   12.9910   43.8760 C.3    24  ILE24       0.0022
     20  CD1       14.3360   11.1620   45.4440 C.3    24  ILE24       0.0001
     21  N          7.4450   16.6540   45.9910 N.3    26  GLU26      -0.1231
     22  CA         6.4100   16.6350   47.0350 C.3    26  GLU26       0.1699
     23  C          4.9650   16.6520   46.4900 C.2    26  GLU26       0.2593
     24  O          4.6270   17.4790   45.6420 O.2    26  GLU26      -0.2718
     25  CB         6.6340   17.7850   48.0610 C.3    26  GLU26       0.0402
     26  CG         6.3180   19.1930   47.5830 C.3    26  GLU26       0.1161
     27  CD         6.7560   20.2660   48.5610 C.2    26  GLU26       0.3649
     28  OE1        7.9850   20.4630   48.7050 O.co2  26  GLU26      -0.2457
     29  OE2        5.8790   20.9080   49.1850 O.co2  26  GLU26      -0.2457
     30  N          4.1370   15.7280   46.9900 N.am   27  GLY27      -0.1942
     31  CA         2.7010   15.7020   46.7310 C.3    27  GLY27       0.2014
     32  C          1.9110   16.5940   47.6750 C.2    27  GLY27       0.2639
     33  O          2.4760   17.4810   48.3290 O.2    27  GLY27      -0.2714
     34  N          0.5840   16.3590   47.7570 N.am   28  ALA28      -0.1963
     35  CA        -0.3220   17.1850   48.5680 C.3    28  ALA28       0.1728
     36  C         -0.0950   16.9670   50.0630 C.2    28  ALA28       0.2616
     37  O          0.0430   17.9360   50.8110 O.2    28  ALA28      -0.2715
     38  CB        -1.7710   16.8740   48.2190 C.3    28  ALA28       0.0334
     39  N         -0.0510   15.6900   50.4870 N.am   29  TYR29      -0.1960
     40  CA         0.1360   15.3080   51.8930 C.3    29  TYR29       0.1771
     41  C          1.4340   14.4750   52.1110 C.2    29  TYR29       0.2620
     42  O          1.5040   13.6970   53.0600 O.2    29  TYR29      -0.2715
     43  CB        -1.1280   14.5980   52.4420 C.3    29  TYR29       0.0574
     44  CG        -1.4670   13.3000   51.7460 C.ar   29  TYR29      -0.0198
     45  CD1       -1.0940   12.0770   52.2900 C.ar   29  TYR29      -0.0009
     46  CD2       -2.1610   13.2920   50.5420 C.ar   29  TYR29      -0.0009
     47  CE1       -1.4000   10.8790   51.6520 C.ar   29  TYR29       0.0417
     48  CE2       -2.4680   12.0980   49.8890 C.ar   29  TYR29       0.0417
     49  CZ        -2.0840   10.8930   50.4470 C.ar   29  TYR29       0.1957
     50  OH        -2.3810    9.7070   49.8230 O.3    29  TYR29      -0.2866
     51  N          2.4390   14.6550   51.2450 N.am   30  GLY30      -0.1940
     52  CA         3.7890   14.1880   51.5370 C.3    30  GLY30       0.2014
     53  C          4.9370   14.8150   50.7640 C.2    30  GLY30       0.2639
     54  O          4.7290   15.5530   49.8020 O.2    30  GLY30      -0.2714
     55  N          6.1690   14.5050   51.2050 N.am   31  MET31      -0.1963
     56  CA         7.4480   14.9090   50.6070 C.3    31  MET31       0.1736
     57  C          8.2510   13.6390   50.2140 C.2    31  MET31       0.2616
     58  O          7.9370   12.5590   50.7170 O.2    31  MET31      -0.2715
     59  CB         8.2340   15.7150   51.6400 C.3    31  MET31       0.0427
     60  CG         9.5320   16.2630   51.1390 C.3    31  MET31       0.0599
     61  SD        10.1470   17.4630   52.2960 S.3    31  MET31      -0.1393
     62  CE        11.3630   18.2070   51.3620 C.3    31  MET31       0.0692
     63  N          9.2760   13.7670   49.3200 N.am   32  VAL32      -0.1977
     64  CA        10.1090   12.6400   48.8570 C.3    32  VAL32       0.1596
     65  C         11.5850   13.0510   48.8950 C.2    32  VAL32       0.2287
     66  O         11.9280   14.1450   48.4420 O.2    32  VAL32      -0.2864
     67  CB         9.6800   12.1560   47.4490 C.3    32  VAL32       0.0276
     68  CG1       10.4200   10.8840   47.0470 C.3    32  VAL32       0.0022
     69  CG2        8.1760   11.9170   47.3870 C.3    32  VAL32       0.0022
     70  N         15.0820    5.6140   48.5020 N.3    45  ALA45      -0.1245
     71  CA        14.0790    6.6720   48.3980 C.3    45  ALA45       0.1562
     72  C         13.2690    6.6100   49.6750 C.2    45  ALA45       0.2260
     73  O         12.9540    5.5060   50.1300 O.2    45  ALA45      -0.2867
     74  CB        13.1520    6.4450   47.2080 C.3    45  ALA45       0.0290
     75  N          9.7080    8.5350   51.3880 N.3    47  LYS47      -0.1231
     76  CA         8.5860    9.4510   51.3140 C.3    47  LYS47       0.1693
     77  C          7.9160    9.6070   52.6960 C.2    47  LYS47       0.2592
     78  O          7.4310    8.6290   53.2760 O.2    47  LYS47      -0.2718
     79  CB         7.5650    9.0700   50.2250 C.3    47  LYS47       0.0285
     80  CG         6.8670    7.7310   50.3310 C.3    47  LYS47       0.0035
     81  CD         5.9170    7.5760   49.1370 C.3    47  LYS47       0.0206
     82  CE         5.1910    6.2600   49.1050 C.3    47  LYS47       0.1093
     83  NZ         4.0140    6.3140   48.2020 N.3    47  LYS47      -0.1314
     84  N          7.9300   10.8440   53.2010 N.am   48  LYS48      -0.1966
     85  CA         7.1800   11.3010   54.3730 C.3    48  LYS48       0.1728
     86  C          5.7070   11.5000   54.0230 C.2    48  LYS48       0.2616
     87  O          5.3930   12.3450   53.1910 O.2    48  LYS48      -0.2715
     88  CB         7.7620   12.6470   54.8670 C.3    48  LYS48       0.0311
     89  CG         7.1060   13.1810   56.1100 C.3    48  LYS48       0.0038
     90  CD         7.7600   14.4870   56.5640 C.3    48  LYS48       0.0206
     91  CE         7.0820   15.0230   57.7910 C.3    48  LYS48       0.1093
     92  NZ         7.6010   16.3590   58.2040 N.3    48  LYS48      -0.1314
     93  N          4.8020   10.7400   54.6500 N.am   49  ILE49      -0.1977
     94  CA         3.3620   10.8880   54.4670 C.3    49  ILE49       0.1596
     95  C          2.7790   11.4300   55.7970 C.2    49  ILE49       0.2287
     96  O          3.1300   10.9360   56.8680 O.2    49  ILE49      -0.2864
     97  CB         2.7240    9.5430   54.0150 C.3    49  ILE49       0.0276
     98  CG1        3.3590    9.0370   52.6920 C.3    49  ILE49       0.0022
     99  CG2        1.2290    9.7020   53.7900 C.3    49  ILE49       0.0022
    100  CD1        3.1190    7.6150   52.4440 C.3    49  ILE49       0.0001
    101  N         -2.1360    1.7000   49.7780 N.3    64  GLU64      -0.1245
    102  CA        -0.7550    1.5650   49.3040 C.3    64  GLU64       0.1567
    103  C          0.0450    0.6020   50.1500 C.2    64  GLU64       0.2260
    104  O          0.6870   -0.3140   49.6360 O.2    64  GLU64      -0.2867
    105  CB        -0.0820    2.9590   49.2500 C.3    64  GLU64       0.0388
    106  CG         1.4410    3.0330   49.2770 C.3    64  GLU64       0.1160
    107  CD         2.1360    3.3230   47.9720 C.2    64  GLU64       0.3649
    108  OE1        1.5010    3.1670   46.9120 O.co2  64  GLU64      -0.2457
    109  OE2        3.3250    3.7090   48.0100 O.co2  64  GLU64      -0.2457
    110  N          7.1430   -1.5740   42.6900 N.3    77  ILE77      -0.1245
    111  CA         7.9930   -1.0460   43.7560 C.3    77  ILE77       0.1561
    112  C          7.6750   -1.8060   45.0590 C.2    77  ILE77       0.2260
    113  O          6.5200   -2.0930   45.3570 O.2    77  ILE77      -0.2867
    114  CB         7.8500    0.5050   43.9120 C.3    77  ILE77       0.0252
    115  CG1        9.0140    1.1150   44.6790 C.3    77  ILE77       0.0019
    116  CG2        6.5400    0.8620   44.5720 C.3    77  ILE77       0.0019
    117  CD1       10.3570    0.8770   44.1150 C.3    77  ILE77       0.0001
    118  N         11.7810    2.8600   50.1140 N.3    98  GLN98      -0.1231
    119  CA        11.7580    2.0330   48.9180 C.3    98  GLN98       0.1698
    120  C         13.0960    2.0910   48.2010 C.2    98  GLN98       0.2592
    121  O         13.9070    3.0050   48.4390 O.2    98  GLN98      -0.2718
    122  CB        10.6190    2.5200   47.9750 C.3    98  GLN98       0.0381
    123  CG         9.2590    2.5470   48.6570 C.3    98  GLN98       0.0905
    124  CD         8.1390    3.1410   47.8670 C.2    98  GLN98       0.2608
    125  OE1        8.2190    4.2660   47.4470 O.2    98  GLN98      -0.2717
    126  NE2        7.0720    2.4150   47.6620 N.am   98  GLN98      -0.0878
    127  N         13.3270    1.1040   47.2980 N.am   99  ASP99      -0.1960
    128  CA        14.5270    1.0790   46.4390 C.3    99  ASP99       0.1840
    129  C         14.5740    2.4330   45.7320 C.2    99  ASP99       0.2622
    130  O         13.5250    2.9130   45.2830 O.2    99  ASP99      -0.2715
    131  CB        14.4480   -0.0600   45.3900 C.3    99  ASP99       0.1450
    132  CG        14.5240   -1.4530   45.9580 C.2    99  ASP99       0.3671
    133  OD1       14.1410   -2.4060   45.2450 O.co2  99  ASP99      -0.2456
    134  OD2       14.9660   -1.5980   47.1140 O.co2  99  ASP99      -0.2456
    135  N         15.7570    3.0700   45.6590 N.am  100  LEU100     -0.1963
    136  CA        15.8690    4.3590   44.9760 C.3   100  LEU100      0.1728
    137  C         15.8700    4.1140   43.4740 C.2   100  LEU100      0.2616
    138  O         16.6730    3.3180   42.9950 O.2   100  LEU100     -0.2715
    139  CB        17.1620    5.1300   45.3530 C.3   100  LEU100      0.0311
    140  CG        17.2880    6.5450   44.7690 C.3   100  LEU100      0.0022
    141  CD1       16.1170    7.4250   45.1250 C.3   100  LEU100      0.0001
    142  CD2       18.5820    7.2040   45.2090 C.3   100  LEU100      0.0001
    143  N         14.9770    4.7980   42.7400 N.am  101  MET101     -0.1963
    144  CA        14.9390    4.6950   41.2760 C.3   101  MET101      0.1736
    145  C         15.4390    6.0070   40.6980 C.2   101  MET101      0.2616
    146  O         15.0660    7.0330   41.2140 O.2   101  MET101     -0.2715
    147  CB        13.4970    4.3650   40.8520 C.3   101  MET101      0.0427
    148  CG        12.9810    3.0580   41.4190 C.3   101  MET101      0.0599
    149  SD        13.8500    1.5650   40.9050 S.3   101  MET101     -0.1393
    150  CE        13.0210    1.3120   39.2850 C.3   101  MET101      0.0692
    151  N         16.2810    5.9850   39.6520 N.am  102  GLU102     -0.1963
    152  CA        16.9320    7.1980   39.0930 C.3   102  GLU102      0.1733
    153  C         15.8910    8.2280   38.6180 C.2   102  GLU102      0.2617
    154  O         16.0130    9.4260   38.8990 O.2   102  GLU102     -0.2715
    155  CB        17.9000    6.8460   37.9100 C.3   102  GLU102      0.0429
    156  CG        18.8050    8.0050   37.4750 C.3   102  GLU102      0.1163
    157  CD        19.5110    7.9400   36.1250 C.2   102  GLU102      0.3649
    158  OE1       20.4590    8.7350   35.9220 O.co2 102  GLU102     -0.2457
    159  OE2       19.1310    7.1070   35.2730 O.co2 102  GLU102     -0.2457
    160  N         14.8550    7.7520   37.8980 N.am  103  THR103     -0.1937
    161  CA        13.9100    8.6350   37.2500 C.3   103  THR103      0.2028
    162  C         12.5100    7.9990   37.1300 C.2   103  THR103      0.2642
    163  O         12.2270    6.9480   37.7170 O.2   103  THR103     -0.2714
    164  CB        14.4960    9.0580   35.8790 C.3   103  THR103      0.1808
    165  OG1       13.7940   10.2080   35.4030 O.3   103  THR103     -0.2208
    166  CG2       14.5110    7.9220   34.8290 C.3   103  THR103      0.0379
    167  N         11.6180    8.6590   36.3790 N.am  104  ASP104     -0.1971
    168  CA        10.3280    8.0730   36.0500 C.3   104  ASP104      0.1709
    169  C         10.0750    8.3090   34.6210 C.2   104  ASP104      0.2293
    170  O         10.7520    9.1350   34.0210 O.2   104  ASP104     -0.2864
    171  CB         9.1780    8.6000   36.9400 C.3   104  ASP104      0.1436
    172  CG         8.9440   10.0950   36.8810 C.2   104  ASP104      0.3671
    173  OD1        8.7480   10.6130   35.7840 O.co2 104  ASP104     -0.2456
    174  OD2        8.9260   10.7270   37.9420 O.co2 104  ASP104     -0.2456
    175  N          9.4110   12.1610   33.5170 N.3   107  LYS107     -0.1245
    176  CA        10.6710   12.9250   33.3830 C.3   107  LYS107      0.1561
    177  C         11.4450   12.5070   32.1630 C.2   107  LYS107      0.2260
    178  O         11.9250   13.3470   31.4290 O.2   107  LYS107     -0.2867
    179  CB        11.5220   12.8210   34.6530 C.3   107  LYS107      0.0271
    180  CG        10.8050   13.4080   35.8700 C.3   107  LYS107      0.0035
    181  CD        11.6870   14.2110   36.8180 C.3   107  LYS107      0.0206
    182  CE        12.4630   13.3670   37.7890 C.3   107  LYS107      0.1093
    183  NZ        13.6230   14.1280   38.3490 N.3   107  LYS107     -0.1314
    184  N          4.2980    9.2030   35.2990 N.3   146  SER146     -0.1202
    185  CA         4.9380    9.5580   36.5830 C.3   146  SER146      0.2020
    186  C          4.8620    8.4030   37.6250 C.2   146  SER146      0.2618
    187  O          5.6160    8.4450   38.5840 O.2   146  SER146     -0.2717
    188  CB         4.3570   10.8700   37.1310 C.3   146  SER146      0.2103
    189  OG         3.0220   10.6510   37.5330 O.3   146  SER146     -0.2182
    190  N          3.9890    7.3830   37.4340 N.am  147  ASN147     -0.1974
    191  CA         3.8670    6.2020   38.2980 C.3   147  ASN147      0.1688
    192  C          4.6450    5.0140   37.7900 C.2   147  ASN147      0.2292
    193  O          4.4800    3.9140   38.3280 O.2   147  ASN147     -0.2864
    194  CB         2.3910    5.8370   38.5510 C.3   147  ASN147      0.1181
    195  CG         1.7770    6.8760   39.4500 C.2   147  ASN147      0.2629
    196  OD1        2.4960    7.5280   40.2670 O.2   147  ASN147     -0.2716
    197  ND2        0.4650    7.0400   39.3170 N.am  147  ASN147     -0.0877
    198  N          8.4740    4.0220   37.4440 N.3   149  LEU149     -0.1245
    199  CA         9.8020    4.3880   37.9150 C.3   149  LEU149      0.1561
    200  C         10.8640    3.5710   37.1290 C.2   149  LEU149      0.2260
    201  O         10.6390    2.4080   36.8200 O.2   149  LEU149     -0.2867
    202  CB         9.9250    4.1020   39.4070 C.3   149  LEU149      0.0270
    203  CG         8.8950    4.7420   40.3290 C.3   149  LEU149      0.0019
    204  CD1        9.1840    4.3560   41.7590 C.3   149  LEU149      0.0001
    205  CD2        8.8080    6.2460   40.0860 C.3   149  LEU149      0.0001
    206  N          4.6190    2.1340   40.6170 N.3   158  CYS158     -0.1221
    207  CA         4.4120    2.6410   41.9770 C.3   158  CYS158      0.1808
    208  C          3.0560    3.3070   42.1310 C.2   158  CYS158      0.2601
    209  O          2.2870    3.4110   41.1910 O.2   158  CYS158     -0.2717
    210  CB         5.5440    3.5990   42.3550 C.3   158  CYS158      0.0970
    211  SG         5.4650    5.1850   41.4930 S.3   158  CYS158     -0.0800
    212  N          2.7920    3.7730   43.3430 N.am  159  ASP159     -0.1973
    213  CA         1.5990    4.5440   43.7510 C.3   159  ASP159      0.1709
    214  C          0.2980    3.7630   43.6250 C.2   159  ASP159      0.2293
    215  O         -0.4140    3.8710   42.6310 O.2   159  ASP159     -0.2864
    216  CB         1.4980    5.8740   43.0200 C.3   159  ASP159      0.1436
    217  CG         0.6260    6.8510   43.8020 C.2   159  ASP159      0.3671
    218  OD1       -0.1300    6.3900   44.7110 O.co2 159  ASP159     -0.2456
    219  OD2        0.7110    8.0520   43.5320 O.co2 159  ASP159     -0.2456
@<TRIPOS>BOND
     1   178   177    2
     2   177   176    1
     3   176   175    1
     4   176   179    1
     5   170   169    2
     6   169   168    1
     7   179   180    1
     8   166   164    1
     9   159   157   ar
    10   184   185    1
    11   165   164    1
    12   173   172   ar
    13   180   181    1
    14   164   161    1
    15   158   157   ar
    16   168   167    1
    17   168   171    1
    18   157   156    1
    19   167   162   am
    20   185   188    1
    21   185   186    1
    22   181   182    1
    23   201   200    2
    24   172   171    1
    25   172   174   ar
    26   200   199    1
    27   162   161    1
    28   162   163    2
    29   188   189    1
    30   161   160    1
    31   190   186   am
    32   190   191    1
    33   198   199    1
    34   156   155    1
    35   186   187    2
    36   182   183    1
    37   192   191    1
    38   192   193    2
    39   160   153   am
    40   155   152    1
    41   199   202    1
    42   191   194    1
    43   194   195    1
    44   153   154    2
    45   153   152    1
    46   152   151    1
    47   150   149    1
    48   197   195   am
    49   202   203    1
    50   195   196    2
    51   151   145   am
    52   205   203    1
    53   203   204    1
    54   206   207    1
    55   145   146    2
    56   145   144    1
    57   147   144    1
    58   147   148    1
    59   149   148    1
    60   209   208    2
    61   144   143    1
    62   211   210    1
    63   207   208    1
    64   207   210    1
    65   208   212   am
    66   215   214    2
    67   110   111    1
    68   143   137   am
    69   138   137    2
    70   216   213    1
    71   216   217    1
    72   212   213    1
    73   137   136    1
    74   219   217   ar
    75   214   213    1
    76   111   114    1
    77   111   112    1
    78   217   218   ar
    79    16    15    2
    80    19    17    1
    81   114   116    1
    82   114   115    1
    83   117   115    1
    84    15    14    1
    85   140   141    1
    86   140   142    1
    87   140   139    1
    88   136   139    1
    89   136   135    1
    90   112   113    2
    91    17    14    1
    92    17    18    1
    93    14    13    1
    94    18    20    1
    95   133   132   ar
    96   130   129    2
    97   131   132    1
    98   131   128    1
    99    24    23    2
   100   135   129   am
   101   129   128    1
   102     4     3    2
   103   132   134   ar
   104    21    22    1
   105    10     8   ar
   106    10    11   ar
   107    12    11    1
   108   128   127    1
   109    13     3   am
   110    23    30   am
   111    23    22    1
   112     8     6   ar
   113    31    30    1
   114    31    32    1
   115     3     2    1
   116    11     9   ar
   117   108   107   ar
   118    22    25    1
   119    68    67    1
   120    74    71    1
   121   127   120   am
   122    69    67    1
   123   125   124    2
   124    67    64    1
   125    26    25    1
   126    26    27    1
   127     6     5    1
   128     6     7   ar
   129   126   124   am
   130    32    34   am
   131    32    33    2
   132    34    35    1
   133     9     7   ar
   134   124   123    1
   135   107   109   ar
   136   107   106    1
   137   122   123    1
   138   122   119    1
   139     5     2    1
   140     2     1    1
   141   120   121    2
   142   120   119    1
   143    83    82    1
   144    38    35    1
   145    71    70    1
   146    71    72    1
   147    66    65    2
   148    27    28   ar
   149    27    29   ar
   150    35    36    1
   151    64    65    1
   152    64    63    1
   153   119   118    1
   154    82    81    1
   155    81    80    1
   156   105   106    1
   157   105   102    1
   158   102   101    1
   159   102   103    1
   160    63    57   am
   161   104   103    2
   162    72    73    2
   163    54    53    2
   164    50    49    1
   165    48    49   ar
   166    48    46   ar
   167    36    39   am
   168    36    37    2
   169    57    56    1
   170    57    58    2
   171    79    80    1
   172    79    76    1
   173    49    47   ar
   174    39    40    1
   175    46    44   ar
   176    56    55    1
   177    56    59    1
   178    53    55   am
   179    53    52    1
   180    60    59    1
   181    60    61    1
   182    51    52    1
   183    51    41   am
   184    76    75    1
   185    76    77    1
   186    62    61    1
   187    47    45   ar
   188    44    45   ar
   189    44    43    1
   190    40    41    1
   191    40    43    1
   192    41    42    2
   193   100    98    1
   194    98    97    1
   195    77    84   am
   196    77    78    2
   197    87    86    2
   198    84    85    1
   199    99    97    1
   200    97    94    1
   201    86    85    1
   202    86    93   am
   203    85    88    1
   204    94    93    1
   205    94    95    1
   206    88    89    1
   207    95    96    2
   208    89    90    1
   209    90    91    1
   210    91    92    1
