@<TRIPOS>MOLECULE
tmp/6gjgB02.pdb
 162 151 0 0 0
SMALL
GASTEIGER

@<TRIPOS>ATOM
      1  N          3.2860   40.9730   36.3640 N.3    11  LEU11      -0.1245
      2  CA         3.1290   39.6460   36.9620 C.3    11  LEU11       0.1561
      3  C          1.6920   39.3780   37.4180 C.2    11  LEU11       0.2260
      4  O          1.1500   38.3170   37.0910 O.2    11  LEU11      -0.2867
      5  CB         4.1330   39.3730   38.0970 C.3    11  LEU11       0.0270
      6  CG         4.1140   37.9330   38.6210 C.3    11  LEU11       0.0019
      7  CD1        5.1150   37.0460   37.8850 C.3    11  LEU11       0.0001
      8  CD2        4.2820   37.8940   40.1130 C.3    11  LEU11       0.0001
      9  N         -0.3210   38.7090   34.2990 N.3    14  CYS14      -0.1221
     10  CA         0.0560   37.3860   33.8300 C.3    14  CYS14       0.1808
     11  C         -0.6560   36.2880   34.6330 C.2    14  CYS14       0.2601
     12  O         -1.2650   35.4050   34.0340 O.2    14  CYS14      -0.2717
     13  CB         1.5710   37.2330   33.8960 C.3    14  CYS14       0.0970
     14  SG         2.4590   38.1200   32.5940 S.3    14  CYS14      -0.0800
     15  N         -0.6140   36.3830   35.9870 N.am   15  LEU15      -0.1979
     16  CA        -1.2390   35.4540   36.9340 C.3    15  LEU15       0.1596
     17  C         -2.7510   35.3490   36.7680 C.2    15  LEU15       0.2287
     18  O         -3.3070   34.2800   37.0080 O.2    15  LEU15      -0.2864
     19  CB        -0.8980   35.8420   38.3870 C.3    15  LEU15       0.0297
     20  CG         0.4890   35.4500   38.9100 C.3    15  LEU15       0.0022
     21  CD1        0.8380   36.2340   40.1320 C.3    15  LEU15       0.0001
     22  CD2        0.5740   33.9680   39.2130 C.3    15  LEU15       0.0001
     23  N          0.0290   29.4850   32.8540 N.3    20  GLY20      -0.1225
     24  CA         1.2570   29.3830   33.6320 C.3    20  GLY20       0.1811
     25  C          2.5140   29.0360   32.8600 C.2    20  GLY20       0.2280
     26  O          3.5250   29.7330   32.9800 O.2    20  GLY20      -0.2866
     27  N          3.4440   31.8070   30.4310 N.3    23  CYS23      -0.1221
     28  CA         4.0280   32.8180   31.3300 C.3    23  CYS23       0.1808
     29  C          5.5200   32.5200   31.5580 C.2    23  CYS23       0.2601
     30  O          6.3710   33.3780   31.3080 O.2    23  CYS23      -0.2717
     31  CB         3.2910   32.8180   32.6670 C.3    23  CYS23       0.0970
     32  SG         1.9820   34.0450   32.8090 S.3    23  CYS23      -0.0800
     33  N          5.8130   31.3000   32.0710 N.am   24  HIS24      -0.1975
     34  CA         7.1500   30.8060   32.3820 C.3    24  HIS24       0.1656
     35  C          8.0980   30.8670   31.1790 C.2    24  HIS24       0.2291
     36  O          9.1880   31.4320   31.3110 O.2    24  HIS24      -0.2864
     37  CB         7.0710   29.3850   32.9660 C.3    24  HIS24       0.0771
     38  CG         8.3420   28.9100   33.6070 C.ar   24  HIS24       0.0820
     39  ND1        8.8330   29.4970   34.7610 N.ar   24  HIS24      -0.2267
     40  CD2        9.1650   27.9000   33.2480 C.ar   24  HIS24       0.1154
     41  CE1        9.9450   28.8440   35.0540 C.ar   24  HIS24       0.1986
     42  NE2       10.1820   27.8710   34.1720 N.ar   24  HIS24      -0.2212
     43  N          8.9460   34.5880   30.2480 N.3    27  PHE27      -0.1227
     44  CA         9.9370   35.1470   31.1770 C.3    27  PHE27       0.1736
     45  C         11.3230   34.5280   30.9900 C.2    27  PHE27       0.2595
     46  O         12.3260   35.1800   31.2810 O.2    27  PHE27      -0.2718
     47  CB         9.4740   35.0090   32.6340 C.3    27  PHE27       0.0547
     48  CG         8.3320   35.9140   33.0410 C.ar   27  PHE27      -0.0202
     49  CD1        8.3710   37.2800   32.7690 C.ar   27  PHE27      -0.0042
     50  CD2        7.2540   35.4170   33.7610 C.ar   27  PHE27      -0.0042
     51  CE1        7.3300   38.1200   33.1670 C.ar   27  PHE27      -0.0003
     52  CE2        6.2190   36.2590   34.1730 C.ar   27  PHE27      -0.0003
     53  CZ         6.2620   37.6050   33.8690 C.ar   27  PHE27      -0.0000
     54  N         11.3770   33.2870   30.4750 N.am   28  LEU28      -0.1980
     55  CA        12.6490   32.6220   30.2000 C.3    28  LEU28       0.1596
     56  C         13.2490   33.1940   28.9420 C.2    28  LEU28       0.2287
     57  O         14.4540   33.4150   28.8890 O.2    28  LEU28      -0.2864
     58  CB        12.5210   31.0850   30.1270 C.3    28  LEU28       0.0297
     59  CG        12.2780   30.3590   31.4580 C.3    28  LEU28       0.0022
     60  CD1       11.9700   28.9220   31.2200 C.3    28  LEU28       0.0001
     61  CD2       13.4460   30.5140   32.4140 C.3    28  LEU28       0.0001
     62  N         15.7870   41.3140   31.5710 N.3    36  LEU36      -0.1245
     63  CA        15.3010   41.2810   32.9520 C.3    36  LEU36       0.1561
     64  C         16.1290   42.1810   33.9070 C.2    36  LEU36       0.2260
     65  O         17.3110   42.4130   33.6360 O.2    36  LEU36      -0.2867
     66  CB        15.2990   39.8260   33.4760 C.3    36  LEU36       0.0270
     67  CG        14.3330   38.8050   32.8410 C.3    36  LEU36       0.0019
     68  CD1       14.4330   37.4670   33.5570 C.3    36  LEU36       0.0001
     69  CD2       12.8810   39.2780   32.8970 C.3    36  LEU36       0.0001
     70  N         12.9940   25.0900   37.0320 N.3    66  PHE66      -0.1241
     71  CA        12.7380   26.4770   36.6760 C.3    66  PHE66       0.1605
     72  C         13.3990   26.6750   35.3250 C.2    66  PHE66       0.2264
     73  O         12.7110   26.7950   34.3060 O.2    66  PHE66      -0.2867
     74  CB        13.3240   27.4100   37.7340 C.3    66  PHE66       0.0534
     75  CG        12.5660   28.7020   37.8390 C.ar   66  PHE66      -0.0203
     76  CD1       11.4270   28.7960   38.6360 C.ar   66  PHE66      -0.0042
     77  CD2       12.9720   29.8230   37.1240 C.ar   66  PHE66      -0.0042
     78  CE1       10.6990   29.9850   38.7020 C.ar   66  PHE66      -0.0003
     79  CE2       12.2540   31.0160   37.2020 C.ar   66  PHE66      -0.0003
     80  CZ        11.1230   31.0910   37.9970 C.ar   66  PHE66      -0.0000
     81  N         18.6710   34.6260   35.6240 N.3    76  ILE76      -0.1245
     82  CA        18.0550   34.1920   36.8770 C.3    76  ILE76       0.1561
     83  C         18.9660   34.4700   38.0820 C.2    76  ILE76       0.2260
     84  O         18.5090   35.0650   39.0620 O.2    76  ILE76      -0.2867
     85  CB        17.5760   32.7320   36.7860 C.3    76  ILE76       0.0252
     86  CG1       16.3630   32.6380   35.8110 C.3    76  ILE76       0.0019
     87  CG2       17.2370   32.1960   38.1870 C.3    76  ILE76       0.0019
     88  CD1       15.9240   31.2600   35.4330 C.3    76  ILE76       0.0001
     89  N         19.1130   38.0990   39.3730 N.3    79  LEU79      -0.1245
     90  CA        17.9530   38.6100   40.1220 C.3    79  LEU79       0.1561
     91  C         18.2830   38.7400   41.6330 C.2    79  LEU79       0.2260
     92  O         17.5410   39.3960   42.3690 O.2    79  LEU79      -0.2867
     93  CB        16.7180   37.7120   39.9240 C.3    79  LEU79       0.0270
     94  CG        16.0070   37.7780   38.5870 C.3    79  LEU79       0.0019
     95  CD1       15.0910   36.5800   38.4160 C.3    79  LEU79       0.0001
     96  CD2       15.2280   39.0820   38.4380 C.3    79  LEU79       0.0001
     97  N          0.4080   22.9070   34.0950 N.3   102  ILE102     -0.1245
     98  CA         0.8180   23.7370   35.2470 C.3   102  ILE102      0.1561
     99  C         -0.3650   24.5980   35.6410 C.2   102  ILE102      0.2260
    100  O         -0.8940   25.3170   34.7940 O.2   102  ILE102     -0.2867
    101  CB         2.1070   24.6050   35.0690 C.3   102  ILE102      0.0252
    102  CG1        3.2550   23.8370   34.3830 C.3   102  ILE102      0.0019
    103  CG2        2.5370   25.1900   36.4360 C.3   102  ILE102      0.0019
    104  CD1        4.6020   24.6260   34.1860 C.3   102  ILE102      0.0001
    105  N         -2.2270   27.1780   38.8930 N.3   104  ARG104     -0.1245
    106  CA        -2.0110   27.9830   40.0890 C.3   104  ARG104      0.1563
    107  C         -3.2930   28.2550   40.8500 C.2   104  ARG104      0.2260
    108  O         -4.3840   28.2420   40.2720 O.2   104  ARG104     -0.2867
    109  CB        -1.3760   29.3420   39.7240 C.3   104  ARG104      0.0307
    110  CG        -0.0070   29.2810   39.0430 C.3   104  ARG104      0.0489
    111  CD         0.1890   30.4660   38.1150 C.3   104  ARG104      0.2205
    112  NE        -0.8510   30.4960   37.0890 N.pl3 104  ARG104     -0.0865
    113  CZ        -0.8990   31.3410   36.0680 C.cat 104  ARG104      0.5346
    114  NH1        0.0450   32.2620   35.9120 N.pl3 104  ARG104      0.1354
    115  NH2       -1.8870   31.2710   35.1920 N.pl3 104  ARG104      0.1354
    116  N          0.7970   25.8090   43.6230 N.3   111  ILE111     -0.1245
    117  CA         0.9630   25.3550   42.2440 C.3   111  ILE111      0.1561
    118  C          0.8540   23.8190   42.2060 C.2   111  ILE111      0.2260
    119  O          1.2800   23.1440   43.1530 O.2   111  ILE111     -0.2867
    120  CB         2.3310   25.8340   41.6270 C.3   111  ILE111      0.0252
    121  CG1        2.5410   27.3590   41.7520 C.3   111  ILE111      0.0019
    122  CG2        2.4870   25.3850   40.1610 C.3   111  ILE111      0.0019
    123  CD1        3.9400   27.8270   41.4570 C.3   111  ILE111      0.0001
    124  N         10.9720   28.4770   44.3220 N.3   334  TYR334     -0.1241
    125  CA        10.3000   28.2020   43.0800 C.3   334  TYR334      0.1605
    126  C          8.9920   29.0070   43.0610 C.2   334  TYR334      0.2264
    127  O          8.9280   30.0420   42.3910 O.2   334  TYR334     -0.2867
    128  CB        10.0780   26.6930   42.8400 C.3   334  TYR334      0.0534
    129  CG         9.7470   26.3930   41.3880 C.ar  334  TYR334     -0.0201
    130  CD1       10.5310   25.5190   40.6410 C.ar  334  TYR334     -0.0009
    131  CD2        8.6870   27.0310   40.7440 C.ar  334  TYR334     -0.0009
    132  CE1       10.2590   25.2730   39.2950 C.ar  334  TYR334      0.0417
    133  CE2        8.4130   26.8030   39.3950 C.ar  334  TYR334      0.0417
    134  CZ         9.2050   25.9240   38.6720 C.ar  334  TYR334      0.1957
    135  OH         8.9390   25.6840   37.3370 O.3   334  TYR334     -0.2866
    136  N          8.9570   32.9050   43.1230 N.3   337  LEU337     -0.1231
    137  CA         9.1480   33.6500   41.8620 C.3   337  LEU337      0.1693
    138  C          7.8620   33.7280   41.0070 C.2   337  LEU337      0.2591
    139  O          7.7180   34.6440   40.1920 O.2   337  LEU337     -0.2718
    140  CB        10.3000   33.0580   41.0250 C.3   337  LEU337      0.0284
    141  CG        11.7220   33.3800   41.4740 C.3   337  LEU337      0.0019
    142  CD1       12.6540   32.2330   41.1740 C.3   337  LEU337      0.0001
    143  CD2       12.2350   34.6540   40.8180 C.3   337  LEU337      0.0001
    144  N          6.9400   32.7660   41.1940 N.am  338  VAL338     -0.1980
    145  CA         5.6750   32.6730   40.4620 C.3   338  VAL338      0.1595
    146  C          4.6110   33.6290   41.0380 C.2   338  VAL338      0.2287
    147  O          3.8100   34.1710   40.2760 O.2   338  VAL338     -0.2864
    148  CB         5.1840   31.1990   40.3810 C.3   338  VAL338      0.0276
    149  CG1        3.8440   31.0830   39.6650 C.3   338  VAL338      0.0022
    150  CG2        6.2200   30.3090   39.7050 C.3   338  VAL338      0.0022
    151  N          7.1810   37.2710   41.9450 N.3   341  GLY341     -0.1210
    152  CA         7.8630   37.7540   40.7490 C.3   341  GLY341      0.1956
    153  C          9.3550   37.9780   40.8870 C.2   341  GLY341      0.2611
    154  O         10.0370   37.2650   41.6290 O.2   341  GLY341     -0.2717
    155  N          9.8620   38.9850   40.1620 N.am  342  MET342     -0.1979
    156  CA        11.2740   39.3670   40.0820 C.3   342  MET342      0.1605
    157  C         11.8630   39.9680   41.3660 C.2   342  MET342      0.2287
    158  O         13.0760   39.8910   41.5600 O.2   342  MET342     -0.2864
    159  CB        11.4900   40.3020   38.8940 C.3   342  MET342      0.0413
    160  CG        11.4990   39.5560   37.5910 C.3   342  MET342      0.0598
    161  SD        11.1100   40.6440   36.2370 S.3   342  MET342     -0.1393
    162  CE        10.0010   39.5870   35.2910 C.3   342  MET342      0.0692
@<TRIPOS>BOND
     1    57    56    2
     2    56    55    1
     3    58    55    1
     4    58    59    1
     5    55    54    1
     6    43    44    1
     7    27    28    1
     8    54    45   am
     9    45    44    1
    10    45    46    2
    11    44    47    1
    12    35    36    2
    13    35    34    1
    14    60    59    1
    15    30    29    2
    16    28    29    1
    17    28    31    1
    18    59    61    1
    19    29    33   am
    20    62    63    1
    21    33    34    1
    22    34    37    1
    23    14    13    1
    24    47    48    1
    25    31    32    1
    26    49    48   ar
    27    49    51   ar
    28    67    69    1
    29    67    66    1
    30    67    68    1
    31    23    24    1
    32    25    26    2
    33    25    24    1
    34    63    66    1
    35    63    64    1
    36    37    38    1
    37    48    50   ar
    38    51    53   ar
    39    40    38   ar
    40    40    42   ar
    41    38    39   ar
    42    65    64    2
    43    50    52   ar
    44    10    13    1
    45    10     9    1
    46    10    11    1
    47    53    52   ar
    48    12    11    2
    49    97    98    1
    50    42    41   ar
    51   104   102    1
    52    73    72    2
    53   102   101    1
    54    11    15   am
    55    39    41   ar
    56   100    99    2
    57   101    98    1
    58   101   103    1
    59   115   113    1
    60    98    99    1
    61   162   161    1
    62    72    71    1
    63    88    86    1
    64    81    82    1
    65    86    85    1
    66   114   113    1
    67    15    16    1
    68   113   112    2
    69   161   160    1
    70     1     2    1
    71    71    70    1
    72    71    74    1
    73    17    16    1
    74    17    18    2
    75    85    82    1
    76    85    87    1
    77    82    83    1
    78    16    19    1
    79     2     3    1
    80     2     5    1
    81   112   111    1
    82     4     3    2
    83    77    79   ar
    84    77    75   ar
    85    79    80   ar
    86   135   134    1
    87   160   159    1
    88    74    75    1
    89    75    76   ar
    90     7     6    1
    91    80    78   ar
    92    83    84    2
    93     5     6    1
    94   111   110    1
    95    19    20    1
    96    95    94    1
    97    96    94    1
    98    94    93    1
    99     6     8    1
   100    76    78   ar
   101   134   132   ar
   102   134   133   ar
   103   105   106    1
   104   159   156    1
   105    20    22    1
   106    20    21    1
   107   110   109    1
   108   132   130   ar
   109    89    90    1
   110   133   131   ar
   111   149   148    1
   112   150   148    1
   113   109   106    1
   114    93    90    1
   115   156   155    1
   116   156   157    1
   117   106   107    1
   118    90    91    1
   119   122   120    1
   120   155   153   am
   121   139   138    2
   122   108   107    2
   123   147   146    2
   124   148   145    1
   125   145   146    1
   126   145   144    1
   127   130   129   ar
   128   131   129   ar
   129   152   153    1
   130   152   151    1
   131   143   141    1
   132   153   154    2
   133   138   144   am
   134   138   137    1
   135   140   141    1
   136   140   137    1
   137   142   141    1
   138   157   158    2
   139   129   128    1
   140   123   121    1
   141   120   121    1
   142   120   117    1
   143    91    92    2
   144   137   136    1
   145   118   117    1
   146   118   119    2
   147   117   116    1
   148   127   126    2
   149   128   125    1
   150   126   125    1
   151   125   124    1
