@<TRIPOS>MOLECULE
tmp/6gjkB04.pdb
 94 96 0 0 0
SMALL
GASTEIGER

@<TRIPOS>ATOM
      1  N         34.4690   51.5250   27.6200 N.3    73  LEU73      -0.1231
      2  CA        35.2650   52.3420   26.7040 C.3    73  LEU73       0.1693
      3  C         35.4820   51.7150   25.3230 C.2    73  LEU73       0.2592
      4  O         35.9460   52.4000   24.4070 O.2    73  LEU73      -0.2718
      5  CB        36.5950   52.7310   27.3630 C.3    73  LEU73       0.0284
      6  CG        36.4550   53.6680   28.5420 C.3    73  LEU73       0.0019
      7  CD1       37.7720   53.7770   29.3190 C.3    73  LEU73       0.0001
      8  CD2       35.9930   55.0440   28.1170 C.3    73  LEU73       0.0001
      9  N         35.1830   50.4300   25.1660 N.am   74  ARG74      -0.1966
     10  CA        35.2170   49.8190   23.8250 C.3    74  ARG74       0.1729
     11  C         34.0590   50.2700   22.9450 C.2    74  ARG74       0.2616
     12  O         34.1220   50.1130   21.7170 O.2    74  ARG74      -0.2715
     13  CB        35.2710   48.2980   23.9020 C.3    74  ARG74       0.0348
     14  CG        36.4690   47.7810   24.6890 C.3    74  ARG74       0.0492
     15  CD        36.7900   46.3310   24.4040 C.3    74  ARG74       0.2205
     16  NE        37.7530   45.8340   25.3800 N.pl3  74  ARG74      -0.0865
     17  CZ        37.4550   45.2210   26.5260 C.cat  74  ARG74       0.5346
     18  NH1       36.1800   44.9700   26.8750 N.pl3  74  ARG74       0.1354
     19  NH2       38.4480   44.8540   27.3380 N.pl3  74  ARG74       0.1354
     20  N         33.0130   50.8160   23.5670 N.am   75  ALA75      -0.1977
     21  CA        31.8350   51.3060   22.8430 C.3    75  ALA75       0.1597
     22  C         31.5880   52.7890   22.9950 C.2    75  ALA75       0.2287
     23  O         30.9440   53.3750   22.1360 O.2    75  ALA75      -0.2864
     24  CB        30.6090   50.5500   23.2980 C.3    75  ALA75       0.0319
     25  N         28.0380   56.6760   20.6820 N.3   146  HIS146     -0.1241
     26  CA        29.3490   56.6810   21.3220 C.3   146  HIS146      0.1621
     27  C         29.4300   57.6480   22.5080 C.2   146  HIS146      0.2264
     28  O         29.9660   57.2740   23.5600 O.2   146  HIS146     -0.2867
     29  CB        30.4510   57.0170   20.2990 C.3   146  HIS146      0.0745
     30  CG        31.8420   56.8450   20.8270 C.ar  146  HIS146      0.0817
     31  ND1       32.6910   57.9050   21.0610 N.ar  146  HIS146     -0.2268
     32  CD2       32.5440   55.7300   21.1260 C.ar  146  HIS146      0.1154
     33  CE1       33.8460   57.4470   21.5050 C.ar  146  HIS146      0.1986
     34  NE2       33.7850   56.1310   21.5500 N.ar  146  HIS146     -0.2212
     35  N         25.7940   54.4530   15.0210 N.3   189  ASP189     -0.1225
     36  CA        26.8160   55.4800   15.2770 C.3   189  ASP189      0.1805
     37  C         28.1480   54.8870   15.7150 C.2   189  ASP189      0.2598
     38  O         29.2070   55.2470   15.1970 O.2   189  ASP189     -0.2718
     39  CB        26.3320   56.4750   16.3420 C.3   189  ASP189      0.1424
     40  CG        27.3920   57.4950   16.7230 C.2   189  ASP189      0.3668
     41  OD1       27.5430   58.4590   15.9510 O.co2 189  ASP189     -0.2456
     42  OD2       28.0820   57.3410   17.7770 O.co2 189  ASP189     -0.2456
     43  N         28.1000   53.9540   16.6430 N.am  190  ILE190     -0.1966
     44  CA        29.3270   53.4450   17.2540 C.3   190  ILE190      0.1727
     45  C         30.2250   52.7620   16.2180 C.2   190  ILE190      0.2616
     46  O         31.4560   52.9570   16.2230 O.2   190  ILE190     -0.2715
     47  CB        29.0130   52.5290   18.4530 C.3   190  ILE190      0.0290
     48  CG1       28.4810   53.3660   19.6220 C.3   190  ILE190      0.0022
     49  CG2       30.2490   51.7380   18.8800 C.3   190  ILE190      0.0023
     50  CD1       27.7380   52.5340   20.6600 C.3   190  ILE190      0.0001
     51  N         29.6150   51.9890   15.3190 N.am  191  TRP191     -0.1960
     52  CA        30.3710   51.1880   14.3580 C.3   191  TRP191      0.1771
     53  C         30.3320   51.7640   12.9400 C.2   191  TRP191      0.2620
     54  O         30.7100   51.0680   11.9870 O.2   191  TRP191     -0.2715
     55  CB        29.8700   49.7410   14.3990 C.3   191  TRP191      0.0590
     56  CG        29.8540   49.1630   15.7320 C.ar  191  TRP191      0.0006
     57  CD1       28.7620   48.9690   16.5400 C.ar  191  TRP191      0.0946
     58  CD2       30.9910   48.7660   16.5010 C.ar  191  TRP191      0.0152
     59  NE1       29.1460   48.4340   17.7250 N.ar  191  TRP191     -0.2442
     60  CE2       30.5070   48.2900   17.7350 C.ar  191  TRP191      0.0810
     61  CE3       32.3680   48.7260   16.2550 C.ar  191  TRP191      0.0012
     62  CZ2       31.3500   47.8250   18.7440 C.ar  191  TRP191      0.0191
     63  CZ3       33.2040   48.2450   17.2540 C.ar  191  TRP191      0.0001
     64  CH2       32.6950   47.7930   18.4770 C.ar  191  TRP191      0.0015
     65  N         29.9100   53.0250   12.8160 N.am  192  TRP192     -0.1960
     66  CA        29.7050   53.6900   11.5280 C.3   192  TRP192      0.1771
     67  C         30.8790   53.5370   10.5770 C.2   192  TRP192      0.2620
     68  O         30.6640   53.2670    9.3970 O.2   192  TRP192     -0.2715
     69  CB        29.4410   55.1680   11.7790 C.3   192  TRP192      0.0590
     70  CG        29.0450   55.9880   10.6170 C.ar  192  TRP192      0.0006
     71  CD1       29.7960   56.9390   10.0120 C.ar  192  TRP192      0.0946
     72  CD2       27.7990   55.9640    9.9130 C.ar  192  TRP192      0.0152
     73  NE1       29.1070   57.5300    8.9930 N.ar  192  TRP192     -0.2442
     74  CE2       27.8810   56.9290    8.8980 C.ar  192  TRP192      0.0810
     75  CE3       26.6280   55.2040   10.0330 C.ar  192  TRP192      0.0012
     76  CZ2       26.8250   57.1940    8.0280 C.ar  192  TRP192      0.0191
     77  CZ3       25.5750   55.4640    9.1630 C.ar  192  TRP192      0.0001
     78  CH2       25.6810   56.4440    8.1830 C.ar  192  TRP192      0.0015
     79  N         32.1020   53.7030   11.0920 N.am  193  ASN193     -0.1958
     80  CA        33.3040   53.6500   10.2550 C.3   193  ASN193      0.1819
     81  C         33.9940   52.2860   10.2440 C.2   193  ASN193      0.2621
     82  O         35.1180   52.1580    9.7280 O.2   193  ASN193     -0.2715
     83  CB        34.3020   54.7320   10.6790 C.3   193  ASN193      0.1195
     84  CG        33.6910   56.1140   10.7490 C.2   193  ASN193      0.2630
     85  OD1       33.4720   56.6570   11.8330 O.2   193  ASN193     -0.2716
     86  ND2       33.4330   56.6920    9.6150 N.am  193  ASN193     -0.0877
     87  N         33.3280   51.2520   10.7540 N.am  194  ASP194     -0.1971
     88  CA        33.9880   49.9990   11.0990 C.3   194  ASP194      0.1709
     89  C         33.3240   48.8060   10.4180 C.2   194  ASP194      0.2293
     90  O         32.2130   48.4340   10.7830 O.2   194  ASP194     -0.2864
     91  CB        33.9690   49.8230   12.6330 C.3   194  ASP194      0.1436
     92  CG        34.9480   48.7880   13.1190 C.2   194  ASP194      0.3671
     93  OD1       35.3460   47.9080   12.3280 O.co2 194  ASP194     -0.2456
     94  OD2       35.3050   48.8520   14.3180 O.co2 194  ASP194     -0.2456
@<TRIPOS>BOND
     1    76    78   ar
     2    76    74   ar
     3    78    77   ar
     4    74    73   ar
     5    74    72   ar
     6    73    71   ar
     7    77    75   ar
     8    68    67    2
     9    86    84   am
    10    82    81    2
    11    72    75   ar
    12    72    70   ar
    13    71    70   ar
    14    81    80    1
    15    81    87   am
    16    80    83    1
    17    80    79    1
    18    89    90    2
    19    89    88    1
    20    67    79   am
    21    67    66    1
    22    70    69    1
    23    83    84    1
    24    84    85    2
    25    87    88    1
    26    88    91    1
    27    66    69    1
    28    66    65    1
    29    54    53    2
    30    93    92   ar
    31    91    92    1
    32    65    53   am
    33    53    52    1
    34    92    94   ar
    35    52    55    1
    36    52    51    1
    37    55    56    1
    38    35    36    1
    39    38    37    2
    40    36    37    1
    41    36    39    1
    42    51    45   am
    43    37    43   am
    44    56    58   ar
    45    56    57   ar
    46    41    40   ar
    47    45    46    2
    48    45    44    1
    49    61    58   ar
    50    61    63   ar
    51    39    40    1
    52    58    60   ar
    53    57    59   ar
    54    43    44    1
    55    40    42   ar
    56    44    47    1
    57    63    64   ar
    58    59    60   ar
    59    60    62   ar
    60    47    49    1
    61    47    48    1
    62    64    62   ar
    63    48    50    1
    64    29    30    1
    65    29    26    1
    66    25    26    1
    67    30    31   ar
    68    30    32   ar
    69    31    33   ar
    70    32    34   ar
    71    26    27    1
    72    33    34   ar
    73    12    11    2
    74    23    22    2
    75    27    28    2
    76    21    22    1
    77    21    24    1
    78    21    20    1
    79    11    20   am
    80    11    10    1
    81    10    13    1
    82    10     9    1
    83    13    14    1
    84    15    14    1
    85    15    16    1
    86     4     3    2
    87     9     3   am
    88     3     2    1
    89    16    17    2
    90    17    18    1
    91    17    19    1
    92     2     5    1
    93     2     1    1
    94     5     6    1
    95     8     6    1
    96     6     7    1
