@<TRIPOS>MOLECULE
tmp/6gjmA00.pdb
 149 141 0 0 0
SMALL
GASTEIGER

@<TRIPOS>ATOM
      1  N          5.3030   15.0170  -12.6830 N.3    55  ARG55      -0.1245
      2  CA         5.9470   14.6040  -11.4420 C.3    55  ARG55       0.1563
      3  C          6.0000   13.0840  -11.3330 C.2    55  ARG55       0.2260
      4  O          4.9680   12.4220  -11.2230 O.2    55  ARG55      -0.2867
      5  CB         5.2140   15.1930  -10.2360 C.3    55  ARG55       0.0307
      6  CG         5.9030   14.9360   -8.9050 C.3    55  ARG55       0.0489
      7  CD         5.3570   15.8450   -7.8160 C.3    55  ARG55       0.2205
      8  NE         4.0710   15.3770   -7.3070 N.pl3  55  ARG55      -0.0865
      9  CZ         3.8620   14.9840   -6.0550 C.cat  55  ARG55       0.5346
     10  NH1        4.8560   15.0010   -5.1770 N.pl3  55  ARG55       0.1354
     11  NH2        2.6590   14.5730   -5.6790 N.pl3  55  ARG55       0.1354
     12  N          7.0690    5.5920   -5.5660 N.3    60  PHE60      -0.1227
     13  CA         5.9150    6.3200   -5.0250 C.3    60  PHE60       0.1736
     14  C          4.7910    6.3710   -6.0560 C.2    60  PHE60       0.2595
     15  O          3.8550    5.5690   -5.9750 O.2    60  PHE60      -0.2718
     16  CB         6.3590    7.7110   -4.5190 C.3    60  PHE60       0.0547
     17  CG         5.2610    8.5710   -3.9300 C.ar   60  PHE60      -0.0202
     18  CD1        4.0410    8.0500   -3.4930 C.ar   60  PHE60      -0.0042
     19  CD2        5.4730    9.9310   -3.7940 C.ar   60  PHE60      -0.0042
     20  CE1        3.0670    8.8770   -2.9530 C.ar   60  PHE60      -0.0003
     21  CE2        4.5020   10.7530   -3.2440 C.ar   60  PHE60      -0.0003
     22  CZ         3.2960   10.2240   -2.8390 C.ar   60  PHE60      -0.0000
     23  N          4.9040    7.2630   -7.0350 N.am   61  MET61      -0.1979
     24  CA         3.8380    7.4190   -8.0240 C.3    61  MET61       0.1605
     25  C          4.2770    8.2620   -9.2170 C.2    61  MET61       0.2287
     26  O          5.3250    8.9240   -9.1960 O.2    61  MET61      -0.2864
     27  CB         2.5770    8.0120   -7.3670 C.3    61  MET61       0.0413
     28  CG         2.7710    9.3660   -6.7220 C.3    61  MET61       0.0598
     29  SD         2.6890   10.7390   -7.8870 S.3    61  MET61      -0.1393
     30  CE         4.1460   11.6760   -7.4250 C.3    61  MET61       0.0692
     31  N          2.4960   11.2360  -11.5840 N.3    63  GLN63      -0.1245
     32  CA         1.3730   12.1930  -11.5890 C.3    63  GLN63       0.1566
     33  C          1.2990   12.9500  -12.9060 C.2    63  GLN63       0.2260
     34  O          2.3140   13.4350  -13.4160 O.2    63  GLN63      -0.2867
     35  CB         1.5040   13.1750  -10.4200 C.3    63  GLN63       0.0367
     36  CG         0.3030   14.0990  -10.2250 C.3    63  GLN63       0.0905
     37  CD         0.3500   14.8640   -8.9110 C.2    63  GLN63       0.2608
     38  OE1        0.9560   14.4120   -7.9400 O.2    63  GLN63      -0.2717
     39  NE2       -0.2960   16.0260   -8.8740 N.am   63  GLN63      -0.0878
     40  N          1.4940   20.8250  -12.6560 N.3    72  GLY72      -0.1210
     41  CA         0.9180   20.4340  -11.3870 C.3    72  GLY72       0.1956
     42  C          0.1330   21.4960  -10.6600 C.2    72  GLY72       0.2613
     43  O         -0.3170   21.2480   -9.5480 O.2    72  GLY72      -0.2717
     44  N         -0.0540   22.6780  -11.2530 N.am   73  THR73      -0.1938
     45  CA        -0.8550   23.7420  -10.6220 C.3    73  THR73       0.2028
     46  C         -2.2290   23.9430  -11.2620 C.2    73  THR73       0.2643
     47  O         -3.0220   24.7090  -10.7360 O.2    73  THR73      -0.2714
     48  CB        -0.1210   25.0940  -10.6360 C.3    73  THR73       0.1808
     49  OG1        0.0810   25.5220  -11.9910 O.3    73  THR73      -0.2208
     50  CG2        1.2150   24.9870   -9.9290 C.3    73  THR73       0.0379
     51  N         -2.5240   23.2540  -12.3640 N.am   74  GLY74      -0.1939
     52  CA        -3.7650   23.4790  -13.1170 C.3    74  GLY74       0.2014
     53  C         -4.6260   22.2490  -13.3290 C.2    74  GLY74       0.2639
     54  O         -4.5790   21.3020  -12.5390 O.2    74  GLY74      -0.2714
     55  N         -5.3850   22.2690  -14.4240 N.am   75  GLY75      -0.1954
     56  CA        -6.3610   21.2390  -14.7310 C.3    75  GLY75       0.1869
     57  C         -7.7700   21.6550  -14.3670 C.2    75  GLY75       0.2309
     58  O         -7.9780   22.5810  -13.5860 O.2    75  GLY75      -0.2863
     59  N        -14.3220   23.7270  -12.6180 N.3    81  GLU81      -0.1231
     60  CA       -12.9170   23.7360  -12.2180 C.3    81  GLU81       0.1699
     61  C        -12.6030   22.6220  -11.2210 C.2    81  GLU81       0.2592
     62  O        -11.5800   21.9470  -11.3580 O.2    81  GLU81      -0.2718
     63  CB       -12.4810   25.0920  -11.6560 C.3    81  GLU81       0.0402
     64  CG       -10.9830   25.1320  -11.3730 C.3    81  GLU81       0.1161
     65  CD       -10.4070   26.5300  -11.2720 C.2    81  GLU81       0.3649
     66  OE1      -11.0710   27.4240  -10.7010 O.co2  81  GLU81      -0.2457
     67  OE2       -9.2670   26.7250  -11.7520 O.co2  81  GLU81      -0.2457
     68  N        -13.4920   22.4270  -10.2420 N.am   82  LYS82      -0.1980
     69  CA       -13.3140   21.4390   -9.1730 C.3    82  LYS82       0.1596
     70  C        -14.5950   20.6450   -8.9370 C.2    82  LYS82       0.2287
     71  O        -15.6920   21.1370   -9.2330 O.2    82  LYS82      -0.2864
     72  CB       -12.9360   22.1240   -7.8540 C.3    82  LYS82       0.0298
     73  CG       -11.7550   23.0700   -7.9370 C.3    82  LYS82       0.0038
     74  CD       -11.3760   23.6070   -6.5660 C.3    82  LYS82       0.0206
     75  CE       -10.3980   24.7630   -6.6880 C.3    82  LYS82       0.1093
     76  NZ        -9.9860   25.3110   -5.3660 N.3    82  LYS82      -0.1314
     77  N         -5.4160   13.3400   -7.7320 N.3   101  ALA101     -0.1231
     78  CA        -4.6150   14.3280   -7.0230 C.3   101  ALA101      0.1694
     79  C         -5.5580   15.4120   -6.5200 C.2   101  ALA101      0.2592
     80  O         -6.6490   15.5650   -7.0640 O.2   101  ALA101     -0.2718
     81  CB        -3.5500   14.9070   -7.9450 C.3   101  ALA101      0.0304
     82  N         -5.1770   16.1400   -5.4730 N.am  102  ASN102     -0.1960
     83  CA        -6.0190   17.2410   -5.0200 C.3   102  ASN102      0.1819
     84  C         -5.2130   18.2250   -4.1860 C.2   102  ASN102      0.2621
     85  O         -4.0400   17.9800   -3.8960 O.2   102  ASN102     -0.2715
     86  CB        -7.2670   16.7110   -4.2670 C.3   102  ASN102      0.1195
     87  CG        -6.9210   16.0060   -2.9830 C.2   102  ASN102      0.2630
     88  OD1       -6.1660   16.5410   -2.1590 O.2   102  ASN102     -0.2716
     89  ND2       -7.4570   14.8020   -2.8020 N.am  102  ASN102     -0.0877
     90  N         -5.8640   19.3350   -3.8390 N.am  103  ALA103     -0.1977
     91  CA        -5.2620   20.4370   -3.0760 C.3   103  ALA103      0.1597
     92  C         -6.0240   20.7070   -1.7870 C.2   103  ALA103      0.2287
     93  O         -6.0690   21.8490   -1.3260 O.2   103  ALA103     -0.2864
     94  CB        -5.2240   21.7000   -3.9300 C.3   103  ALA103      0.0319
     95  N        -11.5180   19.1100   -3.9340 N.3   107  THR107     -0.1218
     96  CA       -10.7940   19.9280   -4.9260 C.3   107  THR107      0.1862
     97  C        -10.3020   19.0860   -6.1090 C.2   107  THR107      0.2287
     98  O         -9.2650   19.3950   -6.7050 O.2   107  THR107     -0.2866
     99  CB        -9.5920   20.6840   -4.3050 C.3   107  THR107      0.1770
    100  OG1       -8.6790   19.7480   -3.7210 O.3   107  THR107     -0.2211
    101  CG2      -10.0480   21.6940   -3.2670 C.3   107  THR107      0.0375
    102  N         -9.8730   17.9230   -9.8290 N.3   109  GLY109     -0.1210
    103  CA        -9.9760   18.5480  -11.1550 C.3   109  GLY109      0.1956
    104  C         -9.7850   17.5040  -12.2300 C.2   109  GLY109      0.2613
    105  O        -10.6380   16.6490  -12.4670 O.2   109  GLY109     -0.2717
    106  N         -8.6310   17.5890  -12.8740 N.am  110  SER110     -0.1938
    107  CA        -8.1930   16.5970  -13.8610 C.3   110  SER110      0.2055
    108  C         -6.9260   15.8470  -13.4560 C.2   110  SER110      0.2642
    109  O         -6.6690   14.7570  -13.9840 O.2   110  SER110     -0.2714
    110  CB        -7.9540   17.2250  -15.2330 C.3   110  SER110      0.2130
    111  OG        -7.0420   18.2890  -15.1380 O.3   110  SER110     -0.2179
    112  N         -6.1300   16.3830  -12.5200 N.am  111  GLN111     -0.1976
    113  CA        -4.8870   15.7130  -12.1580 C.3   111  GLN111      0.1601
    114  C         -5.1210   14.4020  -11.4260 C.2   111  GLN111      0.2287
    115  O         -6.0390   14.2890  -10.6070 O.2   111  GLN111     -0.2864
    116  CB        -3.9710   16.6050  -11.3240 C.3   111  GLN111      0.0394
    117  CG        -3.3310   17.7370  -12.1190 C.3   111  GLN111      0.0908
    118  CD        -2.3330   18.4800  -11.2720 C.2   111  GLN111      0.2608
    119  OE1       -1.3570   17.8930  -10.8120 O.2   111  GLN111     -0.2717
    120  NE2       -2.5990   19.7580  -11.0160 N.am  111  GLN111     -0.0878
    121  N         -2.9030   10.4020  -10.2890 N.3   113  PHE113     -0.1241
    122  CA        -1.6410    9.6940  -10.1520 C.3   113  PHE113      0.1605
    123  C         -1.8110    8.1930  -10.2420 C.2   113  PHE113      0.2264
    124  O         -2.8900    7.6480   -9.9620 O.2   113  PHE113     -0.2867
    125  CB        -0.8710   10.1040   -8.8830 C.3   113  PHE113      0.0534
    126  CG        -1.5940    9.8400   -7.5890 C.ar  113  PHE113     -0.0203
    127  CD1       -2.6090   10.6780   -7.1520 C.ar  113  PHE113     -0.0042
    128  CD2       -1.2560    8.7420   -6.8080 C.ar  113  PHE113     -0.0042
    129  CE1       -3.2550   10.4410   -5.9410 C.ar  113  PHE113     -0.0003
    130  CE2       -1.9100    8.5030   -5.5910 C.ar  113  PHE113     -0.0003
    131  CZ        -2.9110    9.3470   -5.1730 C.ar  113  PHE113     -0.0000
    132  N         -2.5140    7.8400    2.0360 N.3   122  LEU122     -0.1245
    133  CA        -3.4600    8.5840    1.2030 C.3   122  LEU122      0.1561
    134  C         -4.9090    8.1020    1.2940 C.2   122  LEU122      0.2260
    135  O         -5.8120    8.7680    0.7710 O.2   122  LEU122     -0.2867
    136  CB        -2.9840    8.5810   -0.2560 C.3   122  LEU122      0.0270
    137  CG        -1.5650    9.1200   -0.4870 C.3   122  LEU122      0.0019
    138  CD1       -1.2290    9.0330   -1.9640 C.3   122  LEU122      0.0001
    139  CD2       -1.4010   10.5440   -0.0030 C.3   122  LEU122      0.0001
    140  N         -7.5020   10.8410   -0.8520 N.3   126  HIS126     -0.1241
    141  CA        -7.5400   10.8500   -2.3080 C.3   126  HIS126      0.1621
    142  C         -8.5030    9.7750   -2.7650 C.2   126  HIS126      0.2264
    143  O         -8.4960    8.6680   -2.2490 O.2   126  HIS126     -0.2867
    144  CB        -6.1450   10.6270   -2.8930 C.3   126  HIS126      0.0745
    145  CG        -5.1940   11.7230   -2.5530 C.ar  126  HIS126      0.0817
    146  ND1       -4.9480   12.7840   -3.3930 N.ar  126  HIS126     -0.2268
    147  CD2       -4.4860   11.9670   -1.4240 C.ar  126  HIS126      0.1154
    148  CE1       -4.1030   13.6170   -2.8100 C.ar  126  HIS126      0.1986
    149  NE2       -3.8300   13.1600   -1.6020 N.ar  126  HIS126     -0.2212
@<TRIPOS>BOND
     1   110   111    1
     2   110   107    1
     3    56    55    1
     4    56    57    1
     5    55    53   am
     6    57    58    2
     7   109   108    2
     8   107   108    1
     9   107   106    1
    10   108   112   am
    11    34    33    2
    12    53    52    1
    13    53    54    2
    14    52    51    1
    15    33    32    1
    16   106   104   am
    17     1     2    1
    18    40    41    1
    19    59    60    1
    20   112   113    1
    21   105   104    2
    22    51    46   am
    23   104   103    1
    24    60    63    1
    25    60    61    1
    26   113   114    1
    27   113   116    1
    28   117   116    1
    29   117   118    1
    30    49    48    1
    31    67    65   ar
    32    63    64    1
    33    32    31    1
    34    32    35    1
    35     2     3    1
    36     2     5    1
    37   114   115    2
    38    41    42    1
    39    64    65    1
    40    62    61    2
    41     3     4    2
    42    65    66   ar
    43   118   120   am
    44   118   119    2
    45    46    47    2
    46    46    45    1
    47    44    42   am
    48    44    45    1
    49    61    68   am
    50   103   102    1
    51    42    43    2
    52    48    45    1
    53    48    50    1
    54    35    36    1
    55   121   122    1
    56   123   122    1
    57   123   124    2
    58    68    69    1
    59     5     6    1
    60    36    37    1
    61   122   125    1
    62    71    70    2
    63    25    26    2
    64    25    24    1
    65    69    70    1
    66    69    72    1
    67    37    39   am
    68    37    38    2
    69     6     7    1
    70   125   126    1
    71    24    27    1
    72    24    23    1
    73    81    78    1
    74    73    72    1
    75    73    74    1
    76    29    30    1
    77    29    28    1
    78     7     8    1
    79    77    78    1
    80   126   127   ar
    81   126   128   ar
    82    27    28    1
    83     8     9    2
    84   127   129   ar
    85    80    79    2
    86    23    14   am
    87    78    79    1
    88   128   130   ar
    89    98    97    2
    90    75    74    1
    91    75    76    1
    92    79    82   am
    93    97    96    1
    94    14    15    2
    95    14    13    1
    96     9    11    1
    97     9    10    1
    98   129   131   ar
    99   130   131   ar
   100    12    13    1
   101    82    83    1
   102    13    16    1
   103    83    86    1
   104    83    84    1
   105    96    99    1
   106    96    95    1
   107    16    17    1
   108    99   100    1
   109    99   101    1
   110    86    87    1
   111    84    85    2
   112    84    90   am
   113    94    91    1
   114    17    19   ar
   115    17    18   ar
   116    90    91    1
   117    19    21   ar
   118    18    20   ar
   119   146   148   ar
   120   146   145   ar
   121    21    22   ar
   122    91    92    1
   123    87    89   am
   124    87    88    2
   125    20    22   ar
   126   144   145    1
   127   144   141    1
   128   148   149   ar
   129   142   141    1
   130   142   143    2
   131   145   147   ar
   132   141   140    1
   133   138   137    1
   134    92    93    2
   135   149   147   ar
   136   137   136    1
   137   137   139    1
   138   136   133    1
   139   135   134    2
   140   133   134    1
   141   133   132    1
