@<TRIPOS>MOLECULE
tmp/6gjnA00.pdb
 189 183 0 0 0
SMALL
GASTEIGER

@<TRIPOS>ATOM
      1  N          4.3110   15.7010  -15.0300 N.3    54  HIS54      -0.1226
      2  CA         5.3060   16.6500  -14.4800 C.3    54  HIS54       0.1752
      3  C          6.1230   16.1280  -13.2950 C.2    54  HIS54       0.2595
      4  O          7.1270   16.7440  -12.9270 O.2    54  HIS54      -0.2718
      5  CB         4.6640   17.9910  -14.1290 C.3    54  HIS54       0.0759
      6  CG         3.6470   17.9180  -13.0570 C.ar   54  HIS54       0.0818
      7  ND1        2.3550   17.5110  -13.2900 N.ar   54  HIS54      -0.2268
      8  CD2        3.7400   18.1570  -11.7260 C.ar   54  HIS54       0.1154
      9  CE1        1.6880   17.5290  -12.1580 C.ar   54  HIS54       0.1986
     10  NE2        2.5100   17.8820  -11.1870 N.ar   54  HIS54      -0.2212
     11  N          5.6600   15.0640  -12.6550 N.am   55  ARG55      -0.1980
     12  CA         6.3210   14.5180  -11.4790 C.3    55  ARG55       0.1597
     13  C          6.1450   13.0190  -11.3840 C.2    55  ARG55       0.2287
     14  O          5.0650   12.5560  -11.2600 O.2    55  ARG55      -0.2864
     15  CB         5.7560   15.1720  -10.2060 C.3    55  ARG55       0.0334
     16  CG         6.2910   14.5830   -8.9020 C.3    55  ARG55       0.0492
     17  CD         6.3160   15.5920   -7.7670 C.3    55  ARG55       0.2205
     18  NE         4.9940   15.8810   -7.2510 N.pl3  55  ARG55      -0.0865
     19  CZ         4.7460   16.5080   -6.1150 C.cat  55  ARG55       0.5346
     20  NH1        5.7280   16.9230   -5.3420 N.pl3  55  ARG55       0.1354
     21  NH2        3.5080   16.7290   -5.7620 N.pl3  55  ARG55       0.1354
     22  N          7.8850    9.7390   -9.2920 N.3    57  ILE57      -0.1245
     23  CA         8.7710    9.3540   -8.1620 C.3    57  ILE57       0.1561
     24  C          8.7660    7.8430   -8.2190 C.2    57  ILE57       0.2260
     25  O          7.7720    7.2080   -7.8440 O.2    57  ILE57      -0.2867
     26  CB         8.3210    9.9180   -6.8060 C.3    57  ILE57       0.0252
     27  CG1        8.3560   11.4500   -6.7780 C.3    57  ILE57       0.0019
     28  CG2        9.1290    9.2790   -5.6970 C.3    57  ILE57       0.0019
     29  CD1        7.5770   12.1020   -5.5630 C.3    57  ILE57       0.0001
     30  N          6.7310    5.0270   -6.1330 N.3    60  PHE60      -0.1227
     31  CA         5.6380    5.7500   -5.5200 C.3    60  PHE60       0.1736
     32  C          4.4910    5.9660   -6.5040 C.2    60  PHE60       0.2595
     33  O          3.4410    5.2730   -6.4250 O.2    60  PHE60      -0.2718
     34  CB         6.1670    7.0400   -4.8400 C.3    60  PHE60       0.0547
     35  CG         5.1230    7.9080   -4.1650 C.ar   60  PHE60      -0.0202
     36  CD1        3.8400    7.4610   -3.8070 C.ar   60  PHE60      -0.0042
     37  CD2        5.4550    9.2510   -3.8280 C.ar   60  PHE60      -0.0042
     38  CE1        2.9280    8.2850   -3.1760 C.ar   60  PHE60      -0.0003
     39  CE2        4.4900   10.1000   -3.2500 C.ar   60  PHE60      -0.0003
     40  CZ         3.2180    9.6150   -2.9160 C.ar   60  PHE60      -0.0000
     41  N          4.6500    6.8910   -7.4300 N.am   61  MET61      -0.1979
     42  CA         3.6020    7.2210   -8.3510 C.3    61  MET61       0.1605
     43  C          4.0670    8.0970   -9.5010 C.2    61  MET61       0.2287
     44  O          5.1250    8.6820   -9.4520 O.2    61  MET61      -0.2864
     45  CB         2.4210    7.9490   -7.5950 C.3    61  MET61       0.0413
     46  CG         2.8200    9.2210   -6.8730 C.3    61  MET61       0.0598
     47  SD         2.6860   10.6640   -7.9580 S.3    61  MET61      -0.1393
     48  CE         4.2150   11.5070   -7.6050 C.3    61  MET61       0.0692
     49  N          2.5150   11.3800  -11.5980 N.3    63  GLN63      -0.1245
     50  CA         1.5000   12.4720  -11.5370 C.3    63  GLN63       0.1566
     51  C          1.4500   13.3090  -12.8370 C.2    63  GLN63       0.2260
     52  O          2.4940   13.7040  -13.3890 O.2    63  GLN63      -0.2867
     53  CB         1.8770   13.4410  -10.4140 C.3    63  GLN63       0.0367
     54  CG         0.7320   14.2640   -9.9400 C.3    63  GLN63       0.0905
     55  CD         1.1060   15.0920   -8.7470 C.2    63  GLN63       0.2608
     56  OE1        2.2040   14.9340   -8.1440 O.2    63  GLN63      -0.2717
     57  NE2        0.3120   16.1300   -8.5490 N.am   63  GLN63      -0.0878
     58  N          3.0370   22.2150  -14.8120 N.3    71  ASN71      -0.1225
     59  CA         4.0160   22.0670  -13.7420 C.3    71  ASN71       0.1785
     60  C          3.4970   21.6640  -12.3500 C.2    71  ASN71       0.2598
     61  O          4.2670   21.6940  -11.3840 O.2    71  ASN71      -0.2718
     62  CB         4.7660   23.4250  -13.6910 C.3    71  ASN71       0.1169
     63  CG         3.8750   24.5830  -13.1820 C.2    71  ASN71       0.2627
     64  OD1        2.7100   24.4010  -12.8360 O.2    71  ASN71      -0.2716
     65  ND2        4.4640   25.7680  -13.0580 N.am   71  ASN71      -0.0877
     66  N          2.2310   21.2670  -12.2510 N.am   72  GLY72      -0.1942
     67  CA         1.5670   20.9960  -11.0170 C.3    72  GLY72       0.2014
     68  C          0.8940   22.1280  -10.2740 C.2    72  GLY72       0.2640
     69  O          0.2920   21.8870   -9.2120 O.2    72  GLY72      -0.2714
     70  N          0.8150   23.3220  -10.8710 N.am   73  THR73      -0.1936
     71  CA         0.0550   24.4220  -10.2790 C.3    73  THR73       0.2028
     72  C         -1.3140   24.7060  -10.9190 C.2    73  THR73       0.2643
     73  O         -2.0570   25.6190  -10.4640 O.2    73  THR73      -0.2714
     74  CB         0.8610   25.7240  -10.3300 C.3    73  THR73       0.1808
     75  OG1        1.0460   26.1630  -11.6640 O.3    73  THR73      -0.2208
     76  CG2        2.2450   25.4800   -9.7330 C.3    73  THR73       0.0379
     77  N         -1.6680   23.9330  -11.9560 N.am   74  GLY74      -0.1939
     78  CA        -2.8360   24.2360  -12.7440 C.3    74  GLY74       0.2014
     79  C         -3.7810   23.0970  -13.0080 C.2    74  GLY74       0.2639
     80  O         -3.9170   22.1080  -12.2310 O.2    74  GLY74      -0.2714
     81  N         -4.5380   23.2630  -14.1030 N.am   75  GLY75      -0.1954
     82  CA        -5.6060   22.3270  -14.4690 C.3    75  GLY75       0.1869
     83  C         -6.9780   22.8660  -14.0540 C.2    75  GLY75       0.2309
     84  O         -7.1240   23.6850  -13.1160 O.2    75  GLY75      -0.2863
     85  N        -12.5690   23.9330   -9.6590 N.3    82  LYS82      -0.1245
     86  CA       -12.4490   22.8620   -8.6480 C.3    82  LYS82       0.1561
     87  C        -13.7940   22.1820   -8.3730 C.2    82  LYS82       0.2260
     88  O        -14.8560   22.7920   -8.5890 O.2    82  LYS82      -0.2867
     89  CB       -11.9170   23.4070   -7.3170 C.3    82  LYS82       0.0271
     90  CG       -10.6070   24.2010   -7.3520 C.3    82  LYS82       0.0035
     91  CD       -10.2820   24.6830   -5.9290 C.3    82  LYS82       0.0206
     92  CE        -9.3600   25.8920   -5.9470 C.3    82  LYS82       0.1093
     93  NZ        -9.3920   26.5070   -7.3100 N.3    82  LYS82      -0.1314
     94  N         -5.2210   14.0050   -7.5530 N.3   101  ALA101     -0.1231
     95  CA        -4.3220   14.8260   -6.7960 C.3   101  ALA101      0.1694
     96  C         -5.1520   15.9780   -6.2150 C.2   101  ALA101      0.2592
     97  O         -6.2210   16.3430   -6.7850 O.2   101  ALA101     -0.2718
     98  CB        -3.2680   15.3570   -7.7340 C.3   101  ALA101      0.0304
     99  N         -4.6420   16.6350   -5.1850 N.am  102  ASN102     -0.1960
    100  CA        -5.3900   17.8480   -4.6930 C.3   102  ASN102      0.1819
    101  C         -4.5330   18.7260   -3.8210 C.2   102  ASN102      0.2621
    102  O         -3.3690   18.4200   -3.5700 O.2   102  ASN102     -0.2715
    103  CB        -6.6930   17.4140   -3.9460 C.3   102  ASN102      0.1195
    104  CG        -6.3890   16.6400   -2.7140 C.2   102  ASN102      0.2630
    105  OD1       -5.6360   17.0820   -1.8850 O.2   102  ASN102     -0.2716
    106  ND2       -6.9980   15.5040   -2.5610 N.am  102  ASN102     -0.0877
    107  N         -5.1190   19.8190   -3.3460 N.am  103  ALA103     -0.1977
    108  CA        -4.4280   20.7920   -2.5320 C.3   103  ALA103      0.1597
    109  C         -5.1730   21.1320   -1.2750 C.2   103  ALA103      0.2287
    110  O         -5.1040   22.2920   -0.8110 O.2   103  ALA103     -0.2864
    111  CB        -4.2550   22.0480   -3.3600 C.3   103  ALA103      0.0319
    112  N        -10.8230   20.0750   -3.5150 N.3   107  THR107     -0.1218
    113  CA       -10.0330   20.9330   -4.4250 C.3   107  THR107      0.1862
    114  C         -9.6460   20.1680   -5.6620 C.2   107  THR107      0.2287
    115  O         -8.6580   20.4970   -6.3380 O.2   107  THR107     -0.2866
    116  CB        -8.8050   21.5800   -3.7480 C.3   107  THR107      0.1770
    117  OG1       -7.8740   20.6040   -3.2940 O.3   107  THR107     -0.2211
    118  CG2       -9.2010   22.5030   -2.6330 C.3   107  THR107      0.0375
    119  N         -9.3500   19.0340   -9.4870 N.3   109  GLY109     -0.1210
    120  CA        -9.4710   19.6820  -10.7810 C.3   109  GLY109      0.1956
    121  C         -9.3420   18.6690  -11.9010 C.2   109  GLY109      0.2613
    122  O        -10.2220   17.8820  -12.1460 O.2   109  GLY109     -0.2717
    123  N         -8.1760   18.6860  -12.5290 N.am  110  SER110     -0.1938
    124  CA        -7.7800   17.6880  -13.5710 C.3   110  SER110      0.2055
    125  C         -6.5780   16.8660  -13.1870 C.2   110  SER110      0.2642
    126  O         -6.3810   15.7470  -13.7720 O.2   110  SER110     -0.2714
    127  CB        -7.4630   18.3790  -14.8940 C.3   110  SER110      0.2130
    128  OG        -6.4790   19.4120  -14.7380 O.3   110  SER110     -0.2179
    129  N         -5.7850   17.3230  -12.2280 N.am  111  GLN111     -0.1976
    130  CA        -4.5370   16.5710  -11.8450 C.3   111  GLN111      0.1601
    131  C         -4.8610   15.2030  -11.1960 C.2   111  GLN111      0.2287
    132  O         -5.7970   15.1160  -10.4240 O.2   111  GLN111     -0.2864
    133  CB        -3.6210   17.3960  -10.9530 C.3   111  GLN111      0.0394
    134  CG        -2.9540   18.5380  -11.7050 C.3   111  GLN111      0.0908
    135  CD        -1.8680   19.1980  -10.8660 C.2   111  GLN111      0.2608
    136  OE1       -0.9550   18.4910  -10.3600 O.2   111  GLN111     -0.2717
    137  NE2       -1.9780   20.5440  -10.6290 N.am  111  GLN111     -0.0878
    138  N         -3.0070   10.9760  -10.3320 N.3   113  PHE113     -0.1241
    139  CA        -1.7980   10.1580  -10.2430 C.3   113  PHE113      0.1605
    140  C         -2.1250    8.7060  -10.4260 C.2   113  PHE113      0.2264
    141  O         -3.2210    8.2180  -10.1530 O.2   113  PHE113     -0.2867
    142  CB        -0.9820   10.3760   -8.9110 C.3   113  PHE113      0.0534
    143  CG        -1.7480   10.0900   -7.6390 C.ar  113  PHE113     -0.0203
    144  CD1       -2.6650   10.9930   -7.1110 C.ar  113  PHE113     -0.0042
    145  CD2       -1.4800    8.9280   -6.9180 C.ar  113  PHE113     -0.0042
    146  CE1       -3.3190   10.7360   -5.9110 C.ar  113  PHE113     -0.0003
    147  CE2       -2.1050    8.6900   -5.7300 C.ar  113  PHE113     -0.0003
    148  CZ        -3.0720    9.5360   -5.2500 C.ar  113  PHE113     -0.0000
    149  N         -1.6030    5.5190    3.0970 N.3   121  TRP121     -0.1227
    150  CA        -1.6420    6.7650    3.7650 C.3   121  TRP121      0.1737
    151  C         -2.4630    7.8460    3.0310 C.2   121  TRP121      0.2595
    152  O         -2.8430    8.9240    3.6370 O.2   121  TRP121     -0.2718
    153  CB        -0.1980    7.2100    4.1040 C.3   121  TRP121      0.0564
    154  CG         0.6320    7.4760    2.9080 C.ar  121  TRP121      0.0003
    155  CD1        0.7560    8.6560    2.2420 C.ar  121  TRP121      0.0946
    156  CD2        1.4630    6.5500    2.2440 C.ar  121  TRP121      0.0152
    157  NE1        1.6140    8.5200    1.2040 N.ar  121  TRP121     -0.2442
    158  CE2        2.0400    7.2150    1.1530 C.ar  121  TRP121      0.0810
    159  CE3        1.7320    5.1910    2.4330 C.ar  121  TRP121      0.0012
    160  CZ2        2.9100    6.5770    0.2670 C.ar  121  TRP121      0.0191
    161  CZ3        2.6080    4.5430    1.5720 C.ar  121  TRP121      0.0001
    162  CH2        3.1980    5.2330    0.5020 C.ar  121  TRP121      0.0015
    163  N         -2.8130    7.6130    1.7390 N.am  122  LEU122     -0.1980
    164  CA        -3.6310    8.5540    1.0070 C.3   122  LEU122      0.1596
    165  C         -5.1250    8.2800    1.1280 C.2   122  LEU122      0.2287
    166  O         -5.9600    9.1020    0.6970 O.2   122  LEU122     -0.2864
    167  CB        -3.1730    8.6660   -0.4940 C.3   122  LEU122      0.0297
    168  CG        -1.6620    8.9270   -0.6720 C.3   122  LEU122      0.0022
    169  CD1       -1.2850    8.8640   -2.1350 C.3   122  LEU122      0.0001
    170  CD2       -1.2810   10.2700   -0.0550 C.3   122  LEU122      0.0001
    171  N         -8.3030   10.8560    1.9290 N.3   125  LYS125     -0.1231
    172  CA        -8.0930   12.2800    1.5470 C.3   125  LYS125      0.1693
    173  C         -7.8300   12.4720    0.0380 C.2   125  LYS125      0.2592
    174  O         -7.8690   13.6080   -0.4460 O.2   125  LYS125     -0.2718
    175  CB        -7.0230   12.9050    2.4220 C.3   125  LYS125      0.0285
    176  CG        -5.6340   12.3340    2.2570 C.3   125  LYS125      0.0035
    177  CD        -4.5420   13.3370    2.7000 C.3   125  LYS125      0.0206
    178  CE        -3.1140   12.7770    2.5210 C.3   125  LYS125      0.1093
    179  NZ        -2.0550   13.8490    2.6960 N.3   125  LYS125     -0.1314
    180  N         -7.5590   11.3690   -0.6960 N.am  126  HIS126     -0.1976
    181  CA        -7.4820   11.3890   -2.1680 C.3   126  HIS126      0.1656
    182  C         -8.5020   10.4220   -2.7250 C.2   126  HIS126      0.2291
    183  O         -8.5980    9.2920   -2.2230 O.2   126  HIS126     -0.2864
    184  CB        -6.0580   11.0440   -2.7070 C.3   126  HIS126      0.0771
    185  CG        -5.0030   12.0490   -2.3490 C.ar  126  HIS126      0.0820
    186  ND1       -4.6570   13.0870   -3.1910 N.ar  126  HIS126     -0.2267
    187  CD2       -4.2340   12.1910   -1.2560 C.ar  126  HIS126      0.1154
    188  CE1       -3.7600   13.8530   -2.6000 C.ar  126  HIS126      0.1986
    189  NE2       -3.4930   13.3540   -1.4090 N.ar  126  HIS126     -0.2212
@<TRIPOS>BOND
     1     1     2    1
     2   127   128    1
     3   127   124    1
     4    58    59    1
     5     2     5    1
     6     2     3    1
     7    82    81    1
     8    82    83    1
     9     5     6    1
    10    81    79   am
    11    83    84    2
    12   126   125    2
    13    59    62    1
    14    59    60    1
    15    62    63    1
    16   124   125    1
    17   124   123    1
    18    52    51    2
    19     3     4    2
    20     3    11   am
    21     7     6   ar
    22     7     9   ar
    23   125   129   am
    24    63    65   am
    25    63    64    2
    26     6     8   ar
    27    79    78    1
    28    79    80    2
    29    51    50    1
    30    78    77    1
    31    11    12    1
    32   123   121   am
    33    60    66   am
    34    60    61    2
    35    66    67    1
    36   129   130    1
    37     9    10   ar
    38   122   121    2
    39    77    72   am
    40   121   120    1
    41   130   131    1
    42   130   133    1
    43     8    10   ar
    44   134   133    1
    45   134   135    1
    46    75    74    1
    47    49    50    1
    48    50    53    1
    49    12    13    1
    50    12    15    1
    51    13    14    2
    52   131   132    2
    53    67    68    1
    54    72    73    2
    55    72    71    1
    56    70    71    1
    57    70    68   am
    58   135   137   am
    59   135   136    2
    60   120   119    1
    61   140   139    1
    62   140   141    2
    63    53    54    1
    64   138   139    1
    65    74    71    1
    66    74    76    1
    67    68    69    2
    68   139   142    1
    69    15    16    1
    70    54    55    1
    71    85    86    1
    72    43    44    2
    73    43    42    1
    74    22    23    1
    75   142   143    1
    76    16    17    1
    77    55    57   am
    78    55    56    2
    79    86    87    1
    80    86    89    1
    81    88    87    2
    82    42    45    1
    83    42    41    1
    84    24    23    1
    85    24    25    2
    86    23    26    1
    87    47    48    1
    88    47    46    1
    89    17    18    1
    90    98    95    1
    91   143   144   ar
    92   143   145   ar
    93    45    46    1
    94    94    95    1
    95    41    32   am
    96    90    89    1
    97    90    91    1
    98    93    92    1
    99    18    19    2
   100   144   146   ar
   101   145   147   ar
   102    26    27    1
   103    26    28    1
   104    95    96    1
   105    97    96    2
   106    27    29    1
   107    32    33    2
   108    32    31    1
   109   115   114    2
   110    96    99   am
   111    30    31    1
   112    19    21    1
   113    19    20    1
   114    92    91    1
   115   146   148   ar
   116   147   148   ar
   117   114   113    1
   118    31    34    1
   119    99   100    1
   120    34    35    1
   121   100   103    1
   122   100   101    1
   123   113   116    1
   124   113   112    1
   125    35    37   ar
   126    35    36   ar
   127   103   104    1
   128    37    39   ar
   129   101   102    2
   130   101   107   am
   131    36    38   ar
   132   116   117    1
   133   116   118    1
   134   111   108    1
   135   107   108    1
   136    39    40   ar
   137   186   188   ar
   138   186   185   ar
   139    38    40   ar
   140   182   183    2
   141   182   181    1
   142   104   106   am
   143   104   105    2
   144   184   185    1
   145   184   181    1
   146   188   189   ar
   147   108   109    1
   148   185   187   ar
   149   181   180    1
   150   169   168    1
   151   189   187   ar
   152   109   110    2
   153   180   173   am
   154   168   167    1
   155   168   170    1
   156   167   164    1
   157   174   173    2
   158   173   172    1
   159   160   162   ar
   160   160   158   ar
   161   162   161   ar
   162   166   165    2
   163   164   165    1
   164   164   163    1
   165   158   157   ar
   166   158   156   ar
   167   157   155   ar
   168   172   171    1
   169   172   175    1
   170   161   159   ar
   171   163   151   am
   172   155   154   ar
   173   156   159   ar
   174   156   154   ar
   175   176   175    1
   176   176   177    1
   177   178   179    1
   178   178   177    1
   179   154   153    1
   180   151   152    2
   181   151   150    1
   182   149   150    1
   183   150   153    1
