@<TRIPOS>MOLECULE
tmp/6gjpA00.pdb
 140 132 0 0 0
SMALL
GASTEIGER

@<TRIPOS>ATOM
      1  N          5.3080   15.0290  -12.8210 N.3    55  ARG55      -0.1245
      2  CA         5.9520   14.6130  -11.5880 C.3    55  ARG55       0.1563
      3  C          5.9690   13.1090  -11.4300 C.2    55  ARG55       0.2260
      4  O          4.9300   12.4640  -11.2950 O.2    55  ARG55      -0.2867
      5  CB         5.2600   15.2560  -10.3830 C.3    55  ARG55       0.0307
      6  CG         5.8710   14.8790   -9.0430 C.3    55  ARG55       0.0489
      7  CD         5.4250   15.8320   -7.9460 C.3    55  ARG55       0.2205
      8  NE         4.1640   15.4170   -7.3400 N.pl3  55  ARG55      -0.0865
      9  CZ         4.0440   14.9780   -6.0910 C.cat  55  ARG55       0.5346
     10  NH1        5.1120   14.8950   -5.3100 N.pl3  55  ARG55       0.1354
     11  NH2        2.8560   14.6210   -5.6230 N.pl3  55  ARG55       0.1354
     12  N          7.0560    5.5230   -5.7640 N.3    60  PHE60      -0.1227
     13  CA         5.9150    6.2530   -5.1960 C.3    60  PHE60       0.1736
     14  C          4.8070    6.3310   -6.2490 C.2    60  PHE60       0.2595
     15  O          3.8140    5.5970   -6.1640 O.2    60  PHE60      -0.2718
     16  CB         6.3730    7.6000   -4.6160 C.3    60  PHE60       0.0547
     17  CG         5.2720    8.4250   -3.9960 C.ar   60  PHE60      -0.0202
     18  CD1        4.0630    7.8550   -3.5500 C.ar   60  PHE60      -0.0042
     19  CD2        5.4620    9.7960   -3.8120 C.ar   60  PHE60      -0.0042
     20  CE1        3.0530    8.6590   -2.9890 C.ar   60  PHE60      -0.0003
     21  CE2        4.4740   10.5900   -3.2510 C.ar   60  PHE60      -0.0003
     22  CZ         3.2780   10.0290   -2.8380 C.ar   60  PHE60      -0.0000
     23  N          4.9740    7.1450   -7.2890 N.am   61  MET61      -0.1979
     24  CA         3.7930    7.4560   -8.1370 C.3    61  MET61       0.1605
     25  C          4.1820    8.2800   -9.3520 C.2    61  MET61       0.2287
     26  O          5.2320    8.9250   -9.3230 O.2    61  MET61      -0.2864
     27  CB         2.5900    8.0700   -7.3210 C.3    61  MET61       0.0413
     28  CG         2.7510    9.4330   -6.7310 C.3    61  MET61       0.0598
     29  SD         2.7440   10.7550   -8.0050 S.3    61  MET61      -0.1393
     30  CE         4.2790   11.5600   -7.4990 C.3    61  MET61       0.0692
     31  N          2.5260   11.2920  -11.6320 N.3    63  GLN63      -0.1245
     32  CA         1.4410   12.2640  -11.6740 C.3    63  GLN63       0.1566
     33  C          1.3590   13.0520  -13.0350 C.2    63  GLN63       0.2260
     34  O          2.3650   13.5190  -13.5570 O.2    63  GLN63      -0.2867
     35  CB         1.5900   13.1970  -10.4430 C.3    63  GLN63       0.0367
     36  CG         0.4200   14.1280  -10.2330 C.3    63  GLN63       0.0905
     37  CD         0.4840   14.9420   -8.9250 C.2    63  GLN63       0.2608
     38  OE1        1.0530   14.5170   -7.9380 O.2    63  GLN63      -0.2717
     39  NE2       -0.1580   16.1290   -8.9360 N.am   63  GLN63      -0.0878
     40  N          1.6490   21.0550  -12.8770 N.3    72  GLY72      -0.1210
     41  CA         1.1170   20.6880  -11.5490 C.3    72  GLY72       0.1956
     42  C          0.3570   21.7310  -10.7720 C.2    72  GLY72       0.2613
     43  O         -0.1570   21.4390   -9.6970 O.2    72  GLY72      -0.2717
     44  N          0.1990   22.9190  -11.3440 N.am   73  THR73      -0.1938
     45  CA        -0.5770   23.9530  -10.7110 C.3    73  THR73       0.2028
     46  C         -1.9300   24.1150  -11.3520 C.2    73  THR73       0.2643
     47  O         -2.7390   24.8960  -10.8480 O.2    73  THR73      -0.2714
     48  CB         0.1790   25.2790  -10.7710 C.3    73  THR73       0.1808
     49  OG1        0.2940   25.6990  -12.1560 O.3    73  THR73      -0.2208
     50  CG2        1.5620   25.0760  -10.1280 C.3    73  THR73       0.0379
     51  N         -2.2610   23.3310  -12.3840 N.am   74  GLY74      -0.1939
     52  CA        -3.5000   23.5660  -13.1440 C.3    74  GLY74       0.2014
     53  C         -4.4040   22.3810  -13.3720 C.2    74  GLY74       0.2639
     54  O         -4.3720   21.4000  -12.6010 O.2    74  GLY74      -0.2714
     55  N         -5.1630   22.4650  -14.4710 N.am   75  GLY75      -0.1954
     56  CA        -6.1910   21.4980  -14.7790 C.3    75  GLY75       0.1869
     57  C         -7.5970   21.9100  -14.3460 C.2    75  GLY75       0.2309
     58  O         -7.8210   22.8250  -13.5870 O.2    75  GLY75      -0.2863
     59  N        -13.3210   22.7540  -10.1350 N.3    82  LYS82      -0.1245
     60  CA       -13.1270   21.6940   -9.1010 C.3    82  LYS82       0.1561
     61  C        -14.5260   20.8970   -8.7370 C.2    82  LYS82       0.2260
     62  O        -15.6810   21.2630   -9.0810 O.2    82  LYS82      -0.2867
     63  CB       -12.5570   22.2680   -7.8210 C.3    82  LYS82       0.0271
     64  CG       -11.1700   22.8600   -7.9520 C.3    82  LYS82       0.0035
     65  CD       -11.0130   24.1710   -7.1880 C.3    82  LYS82       0.0206
     66  CE       -10.3240   24.0040   -5.8510 C.3    82  LYS82       0.1093
     67  NZ        -9.8550   25.2890   -5.2670 N.3    82  LYS82      -0.1314
     68  N         -5.4010   13.5060   -7.7280 N.3   101  ALA101     -0.1231
     69  CA        -4.5390   14.3950   -7.0410 C.3   101  ALA101      0.1694
     70  C         -5.4430   15.5030   -6.4960 C.2   101  ALA101      0.2592
     71  O         -6.5330   15.6980   -6.9930 O.2   101  ALA101     -0.2718
     72  CB        -3.4860   14.9670   -8.0540 C.3   101  ALA101      0.0304
     73  N         -5.0020   16.3110   -5.5410 N.am  102  ASN102     -0.1960
     74  CA        -5.8650   17.4040   -5.1060 C.3   102  ASN102      0.1819
     75  C         -5.1020   18.3700   -4.2260 C.2   102  ASN102      0.2621
     76  O         -3.9550   18.1050   -3.8730 O.2   102  ASN102     -0.2715
     77  CB        -7.1200   16.9180   -4.3170 C.3   102  ASN102      0.1195
     78  CG        -6.7730   16.1480   -3.0250 C.2   102  ASN102      0.2630
     79  OD1       -6.0120   16.6250   -2.1440 O.2   102  ASN102     -0.2716
     80  ND2       -7.3760   14.9580   -2.8850 N.am  102  ASN102     -0.0877
     81  N         -5.7730   19.4320   -3.8030 N.am  103  ALA103     -0.1977
     82  CA        -5.1380   20.5210   -2.9910 C.3   103  ALA103      0.1597
     83  C         -5.8780   20.7520   -1.6940 C.2   103  ALA103      0.2287
     84  O         -5.8390   21.8500   -1.1530 O.2   103  ALA103     -0.2864
     85  CB        -5.1020   21.8280   -3.7980 C.3   103  ALA103      0.0319
     86  N        -11.3710   19.2660   -3.9040 N.3   107  THR107     -0.1218
     87  CA       -10.6460   20.1360   -4.8650 C.3   107  THR107      0.1862
     88  C        -10.1180   19.2990   -6.0350 C.2   107  THR107      0.2287
     89  O         -9.1150   19.6060   -6.6260 O.2   107  THR107     -0.2866
     90  CB        -9.4590   20.8910   -4.1860 C.3   107  THR107      0.1770
     91  OG1       -8.5950   19.9600   -3.5350 O.3   107  THR107     -0.2211
     92  CG2       -9.9170   21.9020   -3.1190 C.3   107  THR107      0.0375
     93  N         -9.8130   18.1530   -9.8450 N.3   109  GLY109     -0.1210
     94  CA        -9.9200   18.8290  -11.1610 C.3   109  GLY109      0.1956
     95  C         -9.7310   17.7620  -12.2290 C.2   109  GLY109      0.2613
     96  O        -10.6320   16.9230  -12.4930 O.2   109  GLY109     -0.2717
     97  N         -8.5350   17.7800  -12.8060 N.am  110  SER110     -0.1938
     98  CA        -8.1120   16.7910  -13.8480 C.3   110  SER110      0.2055
     99  C         -6.8760   16.0180  -13.4420 C.2   110  SER110      0.2642
    100  O         -6.5810   14.9550  -14.0420 O.2   110  SER110     -0.2714
    101  CB        -7.8630   17.5140  -15.1720 C.3   110  SER110      0.2130
    102  OG        -6.8680   18.5690  -15.0830 O.3   110  SER110     -0.2179
    103  N         -6.0870   16.5560  -12.4990 N.am  111  GLN111     -0.1976
    104  CA        -4.8020   15.9030  -12.1930 C.3   111  GLN111      0.1601
    105  C         -5.0370   14.5580  -11.4370 C.2   111  GLN111      0.2287
    106  O         -5.9840   14.4450  -10.6240 O.2   111  GLN111     -0.2864
    107  CB        -3.9180   16.7900  -11.3690 C.3   111  GLN111      0.0394
    108  CG        -3.2230   17.8480  -12.1710 C.3   111  GLN111      0.0908
    109  CD        -2.2340   18.5880  -11.3180 C.2   111  GLN111      0.2608
    110  OE1       -1.2910   17.9960  -10.7520 O.2   111  GLN111     -0.2717
    111  NE2       -2.4370   19.8990  -11.2090 N.am  111  GLN111     -0.0878
    112  N         -2.8850   10.4810  -10.4370 N.3   113  PHE113     -0.1241
    113  CA        -1.6290    9.8050  -10.2960 C.3   113  PHE113      0.1605
    114  C         -1.8060    8.3280  -10.3810 C.2   113  PHE113      0.2264
    115  O         -2.8940    7.8060  -10.0220 O.2   113  PHE113     -0.2867
    116  CB        -0.8890   10.2180   -9.0210 C.3   113  PHE113      0.0534
    117  CG        -1.5980    9.8960   -7.7210 C.ar  113  PHE113     -0.0203
    118  CD1       -2.5370   10.7570   -7.1790 C.ar  113  PHE113     -0.0042
    119  CD2       -1.2540    8.7660   -6.9890 C.ar  113  PHE113     -0.0042
    120  CE1       -3.1540   10.5060   -5.9630 C.ar  113  PHE113     -0.0003
    121  CE2       -1.9300    8.4660   -5.7740 C.ar  113  PHE113     -0.0003
    122  CZ        -2.8420    9.3460   -5.2380 C.ar  113  PHE113     -0.0000
    123  N         -2.5380    7.8130    1.9390 N.3   122  LEU122     -0.1245
    124  CA        -3.4640    8.5760    1.0690 C.3   122  LEU122      0.1561
    125  C         -4.8940    8.1290    1.1530 C.2   122  LEU122      0.2260
    126  O         -5.7860    8.7710    0.5660 O.2   122  LEU122     -0.2867
    127  CB        -3.0230    8.4340   -0.3840 C.3   122  LEU122      0.0270
    128  CG        -1.5970    8.9900   -0.6340 C.3   122  LEU122      0.0019
    129  CD1       -1.3360    8.9910   -2.0860 C.3   122  LEU122      0.0001
    130  CD2       -1.4500   10.3860   -0.0840 C.3   122  LEU122      0.0001
    131  N         -7.3680   10.9130   -0.9580 N.3   126  HIS126     -0.1241
    132  CA        -7.4060   10.9740   -2.3780 C.3   126  HIS126      0.1621
    133  C         -8.4160    9.9050   -2.8340 C.2   126  HIS126      0.2264
    134  O         -8.4210    8.7770   -2.2710 O.2   126  HIS126     -0.2867
    135  CB        -6.0120   10.7250   -2.9720 C.3   126  HIS126      0.0745
    136  CG        -5.0260   11.8080   -2.6130 C.ar  126  HIS126      0.0817
    137  ND1       -4.7890   12.8740   -3.4340 N.ar  126  HIS126     -0.2268
    138  CD2       -4.3580   12.0630   -1.4660 C.ar  126  HIS126      0.1154
    139  CE1       -3.9620   13.7260   -2.8290 C.ar  126  HIS126      0.1986
    140  NE2       -3.6540   13.2400   -1.6500 N.ar  126  HIS126     -0.2212
@<TRIPOS>BOND
     1   101   102    1
     2   101    98    1
     3    56    55    1
     4    56    57    1
     5    55    53   am
     6    57    58    2
     7   100    99    2
     8    98    99    1
     9    98    97    1
    10    34    33    2
    11    99   103   am
    12    53    52    1
    13    53    54    2
    14    52    51    1
    15    33    32    1
    16    40    41    1
    17     1     2    1
    18    97    95   am
    19   103   104    1
    20    96    95    2
    21    51    46   am
    22    95    94    1
    23   104   105    1
    24   104   107    1
    25   108   107    1
    26   108   109    1
    27    49    48    1
    28    32    31    1
    29    32    35    1
    30     2     3    1
    31     2     5    1
    32    41    42    1
    33   105   106    2
    34     3     4    2
    35    46    47    2
    36    46    45    1
    37    44    42   am
    38    44    45    1
    39   109   111   am
    40   109   110    2
    41    94    93    1
    42    42    43    2
    43    48    45    1
    44    48    50    1
    45    35    36    1
    46   112   113    1
    47     5     6    1
    48   114   113    1
    49   114   115    2
    50   113   116    1
    51    36    37    1
    52    59    60    1
    53    25    26    2
    54    25    24    1
    55    60    61    1
    56    60    63    1
    57    62    61    2
    58     6     7    1
    59   116   117    1
    60    39    37   am
    61    37    38    2
    62    24    27    1
    63    24    23    1
    64    72    69    1
    65    29    30    1
    66    29    28    1
    67    64    63    1
    68    64    65    1
    69     7     8    1
    70    68    69    1
    71   117   118   ar
    72   117   119   ar
    73     8     9    2
    74    27    28    1
    75    23    14   am
    76    65    66    1
    77   118   120   ar
    78    69    70    1
    79    71    70    2
    80   119   121   ar
    81    89    88    2
    82    70    73   am
    83    14    15    2
    84    14    13    1
    85     9    11    1
    86     9    10    1
    87    88    87    1
    88   120   122   ar
    89    66    67    1
    90   121   122   ar
    91    12    13    1
    92    73    74    1
    93    13    16    1
    94    74    77    1
    95    74    75    1
    96    87    90    1
    97    87    86    1
    98    16    17    1
    99    77    78    1
   100    75    76    2
   101    75    81   am
   102    90    91    1
   103    90    92    1
   104    17    19   ar
   105    17    18   ar
   106    19    21   ar
   107    81    82    1
   108    85    82    1
   109    18    20   ar
   110   137   139   ar
   111   137   136   ar
   112    21    22   ar
   113    78    80   am
   114    78    79    2
   115    82    83    1
   116    20    22   ar
   117   135   136    1
   118   135   132    1
   119   133   132    1
   120   133   134    2
   121   139   140   ar
   122   136   138   ar
   123   132   131    1
   124   129   128    1
   125    83    84    2
   126   140   138   ar
   127   128   127    1
   128   128   130    1
   129   127   124    1
   130   126   125    2
   131   124   125    1
   132   124   123    1
