@<TRIPOS>MOLECULE
tmp/6gjrA00.pdb
 143 136 0 0 0
SMALL
GASTEIGER

@<TRIPOS>ATOM
      1  N          3.9240   15.3570  -15.1110 N.3    54  HIS54      -0.1226
      2  CA         4.8230   16.3710  -14.5820 C.3    54  HIS54       0.1752
      3  C          5.6200   15.9320  -13.3710 C.2    54  HIS54       0.2595
      4  O          6.6320   16.5640  -13.0850 O.2    54  HIS54      -0.2718
      5  CB         4.1130   17.6930  -14.2600 C.3    54  HIS54       0.0759
      6  CG         3.0880   17.5840  -13.1940 C.ar   54  HIS54       0.0818
      7  ND1        1.7920   17.2130  -13.4640 N.ar   54  HIS54      -0.2268
      8  CD2        3.1660   17.7260  -11.8490 C.ar   54  HIS54       0.1154
      9  CE1        1.1130   17.1320  -12.3400 C.ar   54  HIS54       0.1986
     10  NE2        1.9200   17.4570  -11.3450 N.ar   54  HIS54      -0.2212
     11  N          5.1580   14.9010  -12.6600 N.am   55  ARG55      -0.1980
     12  CA         5.7750   14.4820  -11.4050 C.3    55  ARG55       0.1597
     13  C          5.8330   12.9710  -11.3230 C.2    55  ARG55       0.2287
     14  O          4.7940   12.3270  -11.1980 O.2    55  ARG55      -0.2864
     15  CB         5.0220   15.0730  -10.1870 C.3    55  ARG55       0.0334
     16  CG         5.7740   14.8770   -8.8750 C.3    55  ARG55       0.0492
     17  CD         5.2400   15.6430   -7.6620 C.3    55  ARG55       0.2205
     18  NE         3.9630   15.1240   -7.1320 N.pl3  55  ARG55      -0.0865
     19  CZ         3.7570   14.5760   -5.9250 C.cat  55  ARG55       0.5346
     20  NH1        4.7460   14.4340   -5.0450 N.pl3  55  ARG55       0.1354
     21  NH2        2.5200   14.1470   -5.5920 N.pl3  55  ARG55       0.1354
     22  N          7.0260    5.3050   -5.7830 N.3    60  PHE60      -0.1227
     23  CA         5.8440    5.9700   -5.2200 C.3    60  PHE60       0.1736
     24  C          4.7240    6.0700   -6.2600 C.2    60  PHE60       0.2595
     25  O          3.7180    5.3380   -6.1830 O.2    60  PHE60      -0.2718
     26  CB         6.2710    7.3200   -4.6360 C.3    60  PHE60       0.0547
     27  CG         5.1730    8.1520   -4.0520 C.ar   60  PHE60      -0.0202
     28  CD1        3.9350    7.6210   -3.6150 C.ar   60  PHE60      -0.0042
     29  CD2        5.3920    9.4990   -3.8780 C.ar   60  PHE60      -0.0042
     30  CE1        2.9740    8.4330   -3.0690 C.ar   60  PHE60      -0.0003
     31  CE2        4.4310   10.3200   -3.3160 C.ar   60  PHE60      -0.0003
     32  CZ         3.2180    9.7900   -2.9050 C.ar   60  PHE60      -0.0000
     33  N          4.8740    6.9430   -7.2440 N.am   61  MET61      -0.1979
     34  CA         3.7670    7.1710   -8.1450 C.3    61  MET61       0.1605
     35  C          4.1560    8.0200   -9.3530 C.2    61  MET61       0.2287
     36  O          5.1600    8.7460   -9.2750 O.2    61  MET61      -0.2864
     37  CB         2.5310    7.7560   -7.3830 C.3    61  MET61       0.0413
     38  CG         2.6840    9.1140   -6.7480 C.3    61  MET61       0.0598
     39  SD         2.6030   10.4900   -7.9450 S.3    61  MET61      -0.1393
     40  CE         4.1780   11.3500   -7.5870 C.3    61  MET61       0.0692
     41  N          2.3820   10.9950  -11.7370 N.3    63  GLN63      -0.1245
     42  CA         1.2810   11.8930  -11.6540 C.3    63  GLN63       0.1566
     43  C          1.1960   12.8230  -12.9350 C.2    63  GLN63       0.2260
     44  O          2.1940   13.3830  -13.4080 O.2    63  GLN63      -0.2867
     45  CB         1.3800   12.7470  -10.3760 C.3    63  GLN63       0.0367
     46  CG         0.2350   13.7300  -10.1840 C.3    63  GLN63       0.0905
     47  CD         0.3650   14.5300   -8.9310 C.2    63  GLN63       0.2608
     48  OE1        1.0470   14.1600   -8.0120 O.2    63  GLN63      -0.2717
     49  NE2       -0.3200   15.6360   -8.8950 N.am   63  GLN63      -0.0878
     50  N          2.1410   21.7080  -14.7930 N.3    71  ASN71      -0.1225
     51  CA         3.1150   21.6580  -13.7080 C.3    71  ASN71       0.1785
     52  C          2.5200   21.3120  -12.3170 C.2    71  ASN71       0.2598
     53  O          3.2170   21.4770  -11.3180 O.2    71  ASN71      -0.2718
     54  CB         3.8120   23.0190  -13.6300 C.3    71  ASN71       0.1169
     55  CG         2.8920   24.1290  -13.1120 C.2    71  ASN71       0.2627
     56  OD1        1.6950   23.9560  -12.9260 O.2    71  ASN71      -0.2716
     57  ND2        3.4650   25.2750  -12.8820 N.am   71  ASN71      -0.0877
     58  N          1.2490   20.8840  -12.2400 N.am   72  GLY72      -0.1942
     59  CA         0.6580   20.5210  -10.9670 C.3    72  GLY72       0.2014
     60  C         -0.1700   21.6110  -10.3470 C.2    72  GLY72       0.2640
     61  O         -0.7440   21.4070   -9.3030 O.2    72  GLY72      -0.2714
     62  N         -0.2100   22.7930  -10.9480 N.am   73  THR73      -0.1936
     63  CA        -1.0570   23.8110  -10.4240 C.3    73  THR73       0.2028
     64  C         -2.3750   23.9890  -11.1400 C.2    73  THR73       0.2643
     65  O         -3.1460   24.8080  -10.7280 O.2    73  THR73      -0.2714
     66  CB        -0.3190   25.1580  -10.4060 C.3    73  THR73       0.1808
     67  OG1       -0.1050   25.5980  -11.7600 O.3    73  THR73      -0.2208
     68  CG2        0.9940   24.9980   -9.6300 C.3    73  THR73       0.0379
     69  N         -2.6660   23.2350  -12.1990 N.am   74  GLY74      -0.1939
     70  CA        -3.9130   23.4590  -12.9850 C.3    74  GLY74       0.2014
     71  C         -4.7400   22.1990  -13.1920 C.2    74  GLY74       0.2639
     72  O         -4.7210   21.2840  -12.3580 O.2    74  GLY74      -0.2714
     73  N         -5.4330   22.1650  -14.3350 N.am   75  GLY75      -0.1954
     74  CA        -6.5160   21.2110  -14.5880 C.3    75  GLY75       0.1869
     75  C         -7.9200   21.6820  -14.1710 C.2    75  GLY75       0.2309
     76  O         -8.1170   22.6160  -13.3860 O.2    75  GLY75      -0.2863
     77  N         -5.6250   13.1880   -7.6720 N.3   101  ALA101     -0.1231
     78  CA        -4.7520   14.0520   -6.9240 C.3   101  ALA101      0.1694
     79  C         -5.6880   15.1550   -6.4240 C.2   101  ALA101      0.2592
     80  O         -6.7480   15.3580   -7.0030 O.2   101  ALA101     -0.2718
     81  CB        -3.6060   14.6010   -7.8560 C.3   101  ALA101      0.0304
     82  N         -5.3080   15.9200   -5.3970 N.am  102  ASN102     -0.1960
     83  CA        -6.1200   16.9850   -4.9550 C.3   102  ASN102      0.1819
     84  C         -5.3190   17.9310   -4.0870 C.2   102  ASN102      0.2621
     85  O         -4.1610   17.6630   -3.7930 O.2   102  ASN102     -0.2715
     86  CB        -7.3940   16.4340   -4.1780 C.3   102  ASN102      0.1195
     87  CG        -7.0470   15.7020   -2.8950 C.2   102  ASN102      0.2630
     88  OD1       -6.2760   16.1990   -2.0870 O.2   102  ASN102     -0.2716
     89  ND2       -7.6750   14.5410   -2.6680 N.am  102  ASN102     -0.0877
     90  N         -5.9610   19.0380   -3.6830 N.am  103  ALA103     -0.1977
     91  CA        -5.3040   20.0630   -2.8920 C.3   103  ALA103      0.1597
     92  C         -6.0340   20.3430   -1.6180 C.2   103  ALA103      0.2287
     93  O         -5.9040   21.4320   -1.1160 O.2   103  ALA103     -0.2864
     94  CB        -5.2170   21.3760   -3.7050 C.3   103  ALA103      0.0319
     95  N        -11.5570   18.9670   -3.8210 N.3   107  THR107     -0.1218
     96  CA       -10.8110   19.8250   -4.7780 C.3   107  THR107      0.1862
     97  C        -10.3040   18.9550   -5.9500 C.2   107  THR107      0.2287
     98  O         -9.2650   19.2140   -6.5120 O.2   107  THR107     -0.2866
     99  CB        -9.5990   20.5350   -4.1100 C.3   107  THR107      0.1770
    100  OG1       -8.7080   19.5720   -3.5560 O.3   107  THR107     -0.2211
    101  CG2      -10.0330   21.4850   -2.9760 C.3   107  THR107      0.0375
    102  N         -9.9600   17.8330   -9.7250 N.3   109  GLY109     -0.1225
    103  CA       -10.1090   18.4960  -11.0150 C.3   109  GLY109      0.1811
    104  C         -9.9120   17.4720  -12.1170 C.2   109  GLY109      0.2280
    105  O        -10.7830   16.6670  -12.3900 O.2   109  GLY109     -0.2866
    106  N         -6.2050   16.3230  -12.4660 N.3   111  GLN111     -0.1245
    107  CA        -4.9690   15.6250  -12.0500 C.3   111  GLN111      0.1566
    108  C         -5.2290   14.2980  -11.3280 C.2   111  GLN111      0.2260
    109  O         -6.2220   14.2050  -10.5670 O.2   111  GLN111     -0.2867
    110  CB        -4.1460   16.4960  -11.1380 C.3   111  GLN111      0.0367
    111  CG        -3.4990   17.6230  -11.9320 C.3   111  GLN111      0.0905
    112  CD        -2.5840   18.4000  -11.0550 C.2   111  GLN111      0.2608
    113  OE1       -1.5910   17.8880  -10.5460 O.2   111  GLN111     -0.2717
    114  NE2       -2.9340   19.6570  -10.8300 N.am  111  GLN111     -0.0878
    115  N         -3.0080   10.1710  -10.3510 N.3   113  PHE113     -0.1241
    116  CA        -1.7330    9.5220  -10.1990 C.3   113  PHE113      0.1605
    117  C         -1.9250    8.0480  -10.3030 C.2   113  PHE113      0.2264
    118  O         -3.0340    7.5230  -10.0230 O.2   113  PHE113     -0.2867
    119  CB        -1.0100    9.9860   -8.9200 C.3   113  PHE113      0.0534
    120  CG        -1.7170    9.6390   -7.6350 C.ar  113  PHE113     -0.0203
    121  CD1       -2.7390   10.4250   -7.1420 C.ar  113  PHE113     -0.0042
    122  CD2       -1.3720    8.4800   -6.9240 C.ar  113  PHE113     -0.0042
    123  CE1       -3.4080   10.0940   -5.9820 C.ar  113  PHE113     -0.0003
    124  CE2       -2.0350    8.1740   -5.7420 C.ar  113  PHE113     -0.0003
    125  CZ        -3.0600    8.9530   -5.2940 C.ar  113  PHE113     -0.0000
    126  N         -2.6590    7.1870    1.9330 N.3   122  LEU122     -0.1245
    127  CA        -3.5320    8.0630    1.1460 C.3   122  LEU122      0.1561
    128  C         -4.9560    7.6340    1.2860 C.2   122  LEU122      0.2260
    129  O         -5.8530    8.3120    0.7820 O.2   122  LEU122     -0.2867
    130  CB        -3.0940    8.0830   -0.3270 C.3   122  LEU122      0.0270
    131  CG        -1.6920    8.6830   -0.5570 C.3   122  LEU122      0.0019
    132  CD1       -1.3780    8.6830   -2.0190 C.3   122  LEU122      0.0001
    133  CD2       -1.6200   10.0900    0.0080 C.3   122  LEU122      0.0001
    134  N         -7.6970   10.5590   -0.9070 N.3   126  HIS126     -0.1241
    135  CA        -7.6400   10.5430   -2.3470 C.3   126  HIS126      0.1621
    136  C         -8.5870    9.4500   -2.8130 C.2   126  HIS126      0.2264
    137  O         -8.5740    8.3270   -2.2360 O.2   126  HIS126     -0.2867
    138  CB        -6.2030   10.2800   -2.8520 C.3   126  HIS126      0.0745
    139  CG        -5.2700   11.4010   -2.5220 C.ar  126  HIS126      0.0817
    140  ND1       -5.1060   12.4880   -3.3400 N.ar  126  HIS126     -0.2268
    141  CD2       -4.5650   11.6590   -1.4120 C.ar  126  HIS126      0.1154
    142  CE1       -4.3150   13.3660   -2.7520 C.ar  126  HIS126      0.1986
    143  NE2       -3.9600   12.8760   -1.5860 N.ar  126  HIS126     -0.2212
@<TRIPOS>BOND
     1     1     2    1
     2    50    51    1
     3    74    73    1
     4    74    75    1
     5     2     5    1
     6     2     3    1
     7    73    71   am
     8     5     6    1
     9    75    76    2
    10    51    54    1
    11    51    52    1
    12    54    55    1
    13     7     6   ar
    14     7     9   ar
    15    44    43    2
    16     3     4    2
    17     3    11   am
    18     6     8   ar
    19    71    70    1
    20    71    72    2
    21    55    56    2
    22    55    57   am
    23    70    69    1
    24    43    42    1
    25    11    12    1
    26   106   107    1
    27   105   104    2
    28     9    10   ar
    29    52    58   am
    30    52    53    2
    31    58    59    1
    32    69    64   am
    33   104   103    1
    34   107   108    1
    35   107   110    1
    36   111   110    1
    37   111   112    1
    38     8    10   ar
    39    67    66    1
    40    41    42    1
    41    42    45    1
    42    12    13    1
    43    12    15    1
    44   108   109    2
    45    13    14    2
    46    64    65    2
    47    64    63    1
    48   112   114   am
    49   112   113    2
    50   103   102    1
    51    59    60    1
    52    62    63    1
    53    62    60   am
    54    63    66    1
    55    66    68    1
    56    45    46    1
    57   115   116    1
    58    60    61    2
    59   117   116    1
    60   117   118    2
    61   116   119    1
    62    15    16    1
    63    46    47    1
    64    35    36    2
    65    35    34    1
    66    47    49   am
    67    47    48    2
    68   119   120    1
    69    16    17    1
    70    34    37    1
    71    34    33    1
    72    39    40    1
    73    39    38    1
    74    81    78    1
    75    77    78    1
    76    17    18    1
    77   120   121   ar
    78   120   122   ar
    79    37    38    1
    80    33    24   am
    81   121   123   ar
    82    18    19    2
    83    80    79    2
    84    78    79    1
    85   122   124   ar
    86    98    97    2
    87    79    82   am
    88    24    25    2
    89    24    23    1
    90   123   125   ar
    91    97    96    1
    92    19    21    1
    93    19    20    1
    94    22    23    1
    95   124   125   ar
    96    82    83    1
    97    23    26    1
    98    83    86    1
    99    83    84    1
   100    96    99    1
   101    96    95    1
   102    26    27    1
   103    86    87    1
   104    99   100    1
   105    99   101    1
   106    84    85    2
   107    84    90   am
   108    27    29   ar
   109    27    28   ar
   110    29    31   ar
   111    94    91    1
   112    90    91    1
   113    28    30   ar
   114   140   142   ar
   115   140   139   ar
   116    31    32   ar
   117    30    32   ar
   118    87    89   am
   119    87    88    2
   120    91    92    1
   121   138   139    1
   122   138   135    1
   123   136   135    1
   124   136   137    2
   125   142   143   ar
   126   139   141   ar
   127   135   134    1
   128   132   131    1
   129    92    93    2
   130   143   141   ar
   131   131   130    1
   132   131   133    1
   133   130   127    1
   134   129   128    2
   135   127   128    1
   136   127   126    1
