@<TRIPOS>MOLECULE
tmp/6gk9D00.pdb
 146 140 0 0 0
SMALL
GASTEIGER

@<TRIPOS>ATOM
      1  N          4.8890  -29.9070  -76.1140 N.3   119  SER119     -0.1202
      2  CA         4.1210  -29.2580  -75.0520 C.3   119  SER119      0.2020
      3  C          3.8330  -27.7820  -75.3220 C.2   119  SER119      0.2619
      4  O          3.2180  -27.1100  -74.4870 O.2   119  SER119     -0.2717
      5  CB         4.8510  -29.3950  -73.7060 C.3   119  SER119      0.2103
      6  OG         5.6860  -28.2780  -73.4360 O.3   119  SER119     -0.2182
      7  N          4.2840  -27.2540  -76.4560 N.am  120  GLY120     -0.1942
      8  CA         3.8090  -25.9540  -76.8900 C.3   120  GLY120      0.2014
      9  C          4.8330  -24.8530  -77.0640 C.2   120  GLY120      0.2639
     10  O          5.5700  -24.5150  -76.1320 O.2   120  GLY120     -0.2714
     11  N          4.8820  -24.2850  -78.2680 N.am  121  PHE121     -0.1960
     12  CA         5.5940  -23.0380  -78.5100 C.3   121  PHE121      0.1756
     13  C          4.5650  -21.9380  -78.7100 C.2   121  PHE121      0.2461
     14  O          3.7320  -22.0550  -79.6210 O.2   121  PHE121     -0.2730
     15  CB         6.4960  -23.1360  -79.7430 C.3   121  PHE121      0.0574
     16  CG         7.6720  -24.0610  -79.5900 C.ar  121  PHE121     -0.0200
     17  CD1        7.5780  -25.3870  -79.9740 C.ar  121  PHE121     -0.0042
     18  CD2        8.8830  -23.5940  -79.1010 C.ar  121  PHE121     -0.0042
     19  CE1        8.6580  -26.2420  -79.8560 C.ar  121  PHE121     -0.0003
     20  CE2        9.9740  -24.4450  -78.9800 C.ar  121  PHE121     -0.0003
     21  CZ         9.8600  -25.7710  -79.3590 C.ar  121  PHE121     -0.0000
     22  N          4.5550  -20.8700  -77.9130 N.am  122  PRO122     -0.2727
     23  CA         3.6890  -19.7330  -78.2470 C.3   122  PRO122      0.1402
     24  C          4.1220  -19.1410  -79.5790 C.2   122  PRO122      0.2269
     25  O          5.3010  -19.1590  -79.9380 O.2   122  PRO122     -0.2865
     26  CB         3.9110  -18.7470  -77.0890 C.3   122  PRO122      0.0296
     27  CG         4.5890  -19.5290  -76.0260 C.3   122  PRO122      0.0237
     28  CD         5.3670  -20.6100  -76.7170 C.3   122  PRO122      0.0939
     29  N         -0.6290  -20.7730  -80.4110 N.3   132  ILE132     -0.1245
     30  CA         0.3590  -21.7210  -79.9240 C.3   132  ILE132      0.1561
     31  C          0.4490  -22.8110  -80.9720 C.2   132  ILE132      0.2260
     32  O         -0.4120  -22.9260  -81.8420 O.2   132  ILE132     -0.2867
     33  CB        -0.0060  -22.3250  -78.5490 C.3   132  ILE132      0.0252
     34  CG1       -1.3990  -22.9640  -78.6100 C.3   132  ILE132      0.0019
     35  CG2        0.0570  -21.2630  -77.4690 C.3   132  ILE132      0.0019
     36  CD1       -1.9430  -23.4410  -77.2640 C.3   132  ILE132      0.0001
     37  N          1.1110  -26.7930  -80.4990 N.3   134  THR134     -0.1218
     38  CA         1.2730  -27.8810  -79.5530 C.3   134  THR134      0.1862
     39  C          1.8910  -29.1060  -80.2290 C.2   134  THR134      0.2287
     40  O          2.1590  -29.1310  -81.4340 O.2   134  THR134     -0.2866
     41  CB        -0.0810  -28.2290  -78.9280 C.3   134  THR134      0.1770
     42  OG1       -0.9910  -28.6860  -79.9430 O.3   134  THR134     -0.2211
     43  CG2       -0.6820  -27.0030  -78.2540 C.3   134  THR134      0.0375
     44  N          0.2870  -32.0840  -80.4310 N.3   136  ARG136     -0.1245
     45  CA        -0.7570  -32.7010  -81.2390 C.3   136  ARG136      0.1563
     46  C         -0.9840  -31.9270  -82.5320 C.2   136  ARG136      0.2260
     47  O         -1.4100  -32.5100  -83.5340 O.2   136  ARG136     -0.2867
     48  CB        -2.0580  -32.8320  -80.4380 C.3   136  ARG136      0.0307
     49  CG        -2.6320  -31.5400  -79.8800 C.3   136  ARG136      0.0489
     50  CD        -3.7610  -31.8430  -78.8910 C.3   136  ARG136      0.2205
     51  NE        -4.2370  -30.6520  -78.1820 N.pl3 136  ARG136     -0.0865
     52  CZ        -5.4930  -30.2070  -78.2070 C.cat 136  ARG136      0.5346
     53  NH1       -5.8230  -29.1150  -77.5270 N.pl3 136  ARG136      0.1354
     54  NH2       -6.4260  -30.8540  -78.9020 N.pl3 136  ARG136      0.1354
     55  N         -2.5970  -23.7090  -83.4640 N.3   147  THR147     -0.1218
     56  CA        -3.8670  -23.4570  -82.8020 C.3   147  THR147      0.1862
     57  C         -4.1850  -21.9650  -82.8610 C.2   147  THR147      0.2287
     58  O         -3.3280  -21.1390  -82.5140 O.2   147  THR147     -0.2866
     59  CB        -3.8180  -23.9230  -81.3510 C.3   147  THR147      0.1770
     60  OG1       -3.7480  -25.3540  -81.3130 O.3   147  THR147     -0.2211
     61  CG2       -5.0510  -23.4530  -80.6020 C.3   147  THR147      0.0375
     62  N         -8.9550  -20.4570  -79.6510 N.3   151  LYS151     -0.1231
     63  CA        -8.8450  -21.6160  -78.7820 C.3   151  LYS151      0.1693
     64  C         -7.8280  -21.4180  -77.6590 C.2   151  LYS151      0.2592
     65  O         -7.5380  -22.3750  -76.9310 O.2   151  LYS151     -0.2718
     66  CB        -8.4930  -22.8590  -79.6050 C.3   151  LYS151      0.0285
     67  CG        -9.5860  -23.2990  -80.5890 C.3   151  LYS151      0.0035
     68  CD       -10.9190  -23.6000  -79.8880 C.3   151  LYS151      0.0206
     69  CE       -10.8210  -24.7580  -78.8940 C.3   151  LYS151      0.1093
     70  NZ       -10.6360  -26.0870  -79.5440 N.3   151  LYS151     -0.1314
     71  N         -7.2940  -20.2060  -77.4910 N.am  152  LEU152     -0.1966
     72  CA        -6.3240  -19.9360  -76.4390 C.3   152  LEU152      0.1728
     73  C         -7.0350  -19.4840  -75.1760 C.2   152  LEU152      0.2616
     74  O         -7.9390  -18.6450  -75.2250 O.2   152  LEU152     -0.2715
     75  CB        -5.3170  -18.8700  -76.8650 C.3   152  LEU152      0.0311
     76  CG        -4.4310  -19.2630  -78.0410 C.3   152  LEU152      0.0022
     77  CD1       -3.4710  -18.1520  -78.3630 C.3   152  LEU152      0.0001
     78  CD2       -3.6940  -20.5520  -77.7330 C.3   152  LEU152      0.0001
     79  N         -6.6290  -20.0570  -74.0520 N.am  153  VAL153     -0.1977
     80  CA        -7.0160  -19.5830  -72.7340 C.3   153  VAL153      0.1596
     81  C         -5.8740  -18.7280  -72.2280 C.2   153  VAL153      0.2287
     82  O         -4.7080  -19.1200  -72.3310 O.2   153  VAL153     -0.2864
     83  CB        -7.3060  -20.7530  -71.7760 C.3   153  VAL153      0.0276
     84  CG1       -7.5980  -20.2380  -70.3590 C.3   153  VAL153      0.0022
     85  CG2       -8.4560  -21.5940  -72.3140 C.3   153  VAL153      0.0022
     86  N         -9.6520  -27.1970  -67.5700 N.3   172  ARG172     -0.1231
     87  CA        -9.1030  -28.5450  -67.7060 C.3   172  ARG172      0.1694
     88  C         -7.8050  -28.5290  -68.5120 C.2   172  ARG172      0.2592
     89  O         -7.5920  -29.3480  -69.4090 O.2   172  ARG172     -0.2718
     90  CB       -10.1290  -29.5050  -68.3250 C.3   172  ARG172      0.0321
     91  CG       -11.2160  -29.9770  -67.3510 C.3   172  ARG172      0.0489
     92  CD       -12.0850  -28.8060  -66.9160 C.3   172  ARG172      0.2205
     93  NE       -12.5970  -28.9250  -65.5540 N.pl3 172  ARG172     -0.0865
     94  CZ       -13.7550  -29.4950  -65.2390 C.cat 172  ARG172      0.5346
     95  NH1      -14.1470  -29.5450  -63.9720 N.pl3 172  ARG172      0.1354
     96  NH2      -14.5190  -30.0170  -66.1930 N.pl3 172  ARG172      0.1354
     97  N         -6.9290  -27.5750  -68.1820 N.am  173  ILE173     -0.1966
     98  CA        -5.6220  -27.4520  -68.8130 C.3   173  ILE173      0.1727
     99  C         -4.5640  -27.3530  -67.7250 C.2   173  ILE173      0.2616
    100  O         -4.8640  -27.2480  -66.5370 O.2   173  ILE173     -0.2715
    101  CB        -5.5280  -26.2430  -69.7760 C.3   173  ILE173      0.0290
    102  CG1       -5.8600  -24.9310  -69.0650 C.3   173  ILE173      0.0022
    103  CG2       -6.4410  -26.4270  -70.9660 C.3   173  ILE173      0.0023
    104  CD1       -5.7980  -23.7160  -69.9890 C.3   173  ILE173      0.0001
    105  N         -3.3120  -27.3850  -68.1500 N.am  174  GLU174     -0.1963
    106  CA        -2.1610  -27.2880  -67.2570 C.3   174  GLU174      0.1733
    107  C         -1.3240  -26.0380  -67.4980 C.2   174  GLU174      0.2616
    108  O         -0.8240  -25.4450  -66.5470 O.2   174  GLU174     -0.2715
    109  CB        -1.2940  -28.5490  -67.4170 C.3   174  GLU174      0.0429
    110  CG         0.1110  -28.4390  -66.8810 C.3   174  GLU174      0.1163
    111  CD         0.2020  -28.6360  -65.3680 C.2   174  GLU174      0.3649
    112  OE1       -0.7630  -29.1590  -64.7620 O.co2 174  GLU174     -0.2457
    113  OE2        1.2520  -28.2630  -64.7940 O.co2 174  GLU174     -0.2457
    114  N         -1.2040  -25.6020  -68.7480 N.am  175  LYS175     -0.1963
    115  CA        -0.3360  -24.5170  -69.1810 C.3   175  LYS175      0.1728
    116  C         -1.2140  -23.3870  -69.6950 C.2   175  LYS175      0.2616
    117  O         -2.2710  -23.6380  -70.2780 O.2   175  LYS175     -0.2715
    118  CB         0.5860  -25.0170  -70.2960 C.3   175  LYS175      0.0311
    119  CG         1.9060  -24.3180  -70.4770 C.3   175  LYS175      0.0038
    120  CD         2.6150  -24.9260  -71.7000 C.3   175  LYS175      0.0206
    121  CE         3.9720  -24.2940  -71.9810 C.3   175  LYS175      0.1093
    122  NZ         4.8990  -24.4620  -70.8300 N.3   175  LYS175     -0.1314
    123  N         -0.7980  -22.1380  -69.4870 N.am  176  MET176     -0.1963
    124  CA        -1.6280  -21.0630  -70.0200 C.3   176  MET176      0.1736
    125  C         -0.8450  -19.7600  -70.0870 C.2   176  MET176      0.2616
    126  O         -0.0050  -19.4740  -69.2270 O.2   176  MET176     -0.2715
    127  CB        -2.9060  -20.8790  -69.1960 C.3   176  MET176      0.0427
    128  CG        -2.9840  -19.5750  -68.4360 C.3   176  MET176      0.0599
    129  SD        -4.6080  -19.3440  -67.6820 S.3   176  MET176     -0.1393
    130  CE        -4.1650  -18.3140  -66.2850 C.3   176  MET176      0.0692
    131  N         -1.1540  -18.9650  -71.1130 N.am  177  LEU177     -0.1977
    132  CA        -0.3610  -17.7930  -71.4470 C.3   177  LEU177      0.1596
    133  C         -0.9070  -16.5450  -70.7680 C.2   177  LEU177      0.2287
    134  O         -2.1160  -16.3980  -70.5630 O.2   177  LEU177     -0.2864
    135  CB        -0.3110  -17.5880  -72.9590 C.3   177  LEU177      0.0297
    136  CG         0.1540  -18.8270  -73.7220 C.3   177  LEU177      0.0022
    137  CD1       -1.0170  -19.7930  -73.8750 C.3   177  LEU177      0.0001
    138  CD2        0.7480  -18.4860  -75.0760 C.3   177  LEU177      0.0001
    139  N          4.0270  -17.1670  -69.1990 N.3   188  LEU188     -0.1245
    140  CA         3.1710  -18.3410  -69.1450 C.3   188  LEU188      0.1561
    141  C          3.2590  -18.9660  -67.7600 C.2   188  LEU188      0.2260
    142  O          4.3250  -18.9680  -67.1420 O.2   188  LEU188     -0.2867
    143  CB         3.5280  -19.3600  -70.2390 C.3   188  LEU188      0.0270
    144  CG         4.8310  -20.1540  -70.2470 C.3   188  LEU188      0.0019
    145  CD1        4.9520  -21.0790  -69.0450 C.3   188  LEU188      0.0001
    146  CD2        4.8950  -20.9560  -71.5200 C.3   188  LEU188      0.0001
@<TRIPOS>BOND
     1    47    46    2
     2    55    56    1
     3    57    56    1
     4    57    58    2
     5    56    59    1
     6    46    45    1
     7    32    31    2
     8    40    39    2
     9    59    60    1
    10    59    61    1
    11    45    48    1
    12    45    44    1
    13    31    30    1
    14    67    68    1
    15    67    66    1
    16    37    38    1
    17    48    49    1
    18    29    30    1
    19    39    38    1
    20    17    19   ar
    21    17    16   ar
    22    42    41    1
    23    25    24    2
    24    30    33    1
    25    68    69    1
    26    49    50    1
    27    19    21   ar
    28    15    16    1
    29    15    12    1
    30    62    63    1
    31    14    13    2
    32    66    63    1
    33    16    18   ar
    34    24    23    1
    35    38    41    1
    36    70    69    1
    37    21    20   ar
    38    18    20   ar
    39    41    43    1
    40    54    52    1
    41    50    51    1
    42    63    64    1
    43    13    12    1
    44    13    22   am
    45    34    33    1
    46    34    36    1
    47    33    35    1
    48    12    11    1
    49    77    76    1
    50    11     9   am
    51    23    22    1
    52    23    26    1
    53    52    51    2
    54    52    53    1
    55    76    78    1
    56    76    75    1
    57    22    28    1
    58    64    71   am
    59    64    65    2
    60    71    72    1
    61    26    27    1
    62     9     8    1
    63     9    10    2
    64     8     7    1
    65    75    72    1
    66    28    27    1
    67     7     3   am
    68    72    73    1
    69     1     2    1
    70     3     2    1
    71     3     4    2
    72    74    73    2
    73    73    79   am
    74   138   136    1
    75     2     5    1
    76    79    80    1
    77   137   136    1
    78   136   135    1
    79     5     6    1
    80   135   132    1
    81    80    81    1
    82    80    83    1
    83    82    81    2
    84    85    83    1
    85   121   120    1
    86   121   122    1
    87    83    84    1
    88   120   119    1
    89   146   144    1
    90   132   131    1
    91   132   133    1
    92   131   125   am
    93   103   101    1
    94   133   134    2
    95   119   118    1
    96   118   115    1
    97   117   116    2
    98   144   143    1
    99   144   145    1
   100   143   140    1
   101   125   124    1
   102   125   126    2
   103   124   123    1
   104   124   127    1
   105   104   102    1
   106   101   102    1
   107   101    98    1
   108   116   123   am
   109   116   115    1
   110    89    88    2
   111   139   140    1
   112   127   128    1
   113   115   114    1
   114   140   141    1
   115    98    97    1
   116    98    99    1
   117   114   107   am
   118    88    97   am
   119    88    87    1
   120   128   129    1
   121    90    87    1
   122    90    91    1
   123   105    99   am
   124   105   106    1
   125   141   142    2
   126    99   100    2
   127    87    86    1
   128   129   130    1
   129   107   106    1
   130   107   108    2
   131   109   106    1
   132   109   110    1
   133    91    92    1
   134    92    93    1
   135   110   111    1
   136    96    94    1
   137    93    94    2
   138   111   113   ar
   139   111   112   ar
   140    94    95    1
