@<TRIPOS>MOLECULE
tmp/6gkhA00.pdb
 158 149 0 0 0
SMALL
GASTEIGER

@<TRIPOS>ATOM
      1  N         82.8210  132.5760  121.5940 N.3     3  GLN3       -0.1231
      2  CA        82.1050  133.0060  120.4050 C.3     3  GLN3        0.1698
      3  C         82.9450  132.7420  119.1660 C.2     3  GLN3        0.2592
      4  O         84.1710  132.6360  119.2320 O.2     3  GLN3       -0.2718
      5  CB        81.7520  134.4930  120.4900 C.3     3  GLN3        0.0381
      6  CG        80.7850  134.8370  121.6110 C.3     3  GLN3        0.0905
      7  CD        79.4310  134.1810  121.4370 C.2     3  GLN3        0.2608
      8  OE1       79.0520  133.2960  122.2030 O.2     3  GLN3       -0.2717
      9  NE2       78.7040  134.5990  120.4110 N.am    3  GLN3       -0.0878
     10  N         82.2560  132.6130  118.0360 N.am    4  LEU4       -0.1966
     11  CA        82.8570  132.2580  116.7620 C.3     4  LEU4        0.1728
     12  C         82.6190  133.3650  115.7460 C.2     4  LEU4        0.2616
     13  O         81.8020  134.2640  115.9550 O.2     4  LEU4       -0.2715
     14  CB        82.2770  130.9460  116.2250 C.3     4  LEU4        0.0311
     15  CG        82.7640  129.6390  116.8480 C.3     4  LEU4        0.0022
     16  CD1       82.1850  129.4410  118.2380 C.3     4  LEU4        0.0001
     17  CD2       82.3900  128.4770  115.9520 C.3     4  LEU4        0.0001
     18  N         83.3480  133.2870  114.6450 N.am    5  ARG5       -0.1977
     19  CA        83.1300  134.0950  113.4600 C.3     5  ARG5        0.1597
     20  C         82.6660  133.2040  112.3070 C.2     5  ARG5        0.2287
     21  O         82.7680  131.9740  112.3780 O.2     5  ARG5       -0.2864
     22  CB        84.4160  134.8320  113.0740 C.3     5  ARG5        0.0334
     23  CG        84.9250  135.8460  114.1040 C.3     5  ARG5        0.0492
     24  CD        86.1780  136.5060  113.5670 C.3     5  ARG5        0.2205
     25  NE        86.8550  137.4430  114.4680 N.pl3   5  ARG5       -0.0865
     26  CZ        86.5310  138.7170  114.6380 C.cat   5  ARG5        0.5346
     27  NH1       85.4710  139.2510  114.0320 N.pl3   5  ARG5        0.1354
     28  NH2       87.2750  139.4420  115.4530 N.pl3   5  ARG5        0.1354
     29  N         85.5960  131.3960  110.3440 N.3     8  GLN8       -0.1245
     30  CA        86.0350  130.3390  111.2440 C.3     8  GLN8        0.1566
     31  C         85.1730  129.0960  111.0870 C.2     8  GLN8        0.2260
     32  O         85.6870  127.9710  111.0440 O.2     8  GLN8       -0.2867
     33  CB        85.9730  130.8360  112.6820 C.3     8  GLN8        0.0367
     34  CG        86.9230  131.9560  113.0020 C.3     8  GLN8        0.0905
     35  CD        86.7300  132.4700  114.4120 C.2     8  GLN8        0.2608
     36  OE1       85.8220  132.0370  115.1210 O.2     8  GLN8       -0.2717
     37  NE2       87.5780  133.3990  114.8260 N.am    8  GLN8       -0.0878
     38  N         97.5930  136.2130  109.9620 N.3    27  THR27      -0.1203
     39  CA        97.8150  136.2780  111.3970 C.3    27  THR27       0.1994
     40  C         96.6730  136.9970  112.0960 C.2    27  THR27       0.2618
     41  O         96.1170  137.9700  111.5800 O.2    27  THR27      -0.2717
     42  CB        99.1230  136.9950  111.6990 C.3    27  THR27       0.1784
     43  OG1       99.0630  138.3260  111.1810 O.3    27  THR27      -0.2211
     44  CG2      100.2870  136.2660  111.0780 C.3    27  THR27       0.0376
     45  N         96.3280  136.5090  113.2810 N.am   28  GLY28      -0.1942
     46  CA        95.2950  137.1290  114.0760 C.3    28  GLY28       0.2014
     47  C         93.9510  137.0650  113.3920 C.2    28  GLY28       0.2640
     48  O         93.3660  138.0960  113.0480 O.2    28  GLY28      -0.2714
     49  N         93.4670  135.8450  113.1720 N.am   29  SER29      -0.1935
     50  CA        92.1360  135.6130  112.6300 C.3    29  SER29       0.2055
     51  C         91.3730  134.5870  113.4560 C.2    29  SER29       0.2644
     52  O         90.4310  133.9680  112.9520 O.2    29  SER29      -0.2714
     53  CB        92.2210  135.1580  111.1760 C.3    29  SER29       0.2130
     54  OG        92.8430  133.8910  111.0780 O.3    29  SER29      -0.2179
     55  N         91.7590  134.3980  114.7140 N.am   30  GLY30      -0.1939
     56  CA        91.0780  133.4540  115.5710 C.3    30  GLY30       0.2014
     57  C         91.5000  132.0260  115.3630 C.2    30  GLY30       0.2639
     58  O         90.7110  131.1110  115.6140 O.2    30  GLY30      -0.2714
     59  N         92.7350  131.8150  114.9110 N.am   31  LYS31      -0.1963
     60  CA        93.2640  130.4690  114.7430 C.3    31  LYS31       0.1728
     61  C         93.2020  129.6990  116.0450 C.2    31  LYS31       0.2617
     62  O         92.7620  128.5410  116.0930 O.2    31  LYS31      -0.2715
     63  CB        94.6950  130.5650  114.2610 C.3    31  LYS31       0.0311
     64  CG        94.7890  131.1160  112.9110 C.3    31  LYS31       0.0038
     65  CD        96.2020  131.1110  112.4950 C.3    31  LYS31       0.0206
     66  CE        96.3630  131.8420  111.2260 C.3    31  LYS31       0.1093
     67  NZ        97.7770  131.9870  110.9780 N.3    31  LYS31      -0.1314
     68  N         93.6500  130.3340  117.1200 N.am   32  THR32      -0.1937
     69  CA        93.5120  129.7270  118.4270 C.3    32  THR32       0.2028
     70  C         92.0510  129.4570  118.7330 C.2    32  THR32       0.2642
     71  O         91.6940  128.3600  119.1610 O.2    32  THR32      -0.2714
     72  CB        94.1170  130.6350  119.4850 C.3    32  THR32       0.1808
     73  OG1       95.4790  130.9240  119.1530 O.3    32  THR32      -0.2208
     74  CG2       94.0830  129.9450  120.8020 C.3    32  THR32       0.0379
     75  N         91.1910  130.4500  118.5070 N.am   33  ARG33      -0.1977
     76  CA        89.7860  130.3230  118.8750 C.3    33  ARG33       0.1597
     77  C         89.1100  129.1870  118.1160 C.2    33  ARG33       0.2287
     78  O         88.3370  128.4110  118.6960 O.2    33  ARG33      -0.2864
     79  CB        89.0740  131.6530  118.6200 C.3    33  ARG33       0.0334
     80  CG        87.6100  131.7030  119.0340 C.3    33  ARG33       0.0492
     81  CD        87.4190  131.5690  120.5330 C.3    33  ARG33       0.2205
     82  NE        88.0890  132.6440  121.2630 N.pl3  33  ARG33      -0.0865
     83  CZ        87.5870  133.8620  121.4600 C.cat  33  ARG33       0.5346
     84  NH1       86.3970  134.2100  120.9780 N.pl3  33  ARG33       0.1354
     85  NH2       88.2920  134.7520  122.1440 N.pl3  33  ARG33       0.1354
     86  N         93.4090  131.3440  126.2910 N.3    72  GLU72      -0.1245
     87  CA        92.4720  130.8830  125.2720 C.3    72  GLU72       0.1567
     88  C         91.8400  129.5380  125.5870 C.2    72  GLU72       0.2260
     89  O         90.6170  129.4010  125.4750 O.2    72  GLU72      -0.2867
     90  CB        93.1900  130.8500  123.9220 C.3    72  GLU72       0.0388
     91  CG        93.5850  132.2530  123.4410 C.3    72  GLU72       0.1160
     92  CD        92.3970  133.0960  123.0170 C.2    72  GLU72       0.3649
     93  OE1       91.4140  132.5330  122.4920 O.co2  72  GLU72      -0.2457
     94  OE2       92.4500  134.3270  123.2100 O.co2  72  GLU72      -0.2457
     95  N        100.5060  124.1660  115.9740 N.3   139  ASP139     -0.1239
     96  CA       100.6990  125.5650  115.6390 C.3   139  ASP139      0.1674
     97  C        102.0070  125.6980  114.8750 C.2   139  ASP139      0.2266
     98  O        102.9970  125.0390  115.2070 O.2   139  ASP139     -0.2867
     99  CB       100.7280  126.4150  116.9030 C.3   139  ASP139      0.1410
    100  CG       100.7860  127.8980  116.6120 C.2   139  ASP139      0.3668
    101  OD1       99.7690  128.4620  116.1560 O.co2 139  ASP139     -0.2456
    102  OD2      101.8430  128.5080  116.8690 O.co2 139  ASP139     -0.2456
    103  N        100.9210  136.8440  121.1620 N.3   472  ASP472     -0.1225
    104  CA        99.5730  137.3120  120.8620 C.3   472  ASP472      0.1805
    105  C         99.3080  138.5890  121.6510 C.2   472  ASP472      0.2598
    106  O         98.6270  138.6010  122.6780 O.2   472  ASP472     -0.2718
    107  CB        98.5610  136.2360  121.2210 C.3   472  ASP472      0.1424
    108  CG        97.1550  136.5800  120.7660 C.2   472  ASP472      0.3668
    109  OD1       96.9620  137.6490  120.1500 O.co2 472  ASP472     -0.2456
    110  OD2       96.2380  135.7850  121.0430 O.co2 472  ASP472     -0.2456
    111  N         99.8570  139.6910  121.1500 N.am  473  ILE473     -0.1966
    112  CA        99.6140  140.9870  121.7580 C.3   473  ILE473      0.1727
    113  C         98.1820  141.4100  121.4560 C.2   473  ILE473      0.2616
    114  O         97.6140  141.0710  120.4090 O.2   473  ILE473     -0.2715
    115  CB       100.6420  142.0160  121.2490 C.3   473  ILE473      0.0290
    116  CG1      102.0560  141.6150  121.6960 C.3   473  ILE473      0.0022
    117  CG2      100.3330  143.4170  121.7810 C.3   473  ILE473      0.0023
    118  CD1      103.1780  142.3070  120.9460 C.3   473  ILE473      0.0001
    119  N         97.5850  142.1500  122.3890 N.am  474  LYS474     -0.1977
    120  CA        96.2140  142.6120  122.2070 C.3   474  LYS474      0.1596
    121  C         96.1200  143.5850  121.0390 C.2   474  LYS474      0.2287
    122  O         95.3430  143.3800  120.1010 O.2   474  LYS474     -0.2864
    123  CB        95.7040  143.2610  123.4930 C.3   474  LYS474      0.0298
    124  CG        94.2780  143.7710  123.4000 C.3   474  LYS474      0.0038
    125  CD        93.2920  142.6210  123.2930 C.3   474  LYS474      0.0206
    126  CE        91.8600  143.1220  123.2900 C.3   474  LYS474      0.1093
    127  NZ        90.8890  142.0080  123.1120 N.3   474  LYS474     -0.1314
    128  N        105.3200  136.9180  109.0860 N.3   493  GLN493     -0.1245
    129  CA       104.8780  136.7150  110.4570 C.3   493  GLN493      0.1566
    130  C        105.1750  137.9250  111.3210 C.2   493  GLN493      0.2260
    131  O        104.4540  138.1770  112.2920 O.2   493  GLN493     -0.2867
    132  CB       105.5380  135.4750  111.0500 C.3   493  GLN493      0.0367
    133  CG       105.1440  134.1750  110.3880 C.3   493  GLN493      0.0905
    134  CD       103.6870  133.8460  110.5550 C.2   493  GLN493      0.2608
    135  OE1      102.9120  133.9530  109.6100 O.2   493  GLN493     -0.2717
    136  NE2      103.3040  133.4290  111.7530 N.am  493  GLN493     -0.0878
    137  N        101.9580  141.4460  112.9310 N.3   497  ARG497     -0.1245
    138  CA       101.8150  141.4720  114.3820 C.3   497  ARG497      0.1563
    139  C        101.0500  142.6760  114.8910 C.2   497  ARG497      0.2260
    140  O        100.5640  142.6490  116.0270 O.2   497  ARG497     -0.2867
    141  CB       103.1880  141.4450  115.0520 C.3   497  ARG497      0.0307
    142  CG       103.9620  140.1840  114.7730 C.3   497  ARG497      0.0489
    143  CD       103.3470  138.9910  115.4530 C.3   497  ARG497      0.2205
    144  NE       103.9410  137.7460  115.0550 N.pl3 497  ARG497     -0.0865
    145  CZ       103.4670  136.5610  115.4180 C.cat 497  ARG497      0.5346
    146  NH1      102.4010  136.4390  116.1990 N.pl3 497  ARG497      0.1354
    147  NH2      104.0750  135.4780  114.9870 N.pl3 497  ARG497      0.1354
    148  N         98.2090  143.8440  115.3920 N.3   499  ARG499     -0.1245
    149  CA        96.7890  143.5080  115.5000 C.3   499  ARG499      0.1563
    150  C         96.0230  144.7330  115.9980 C.2   499  ARG499      0.2260
    151  O         95.4770  144.7730  117.1030 O.2   499  ARG499     -0.2867
    152  CB        96.5840  142.3190  116.4290 C.3   499  ARG499      0.0307
    153  CG        96.8470  140.9640  115.8050 C.3   499  ARG499      0.0489
    154  CD        98.3280  140.6710  115.7050 C.3   499  ARG499      0.2205
    155  NE        98.5670  139.3350  115.1730 N.pl3 499  ARG499     -0.0865
    156  CZ        98.6130  138.2350  115.9170 C.cat 499  ARG499      0.5346
    157  NH1       98.4370  138.3120  117.2290 N.pl3 499  ARG499      0.1354
    158  NH2       98.8340  137.0580  115.3480 N.pl3 499  ARG499      0.1354
@<TRIPOS>BOND
     1   128   129    1
     2   135   134    2
     3    38    39    1
     4    29    30    1
     5   133   134    1
     6   133   132    1
     7   129   132    1
     8   129   130    1
     9   134   136   am
    10    67    66    1
    11    32    31    2
    12    54    53    1
    13    44    42    1
    14    31    30    1
    15    53    50    1
    16    43    42    1
    17    66    65    1
    18    30    33    1
    19   130   131    2
    20    39    42    1
    21    39    40    1
    22    41    40    2
    23    40    45   am
    24    20    21    2
    25    20    19    1
    26    65    64    1
    27    50    49    1
    28    50    51    1
    29    33    34    1
    30    64    63    1
    31   137   138    1
    32    52    51    2
    33    34    35    1
    34    48    47    2
    35    22    19    1
    36    22    23    1
    37    49    47   am
    38    45    46    1
    39    47    46    1
    40    51    55   am
    41    19    18    1
    42    24    23    1
    43    24    25    1
    44    27    26    1
    45    63    60    1
    46   138   139    1
    47   138   141    1
    48    35    37   am
    49    35    36    2
    50    25    26    2
    51    26    28    1
    52    18    12   am
    53    55    56    1
    54    60    59    1
    55    60    61    1
    56   142   141    1
    57   142   143    1
    58    97    98    2
    59    97    96    1
    60   139   140    2
    61    59    57   am
    62   147   145    1
    63   144   145    2
    64   144   143    1
    65   155   154    1
    66   155   156    2
    67   158   156    1
    68    57    56    1
    69    57    58    2
    70   148   149    1
    71   145   146    1
    72   149   150    1
    73   149   152    1
    74    96    95    1
    75    96    99    1
    76   154   153    1
    77    12    13    2
    78    12    11    1
    79   153   152    1
    80   156   157    1
    81    17    15    1
    82   150   151    2
    83    61    62    2
    84    61    68   am
    85   101   100   ar
    86    14    11    1
    87    14    15    1
    88   100   102   ar
    89   100    99    1
    90    11    10    1
    91    15    16    1
    92    68    69    1
    93    10     3   am
    94    77    78    2
    95    77    76    1
    96    69    70    1
    97    69    72    1
    98    75    70   am
    99    75    76    1
   100    79    76    1
   101    79    80    1
   102    70    71    2
   103    80    81    1
   104    73    72    1
   105     3     4    2
   106     3     2    1
   107    72    74    1
   108   122   121    2
   109   109   108   ar
   110     2     5    1
   111     2     1    1
   112   114   113    2
   113     9     7   am
   114     5     6    1
   115    81    82    1
   116   108   110   ar
   117   108   107    1
   118   104   103    1
   119   104   107    1
   120   104   105    1
   121   118   116    1
   122    84    83    1
   123   121   120    1
   124   111   105   am
   125   111   112    1
   126   115   116    1
   127   115   112    1
   128   115   117    1
   129    82    83    2
   130     7     6    1
   131     7     8    2
   132   113   112    1
   133   113   119   am
   134    83    85    1
   135   105   106    2
   136   120   119    1
   137   120   123    1
   138    93    92   ar
   139    92    94   ar
   140    92    91    1
   141   127   126    1
   142   126   125    1
   143   125   124    1
   144   124   123    1
   145    91    90    1
   146    90    87    1
   147    87    88    1
   148    87    86    1
   149    89    88    2
