@<TRIPOS>MOLECULE
tmp/6gkmA00.pdb
 139 130 0 0 0
SMALL
GASTEIGER

@<TRIPOS>ATOM
      1  N         78.3700  134.3020  129.1500 N.3     2  GLN2       -0.1231
      2  CA        77.6300  134.9500  128.0780 C.3     2  GLN2        0.1698
      3  C         78.4740  135.0190  126.8170 C.2     2  GLN2        0.2592
      4  O         79.7070  134.9690  126.8580 O.2     2  GLN2       -0.2718
      5  CB        77.1910  136.3690  128.4570 C.3     2  GLN2        0.0381
      6  CG        76.1920  136.4520  129.5960 C.3     2  GLN2        0.0905
      7  CD        74.8680  135.7910  129.2670 C.2     2  GLN2        0.2608
      8  OE1       74.5240  134.7590  129.8410 O.2     2  GLN2       -0.2717
      9  NE2       74.1260  136.3720  128.3310 N.am    2  GLN2       -0.0878
     10  N         77.7760  135.1660  125.6970 N.am    3  LEU3       -0.1966
     11  CA        78.3510  135.1740  124.3630 C.3     3  LEU3        0.1728
     12  C         78.2260  136.5540  123.7240 C.2     3  LEU3        0.2616
     13  O         77.3820  137.3700  124.0990 O.2     3  LEU3       -0.2715
     14  CB        77.6610  134.1320  123.4850 C.3     3  LEU3        0.0311
     15  CG        77.9730  132.6610  123.7060 C.3     3  LEU3        0.0022
     16  CD1       77.0260  131.8250  122.8950 C.3     3  LEU3        0.0001
     17  CD2       79.4040  132.3410  123.3320 C.3     3  LEU3        0.0001
     18  N         79.1040  136.8100  122.7650 N.am    4  ARG4       -0.1977
     19  CA        79.0620  137.9850  121.9050 C.3     4  ARG4        0.1597
     20  C         78.2510  137.6770  120.6600 C.2     4  ARG4        0.2287
     21  O         77.9720  136.5160  120.3560 O.2     4  ARG4       -0.2864
     22  CB        80.4860  138.3890  121.5340 C.3     4  ARG4        0.0334
     23  CG        81.3040  138.9670  122.6580 C.3     4  ARG4        0.0492
     24  CD        82.6710  139.4140  122.1760 C.3     4  ARG4        0.2205
     25  NE        83.5720  139.7740  123.2670 N.pl3   4  ARG4       -0.0865
     26  CZ        83.5930  140.9520  123.8800 C.cat   4  ARG4        0.5346
     27  NH1       82.7560  141.9230  123.5530 N.pl3   4  ARG4        0.1354
     28  NH2       84.4570  141.1650  124.8490 N.pl3   4  ARG4        0.1354
     29  N         80.5910  135.9630  117.9870 N.3     7  GLN7       -0.1245
     30  CA        80.9780  134.6440  118.4550 C.3     7  GLN7        0.1566
     31  C         79.8420  133.6470  118.2930 C.2     7  GLN7        0.2260
     32  O         80.0870  132.4600  118.0300 O.2     7  GLN7       -0.2867
     33  CB        81.4200  134.7220  119.9090 C.3     7  GLN7        0.0367
     34  CG        82.6960  135.5030  120.0680 C.3     7  GLN7        0.0905
     35  CD        83.1820  135.5400  121.4870 C.2     7  GLN7        0.2608
     36  OE1       82.5250  135.0350  122.3950 O.2     7  GLN7       -0.2717
     37  NE2       84.3500  136.1320  121.6890 N.am    7  GLN7       -0.0878
     38  N         90.2810  136.4520  114.1820 N.3    25  PRO25      -0.2102
     39  CA        91.4870  137.2310  114.4630 C.3    25  PRO25       0.1504
     40  C         91.9450  137.0560  115.8980 C.2    25  PRO25       0.2576
     41  O         91.2870  136.3670  116.6810 O.2    25  PRO25      -0.2718
     42  CB        91.0510  138.6700  114.1860 C.3    25  PRO25       0.0282
     43  CG        89.9100  138.5450  113.2630 C.3    25  PRO25       0.0208
     44  CD        89.1930  137.3030  113.6780 C.3    25  PRO25       0.0893
     45  N         93.0480  137.6920  116.2630 N.am   26  THR26      -0.1939
     46  CA        93.6020  137.5400  117.5990 C.3    26  THR26       0.2028
     47  C         92.7490  138.2910  118.6130 C.2    26  THR26       0.2642
     48  O         92.1390  139.3150  118.2960 O.2    26  THR26      -0.2714
     49  CB        95.0320  138.0690  117.6340 C.3    26  THR26       0.1808
     50  OG1       95.8190  137.3720  116.6630 O.3    26  THR26      -0.2208
     51  CG2       95.6270  137.8500  118.9960 C.3    26  THR26       0.0379
     52  N         92.6710  137.7540  119.8260 N.am   27  GLY27      -0.1954
     53  CA        92.0770  138.4790  120.9320 C.3    27  GLY27       0.1869
     54  C         90.5790  138.6570  120.8800 C.2    27  GLY27       0.2309
     55  O         90.0470  139.4940  121.6200 O.2    27  GLY27      -0.2863
     56  N         88.3200  136.6300  121.9170 N.3    29  GLY29      -0.1210
     57  CA        87.6370  135.8010  122.8910 C.3    29  GLY29       0.1956
     58  C         87.4940  134.3820  122.3960 C.2    29  GLY29       0.2612
     59  O         86.4370  133.7520  122.5010 O.2    29  GLY29      -0.2717
     60  N         88.6030  133.8710  121.8770 N.am   30  LYS30      -0.1965
     61  CA        88.6510  132.5190  121.3470 C.3    30  LYS30       0.1728
     62  C         88.4400  131.5000  122.4650 C.2    30  LYS30       0.2617
     63  O         87.6340  130.5610  122.3470 O.2    30  LYS30      -0.2715
     64  CB        90.0050  132.3540  120.6570 C.3    30  LYS30       0.0311
     65  CG        90.2470  131.0700  119.9320 C.3    30  LYS30       0.0038
     66  CD        91.5800  131.0900  119.1720 C.3    30  LYS30       0.0206
     67  CE        92.7810  130.6980  120.0320 C.3    30  LYS30       0.1093
     68  NZ        93.3800  131.8590  120.7500 N.3    30  LYS30      -0.1314
     69  N         89.1270  131.7080  123.5830 N.am   31  THR31      -0.1937
     70  CA        89.0020  130.8080  124.7200 C.3    31  THR31       0.2028
     71  C         87.5880  130.8270  125.2810 C.2    31  THR31       0.2642
     72  O         87.0430  129.7850  125.6640 O.2    31  THR31      -0.2714
     73  CB        90.0130  131.2100  125.7870 C.3    31  THR31       0.1808
     74  OG1       89.7320  132.5380  126.2380 O.3    31  THR31      -0.2208
     75  CG2       91.4180  131.1900  125.2170 C.3    31  THR31       0.0379
     76  N         86.9770  132.0090  125.3310 N.am   32  ARG32      -0.1977
     77  CA        85.6480  132.1490  125.9100 C.3    32  ARG32       0.1597
     78  C         84.6160  131.3610  125.1140 C.2    32  ARG32       0.2287
     79  O         83.7440  130.6900  125.6850 O.2    32  ARG32      -0.2864
     80  CB        85.2870  133.6310  125.9700 C.3    32  ARG32       0.0334
     81  CG        83.9730  133.9490  126.6540 C.3    32  ARG32       0.0492
     82  CD        83.9760  133.6130  128.1270 C.3    32  ARG32       0.2205
     83  NE        84.9560  134.4170  128.8480 N.pl3  32  ARG32      -0.0865
     84  CZ        84.7310  135.6490  129.2990 C.cat  32  ARG32       0.5346
     85  NH1       83.5640  136.2590  129.1100 N.pl3  32  ARG32       0.1354
     86  NH2       85.6880  136.2840  129.9480 N.pl3  32  ARG32       0.1354
     87  N         90.0910  130.7980  132.5960 N.3    71  GLU71      -0.1245
     88  CA        88.9450  130.7050  131.7020 C.3    71  GLU71       0.1567
     89  C         88.0050  129.5620  132.0340 C.2    71  GLU71       0.2260
     90  O         86.8070  129.7920  132.2330 O.2    71  GLU71      -0.2867
     91  CB        89.4520  130.5670  130.2710 C.3    71  GLU71       0.0388
     92  CG        90.1670  131.8140  129.7780 C.3    71  GLU71       0.1160
     93  CD        89.2360  132.9950  129.5970 C.2    71  GLU71       0.3649
     94  OE1       88.0550  132.7770  129.2550 O.co2  71  GLU71      -0.2457
     95  OE2       89.6840  134.1400  129.8070 O.co2  71  GLU71      -0.2457
     96  N         94.0590  131.1430  115.0170 N.3   184  ALA184     -0.1245
     97  CA        94.0140  132.5010  114.5130 C.3   184  ALA184      0.1562
     98  C         94.0080  132.5350  112.9980 C.2   184  ALA184      0.2260
     99  O         93.2950  133.3410  112.3950 O.2   184  ALA184     -0.2867
    100  CB        95.2160  133.2890  115.0290 C.3   184  ALA184      0.0290
    101  N        100.5500  134.4390  127.5130 N.3   471  ASP471     -0.1239
    102  CA        99.5900  135.5320  127.3750 C.3   471  ASP471      0.1674
    103  C        100.2110  136.8070  127.9230 C.2   471  ASP471      0.2266
    104  O        100.1750  137.0760  129.1240 O.2   471  ASP471     -0.2867
    105  CB        98.2910  135.1960  128.0960 C.3   471  ASP471      0.1410
    106  CG        97.5380  134.0550  127.4420 C.2   471  ASP471      0.3668
    107  OD1       97.6950  133.8530  126.2200 O.co2 471  ASP471     -0.2456
    108  OD2       96.7770  133.3630  128.1490 O.co2 471  ASP471     -0.2456
    109  N         98.4070  143.4920  126.6080 N.3   474  GLU474     -0.1245
    110  CA        98.3090  144.2700  125.3840 C.3   474  GLU474      0.1567
    111  C         99.3770  145.3540  125.3620 C.2   474  GLU474      0.2260
    112  O         99.6540  146.0080  126.3710 O.2   474  GLU474     -0.2867
    113  CB        96.9200  144.8940  125.2550 C.3   474  GLU474      0.0388
    114  CG        95.8130  143.8930  124.9590 C.3   474  GLU474      0.1160
    115  CD        95.3020  143.1970  126.2030 C.2   474  GLU474      0.3649
    116  OE1       95.7750  143.5370  127.3070 O.co2 474  GLU474     -0.2457
    117  OE2       94.4330  142.3090  126.0760 O.co2 474  GLU474     -0.2457
    118  N         99.1440  141.4750  118.7120 N.3   496  ARG496     -0.1245
    119  CA        99.4710  141.8460  120.0820 C.3   496  ARG496      0.1563
    120  C         99.0740  143.2840  120.3890 C.2   496  ARG496      0.2260
    121  O         98.5990  143.5770  121.4900 O.2   496  ARG496     -0.2867
    122  CB       100.9660  141.6640  120.3240 C.3   496  ARG496      0.0307
    123  CG       101.4870  140.2490  120.1290 C.3   496  ARG496      0.0489
    124  CD       101.0550  139.3090  121.2250 C.3   496  ARG496      0.2205
    125  NE       101.6600  137.9900  121.0690 N.pl3 496  ARG496     -0.0865
    126  CZ       101.4290  136.9460  121.8630 C.cat 496  ARG496      0.5346
    127  NH1      100.6070  137.0400  122.9000 N.pl3 496  ARG496      0.1354
    128  NH2      102.0340  135.7890  121.6230 N.pl3 496  ARG496      0.1354
    129  N         97.2670  146.1380  120.9540 N.3   498  ARG498     -0.1245
    130  CA        96.0430  146.8580  121.2850 C.3   498  ARG498      0.1563
    131  C         96.4450  148.1930  121.9110 C.2   498  ARG498      0.2260
    132  O         97.5790  148.6370  121.7290 O.2   498  ARG498     -0.2867
    133  CB        95.1500  145.9920  122.1740 C.3   498  ARG498      0.0307
    134  CG        94.3500  145.0110  121.3460 C.3   498  ARG498      0.0489
    135  CD        95.2390  143.9060  120.8180 C.3   498  ARG498      0.2205
    136  NE        94.5690  143.0670  119.8460 N.pl3 498  ARG498     -0.0865
    137  CZ        93.8760  141.9810  120.1480 C.cat 498  ARG498      0.5346
    138  NH1       93.7650  141.5960  121.4100 N.pl3 498  ARG498      0.1354
    139  NH2       93.3110  141.2880  119.1700 N.pl3 498  ARG498      0.1354
@<TRIPOS>BOND
     1    99    98    2
     2    98    97    1
     3    43    44    1
     4    43    42    1
     5    44    38    1
     6    38    39    1
     7    42    39    1
     8    39    40    1
     9    97    96    1
    10    97   100    1
    11    40    45   am
    12    40    41    2
    13    45    46    1
    14    50    49    1
    15    46    49    1
    16    46    47    1
    17    49    51    1
    18    29    30    1
    19    32    31    2
    20    31    30    1
    21    48    47    2
    22    30    33    1
    23    47    52   am
    24   118   119    1
    25   139   137    1
    26    66    65    1
    27    66    67    1
    28    52    53    1
    29   136   137    2
    30   136   135    1
    31    33    34    1
    32    65    64    1
    33    67    68    1
    34    34    35    1
    35   119   122    1
    36   119   120    1
    37   123   122    1
    38   123   124    1
    39   137   138    1
    40    21    20    2
    41   120   121    2
    42    64    61    1
    43    20    19    1
    44   135   134    1
    45    54    53    1
    46    54    55    2
    47   129   130    1
    48   125   124    1
    49   125   126    2
    50   130   131    1
    51   130   133    1
    52   134   133    1
    53    61    60    1
    54    61    62    1
    55    35    37   am
    56    35    36    2
    57    22    19    1
    58    22    23    1
    59   128   126    1
    60   132   131    2
    61   126   127    1
    62    60    58   am
    63    19    18    1
    64    56    57    1
    65    24    23    1
    66    24    25    1
    67    63    62    2
    68    58    59    2
    69    58    57    1
    70    62    69   am
    71    18    12   am
    72    16    15    1
    73    25    26    2
    74    17    15    1
    75    14    15    1
    76    14    11    1
    77    27    26    1
    78    69    70    1
    79    12    13    2
    80    12    11    1
    81    26    28    1
    82    11    10    1
    83    70    71    1
    84    70    73    1
    85   114   113    1
    86   114   115    1
    87    78    79    2
    88    78    77    1
    89    75    73    1
    90   113   110    1
    91    71    76   am
    92    71    72    2
    93    76    77    1
    94   111   110    1
    95   111   112    2
    96   110   109    1
    97    10     3   am
    98    73    74    1
    99    77    80    1
   100    80    81    1
   101   117   115   ar
   102   115   116   ar
   103   107   106   ar
   104    81    82    1
   105     3     4    2
   106     3     2    1
   107   102   101    1
   108   102   103    1
   109   102   105    1
   110   106   105    1
   111   106   108   ar
   112   103   104    2
   113     2     5    1
   114     2     1    1
   115    82    83    1
   116     9     7   am
   117     5     6    1
   118    83    84    2
   119    85    84    1
   120    94    93   ar
   121     7     6    1
   122     7     8    2
   123    84    86    1
   124    93    92    1
   125    93    95   ar
   126    92    91    1
   127    91    88    1
   128    88    89    1
   129    88    87    1
   130    89    90    2
