@<TRIPOS>MOLECULE
tmp/6gkrB00.pdb
 172 165 0 0 0
SMALL
GASTEIGER

@<TRIPOS>ATOM
      1  N         28.8820  -12.4730   35.3940 N.3    34  PHE34      -0.1241
      2  CA        29.9760  -13.3560   35.0270 C.3    34  PHE34       0.1605
      3  C         29.9710  -14.5610   35.9620 C.2    34  PHE34       0.2264
      4  O         29.2010  -14.6220   36.9270 O.2    34  PHE34      -0.2867
      5  CB        31.3260  -12.6270   35.0520 C.3    34  PHE34       0.0534
      6  CG        31.8040  -12.3280   36.4520 C.ar   34  PHE34      -0.0203
      7  CD1       31.2270  -11.3040   37.2000 C.ar   34  PHE34      -0.0042
      8  CD2       32.7830  -13.1120   37.0510 C.ar   34  PHE34      -0.0042
      9  CE1       31.6410  -11.0470   38.5020 C.ar   34  PHE34      -0.0003
     10  CE2       33.1840  -12.8630   38.3590 C.ar   34  PHE34      -0.0003
     11  CZ        32.6000  -11.8420   39.0960 C.ar   34  PHE34      -0.0000
     12  N         33.0990  -17.3480   37.7250 N.3    36  GLY36      -0.1225
     13  CA        34.4700  -17.8240   37.7950 C.3    36  GLY36       0.1811
     14  C         34.4720  -19.3450   37.8670 C.2    36  GLY36       0.2280
     15  O         33.7950  -19.9050   38.7190 O.2    36  GLY36      -0.2866
     16  N         27.9840  -23.9350   37.3870 N.3    56  HIS56      -0.1241
     17  CA        28.3610  -22.5510   37.1120 C.3    56  HIS56       0.1621
     18  C         27.5620  -22.0020   35.9290 C.2    56  HIS56       0.2264
     19  O         27.1580  -20.8240   35.9510 O.2    56  HIS56      -0.2867
     20  CB        29.8660  -22.4060   36.8840 C.3    56  HIS56       0.0745
     21  CG        30.6730  -22.4130   38.1460 C.ar   56  HIS56       0.0817
     22  ND1       30.8740  -21.2770   38.9120 N.ar   56  HIS56      -0.2268
     23  CD2       31.3770  -23.3980   38.7410 C.ar   56  HIS56       0.1154
     24  CE1       31.6400  -21.5770   39.9360 C.ar   56  HIS56       0.1986
     25  NE2       31.9750  -22.8760   39.8550 N.ar   56  HIS56      -0.2212
     26  N         24.0930  -21.0920   37.1300 N.3    59  ARG59      -0.1245
     27  CA        24.0860  -19.8370   37.8610 C.3    59  ARG59       0.1563
     28  C         24.2850  -18.6520   36.9010 C.2    59  ARG59       0.2260
     29  O         23.6470  -17.6060   37.0700 O.2    59  ARG59      -0.2867
     30  CB        25.0440  -19.8730   39.0510 C.3    59  ARG59       0.0307
     31  CG        24.8510  -18.7110   40.0210 C.3    59  ARG59       0.0489
     32  CD        25.8100  -18.7560   41.1990 C.3    59  ARG59       0.2205
     33  NE        27.2250  -18.6510   40.7810 N.pl3  59  ARG59      -0.0865
     34  CZ        28.2600  -18.8870   41.5860 C.cat  59  ARG59       0.5346
     35  NH1       28.0650  -19.3310   42.8190 N.pl3  59  ARG59       0.1354
     36  NH2       29.4900  -18.6140   41.2040 N.pl3  59  ARG59       0.1354
     37  N         41.8000  -20.3780   35.1310 N.3    96  TYR96      -0.1241
     38  CA        40.6180  -19.7200   35.6260 C.3    96  TYR96       0.1605
     39  C         39.8690  -19.2130   34.4060 C.2    96  TYR96       0.2264
     40  O         40.4400  -18.5350   33.5590 O.2    96  TYR96      -0.2867
     41  CB        41.0070  -18.5870   36.5730 C.3    96  TYR96       0.0534
     42  CG        39.8540  -17.8510   37.2010 C.ar   96  TYR96      -0.0201
     43  CD1       39.0650  -18.4420   38.1770 C.ar   96  TYR96      -0.0009
     44  CD2       39.5630  -16.5550   36.8220 C.ar   96  TYR96      -0.0009
     45  CE1       38.0200  -17.7570   38.7780 C.ar   96  TYR96       0.0417
     46  CE2       38.5280  -15.8520   37.4070 C.ar   96  TYR96       0.0417
     47  CZ        37.7680  -16.4510   38.3950 C.ar   96  TYR96       0.1957
     48  OH        36.7690  -15.7280   38.9660 O.3    96  TYR96      -0.2866
     49  N         27.5860   -4.4460   53.2620 N.3   145  ARG145     -0.1245
     50  CA        27.3320   -5.2260   52.0620 C.3   145  ARG145      0.1563
     51  C         26.0020   -4.7960   51.4260 C.2   145  ARG145      0.2260
     52  O         25.0080   -4.5860   52.1280 O.2   145  ARG145     -0.2867
     53  CB        27.2990   -6.7150   52.4080 C.3   145  ARG145      0.0307
     54  CG        27.1820   -7.6470   51.1970 C.3   145  ARG145      0.0489
     55  CD        28.4390   -7.4420   50.3550 C.3   145  ARG145      0.2205
     56  NE        28.5210   -8.3660   49.2370 N.pl3 145  ARG145     -0.0865
     57  CZ        29.0700   -8.1330   48.0640 C.cat 145  ARG145      0.5346
     58  NH1       29.5930   -6.9450   47.8090 N.pl3 145  ARG145      0.1354
     59  NH2       29.0150   -9.0810   47.1460 N.pl3 145  ARG145      0.1354
     60  N         25.4220  -12.4600   40.1810 N.3   156  LYS156     -0.1197
     61  CA        26.8850  -12.3000   40.1080 C.3   156  LYS156      0.1778
     62  C         27.1980  -11.1710   39.1120 C.2   156  LYS156      0.2305
     63  O         27.7560  -11.4090   38.0370 O.2   156  LYS156     -0.2863
     64  CB        27.6240  -13.6410   39.8710 C.2   156  LYS156     -0.0042
     65  CG        29.1260  -13.6650   40.2090 C.2   156  LYS156     -0.0273
     66  CD        29.9350  -15.0200   40.3800 C.3   156  LYS156      0.0462
     67  CE        31.4230  -14.8390   40.7860 C.3   156  LYS156      0.1140
     68  NZ        31.8720  -15.1640   42.2070 N.3   156  LYS156     -0.1310
     69  N         30.7340   -5.5080   42.5290 N.3   161  TYR161     -0.1241
     70  CA        32.1240   -5.4580   42.9670 C.3   161  TYR161      0.1605
     71  C         32.5690   -4.0310   43.3050 C.2   161  TYR161      0.2264
     72  O         33.6260   -3.8670   43.9050 O.2   161  TYR161     -0.2867
     73  CB        33.0750   -6.2530   42.0550 C.3   161  TYR161      0.0534
     74  CG        32.7750   -7.7210   42.1730 C.ar  161  TYR161     -0.0201
     75  CD1       31.6560   -8.2260   41.5380 C.ar  161  TYR161     -0.0009
     76  CD2       33.5150   -8.5670   42.9990 C.ar  161  TYR161     -0.0009
     77  CE1       31.2560   -9.5290   41.7260 C.ar  161  TYR161      0.0417
     78  CE2       33.1490   -9.8980   43.1600 C.ar  161  TYR161      0.0417
     79  CZ        31.9900  -10.3590   42.5510 C.ar  161  TYR161      0.1957
     80  OH        31.5360  -11.6410   42.6390 O.3   161  TYR161     -0.2866
     81  N         29.5660  -11.8900   53.8440 N.3   190  GLU190     -0.1231
     82  CA        30.5650  -12.6560   53.1030 C.3   190  GLU190      0.1699
     83  C         31.8350  -11.8090   52.9820 C.2   190  GLU190      0.2593
     84  O         31.8590  -10.6620   53.4350 O.2   190  GLU190     -0.2718
     85  CB        29.9990  -13.0820   51.7460 C.3   190  GLU190      0.0402
     86  CG        29.7010  -11.9140   50.7960 C.3   190  GLU190      0.1161
     87  CD        28.9700  -12.2170   49.4730 C.2   190  GLU190      0.3649
     88  OE1       29.0120  -13.3830   49.0150 O.co2 190  GLU190     -0.2457
     89  OE2       28.3140  -11.2810   48.9010 O.co2 190  GLU190     -0.2457
     90  N         32.8830  -12.4010   52.3770 N.am  191  GLY191     -0.1942
     91  CA        34.0960  -11.6980   51.9610 C.3   191  GLY191      0.2014
     92  C         33.8450  -10.8870   50.6880 C.2   191  GLY191      0.2640
     93  O         32.7340  -10.9030   50.1280 O.2   191  GLY191     -0.2714
     94  N         34.8620  -10.1250   50.2630 N.am  192  THR192     -0.1936
     95  CA        34.7270   -9.2400   49.1190 C.3   192  THR192      0.2028
     96  C         34.6960  -10.0480   47.8110 C.2   192  THR192      0.2643
     97  O         34.0990   -9.6030   46.8210 O.2   192  THR192     -0.2714
     98  CB        35.8640   -8.2100   49.0870 C.3   192  THR192      0.1808
     99  OG1       37.0670   -8.9660   49.1650 O.3   192  THR192     -0.2208
    100  CG2       35.7870   -7.1790   50.1940 C.3   192  THR192      0.0379
    101  N         35.3010  -11.2590   47.8190 N.am  193  GLY193     -0.1939
    102  CA        35.1570  -12.1150   46.6530 C.3   193  GLY193      0.2014
    103  C         34.9490  -13.5870   46.9860 C.2   193  GLY193      0.2640
    104  O         35.4590  -14.4350   46.2800 O.2   193  GLY193     -0.2714
    105  N         34.2530  -13.8930   48.0760 N.am  194  SER194     -0.1935
    106  CA        34.2210  -15.2660   48.5830 C.3   194  SER194      0.2055
    107  C         33.2800  -15.3180   49.7770 C.2   194  SER194      0.2643
    108  O         32.9350  -14.2800   50.3270 O.2   194  SER194     -0.2714
    109  CB        35.6110  -15.7660   48.9840 C.3   194  SER194      0.2130
    110  OG        36.0610  -14.9950   50.0980 O.3   194  SER194     -0.2179
    111  N         32.8890  -16.5290   50.1630 N.am  195  CYS195     -0.1967
    112  CA        32.0810  -16.7580   51.3420 C.3   195  CYS195      0.1712
    113  C         33.0110  -17.1020   52.5050 C.2   195  CYS195      0.2296
    114  O         34.1870  -17.3870   52.2950 O.2   195  CYS195     -0.2864
    115  CB        31.0810  -17.8660   51.0130 C.3   195  CYS195      0.0983
    116  SG        29.6940  -17.1760   50.0510 S.3   195  CYS195     -0.0798
    117  N         26.2980  -14.1930   47.8440 N.3   214  LEU214     -0.1245
    118  CA        26.2020  -15.0230   46.6590 C.3   214  LEU214      0.1561
    119  C         26.0980  -16.4890   47.1040 C.2   214  LEU214      0.2260
    120  O         26.7170  -16.9030   48.0830 O.2   214  LEU214     -0.2867
    121  CB        27.4710  -14.8200   45.8330 C.3   214  LEU214      0.0270
    122  CG        27.4830  -15.5130   44.4760 C.3   214  LEU214      0.0019
    123  CD1       27.0800  -14.5230   43.4050 C.3   214  LEU214      0.0001
    124  CD2       28.8820  -16.0050   44.1730 C.3   214  LEU214      0.0001
    125  N         27.5190  -19.2910   46.8060 N.3   216  SER216     -0.1202
    126  CA        28.8190  -19.8010   46.4260 C.3   216  SER216      0.2020
    127  C         28.7790  -21.3030   46.1750 C.2   216  SER216      0.2619
    128  O         28.2230  -22.0910   46.9610 O.2   216  SER216     -0.2717
    129  CB        29.8130  -19.4770   47.4920 C.3   216  SER216      0.2103
    130  OG        31.0340  -20.1800   47.2920 O.3   216  SER216     -0.2182
    131  N         29.3970  -21.6910   45.0580 N.am  217  ILE217     -0.1965
    132  CA        29.4750  -23.0970   44.7080 C.3   217  ILE217      0.1727
    133  C         30.5790  -23.7870   45.5260 C.2   217  ILE217      0.2616
    134  O         30.4550  -24.9650   45.8830 O.2   217  ILE217     -0.2715
    135  CB        29.5920  -23.2370   43.1780 C.3   217  ILE217      0.0290
    136  CG1       28.2260  -22.9400   42.5400 C.3   217  ILE217      0.0022
    137  CG2       30.1130  -24.6240   42.7960 C.3   217  ILE217      0.0023
    138  CD1       28.3130  -22.6210   41.0570 C.3   217  ILE217      0.0001
    139  N         31.6560  -23.0480   45.8410 N.am  218  THR218     -0.1951
    140  CA        32.6880  -23.5830   46.7190 C.3   218  THR218      0.1897
    141  C         32.1080  -23.7870   48.1220 C.2   218  THR218      0.2313
    142  O         32.3830  -24.7890   48.7820 O.2   218  THR218     -0.2863
    143  CB        33.9210  -22.6600   46.7730 C.3   218  THR218      0.1794
    144  OG1       34.1830  -22.1630   45.4730 O.3   218  THR218     -0.2208
    145  CG2       35.1660  -23.3770   47.2370 C.3   218  THR218      0.0378
    146  N         36.1090  -19.1460   51.2130 N.3   253  CYS253     -0.1221
    147  CA        36.1150  -20.0490   50.0650 C.3   253  CYS253      0.1808
    148  C         35.4030  -19.3910   48.8840 C.2   253  CYS253      0.2602
    149  O         34.4530  -18.6460   49.0460 O.2   253  CYS253     -0.2717
    150  CB        35.5060  -21.4090   50.4190 C.3   253  CYS253      0.0970
    151  SG        33.7700  -21.2360   50.8760 S.3   253  CYS253     -0.0800
    152  N         35.9050  -19.6750   47.6920 N.am  254  GLY254     -0.1942
    153  CA        35.4140  -19.1680   46.4230 C.3   254  GLY254      0.2014
    154  C         36.1780  -19.8600   45.2940 C.2   254  GLY254      0.2640
    155  O         37.1940  -20.5450   45.5360 O.2   254  GLY254     -0.2714
    156  N         35.6820  -19.7180   44.0560 N.am  255  THR255     -0.1936
    157  CA        36.3380  -20.4620   42.9910 C.3   255  THR255      0.2028
    158  C         37.8000  -20.0140   42.8770 C.2   255  THR255      0.2642
    159  O         38.7260  -20.8320   42.9050 O.2   255  THR255     -0.2714
    160  CB        35.5660  -20.3900   41.6760 C.3   255  THR255      0.1808
    161  OG1       34.2720  -20.9150   41.9570 O.3   255  THR255     -0.2208
    162  CG2       36.2350  -21.1820   40.5730 C.3   255  THR255      0.0379
    163  N         37.9890  -18.6970   42.7850 N.am  256  HIS256     -0.1973
    164  CA        39.3230  -18.1520   42.6290 C.3   256  HIS256      0.1656
    165  C         40.1550  -18.3440   43.9060 C.2   256  HIS256      0.2291
    166  O         41.3240  -18.7220   43.8320 O.2   256  HIS256     -0.2864
    167  CB        39.2670  -16.6960   42.1470 C.3   256  HIS256      0.0771
    168  CG        40.6170  -16.2530   41.7290 C.ar  256  HIS256      0.0820
    169  ND1       41.5890  -15.8280   42.6530 N.ar  256  HIS256     -0.2267
    170  CD2       41.2050  -16.2690   40.5000 C.ar  256  HIS256      0.1154
    171  CE1       42.7160  -15.5650   42.0010 C.ar  256  HIS256      0.1986
    172  NE2       42.5080  -15.8280   40.6730 N.ar  256  HIS256     -0.2212
@<TRIPOS>BOND
     1    40    39    2
     2    39    38    1
     3     2     5    1
     4     2     1    1
     5     2     3    1
     6     5     6    1
     7    37    38    1
     8    38    41    1
     9    18    19    2
    10    18    17    1
    11     3     4    2
    12     6     8   ar
    13     6     7   ar
    14    41    42    1
    15    44    42   ar
    16    44    46   ar
    17    20    17    1
    18    20    21    1
    19    28    29    2
    20    28    27    1
    21     8    10   ar
    22    17    16    1
    23    26    27    1
    24     7     9   ar
    25    42    43   ar
    26    46    47   ar
    27    12    13    1
    28    13    14    1
    29    27    30    1
    30    14    15    2
    31    63    62    2
    32    21    23   ar
    33    21    22   ar
    34    43    45   ar
    35    10    11   ar
    36    47    45   ar
    37    47    48    1
    38     9    11   ar
    39    23    25   ar
    40    22    24   ar
    41    30    31    1
    42    62    61    1
    43    25    24   ar
    44    64    61    1
    45    64    65    2
    46    31    32    1
    47    61    60    1
    48    65    66    1
    49    66    67    1
    50   170   172   ar
    51   170   168   ar
    52   162   160    1
    53   172   171   ar
    54    33    32    1
    55    33    34    2
    56    67    68    1
    57   138   136    1
    58    36    34    1
    59    75    77   ar
    60    75    74   ar
    61    34    35    1
    62   160   161    1
    63   160   157    1
    64    77    79   ar
    65   168   167    1
    66   168   169   ar
    67   171   169   ar
    68    73    74    1
    69    73    70    1
    70   167   164    1
    71    74    76   ar
    72    69    70    1
    73   136   135    1
    74    79    80    1
    75    79    78   ar
    76   164   163    1
    77   164   165    1
    78   163   158   am
    79   137   135    1
    80   158   159    2
    81   158   157    1
    82    70    71    1
    83   157   156    1
    84    76    78   ar
    85   135   132    1
    86    71    72    2
    87   123   122    1
    88   166   165    2
    89   156   154   am
    90   124   122    1
    91   122   121    1
    92   132   131    1
    93   132   133    1
    94   131   127   am
    95   154   155    2
    96   154   153    1
    97   144   143    1
    98   133   139   am
    99   133   134    2
   100   121   118    1
   101   139   140    1
   102   127   126    1
   103   127   128    2
   104   104   103    2
   105   153   152    1
   106   126   125    1
   107   126   129    1
   108   102   103    1
   109   102   101    1
   110   118   119    1
   111   118   117    1
   112   140   143    1
   113   140   141    1
   114   143   145    1
   115    97    96    2
   116   103   105   am
   117   119   120    2
   118    59    57    1
   119   130   129    1
   120   152   148   am
   121    58    57    1
   122    96   101   am
   123    96    95    1
   124    57    56    2
   125   105   106    1
   126   141   142    2
   127   106   109    1
   128   106   107    1
   129   148   149    2
   130   148   147    1
   131    89    87   ar
   132   109   110    1
   133    88    87   ar
   134    98    95    1
   135    98    99    1
   136    98   100    1
   137    95    94    1
   138    56    55    1
   139    87    86    1
   140   107   111   am
   141   107   108    2
   142   116   115    1
   143   147   150    1
   144   147   146    1
   145    93    92    2
   146   111   112    1
   147    94    92   am
   148    55    54    1
   149   150   151    1
   150    92    91    1
   151    86    85    1
   152   115   112    1
   153    54    53    1
   154   112   113    1
   155    51    50    1
   156    51    52    2
   157    85    82    1
   158    91    90    1
   159    50    53    1
   160    50    49    1
   161   114   113    2
   162    90    83   am
   163    83    82    1
   164    83    84    2
   165    82    81    1
