@<TRIPOS>MOLECULE
tmp/6gkvA01.pdb
 164 158 0 0 0
SMALL
GASTEIGER

@<TRIPOS>ATOM
      1  N         22.7370   25.5730   -9.7920 N.3    75  TYR75      -0.1241
      2  CA        23.5090   26.7350  -10.2880 C.3    75  TYR75       0.1605
      3  C         24.1830   27.6420   -9.2240 C.2    75  TYR75       0.2264
      4  O         24.8390   28.6300   -9.5780 O.2    75  TYR75      -0.2867
      5  CB        22.6050   27.5930  -11.1930 C.3    75  TYR75       0.0534
      6  CG        22.1060   26.8300  -12.3970 C.ar   75  TYR75      -0.0201
      7  CD1       22.9480   25.9430  -13.0640 C.ar   75  TYR75      -0.0009
      8  CD2       20.7960   26.9580  -12.8410 C.ar   75  TYR75      -0.0009
      9  CE1       22.5180   25.2290  -14.1480 C.ar   75  TYR75       0.0417
     10  CE2       20.3510   26.2360  -13.9320 C.ar   75  TYR75       0.0417
     11  CZ        21.2250   25.3710  -14.5850 C.ar   75  TYR75       0.1957
     12  OH        20.8190   24.6370  -15.6840 O.3    75  TYR75      -0.2866
     13  N         29.3650   22.5450  -17.9640 N.3    92  GLY92      -0.1225
     14  CA        28.1950   21.9280  -17.3550 C.3    92  GLY92       0.1811
     15  C         27.0960   21.7490  -18.3800 C.2    92  GLY92       0.2280
     16  O         25.9110   21.9490  -18.0920 O.2    92  GLY92      -0.2866
     17  N         22.4690   26.2950  -23.7060 N.3   198  GLU198     -0.1245
     18  CA        21.5600   25.5580  -22.8290 C.3   198  GLU198      0.1567
     19  C         21.0360   26.4570  -21.7240 C.2   198  GLU198      0.2260
     20  O         21.2300   26.1870  -20.5550 O.2   198  GLU198     -0.2867
     21  CB        22.2450   24.3020  -22.2660 C.3   198  GLU198      0.0388
     22  CG        22.5390   23.2670  -23.3530 C.3   198  GLU198      0.1160
     23  CD        23.0800   21.9520  -22.8280 C.2   198  GLU198      0.3649
     24  OE1       22.8890   21.6440  -21.6280 O.co2 198  GLU198     -0.2457
     25  OE2       23.7180   21.2280  -23.6210 O.co2 198  GLU198     -0.2457
     26  N         16.0710   26.3350  -22.0030 N.3   201  GLU201     -0.1231
     27  CA        15.3600   25.2640  -21.3010 C.3   201  GLU201      0.1699
     28  C         14.7490   25.7010  -19.9540 C.2   201  GLU201      0.2592
     29  O         13.8190   25.0610  -19.4430 O.2   201  GLU201     -0.2718
     30  CB        16.3020   24.0710  -21.0700 C.3   201  GLU201      0.0402
     31  CG        16.7110   23.3200  -22.3660 C.3   201  GLU201      0.1161
     32  CD        18.0400   23.7860  -22.9380 C.2   201  GLU201      0.3649
     33  OE1       18.3180   24.9950  -22.9170 O.co2 201  GLU201     -0.2457
     34  OE2       18.8310   22.9280  -23.3860 O.co2 201  GLU201     -0.2457
     35  N         15.2870   26.7850  -19.3930 N.am  202  HIS202     -0.1976
     36  CA        14.8320   27.3680  -18.1240 C.3   202  HIS202      0.1656
     37  C         13.8870   28.5410  -18.3220 C.2   202  HIS202      0.2291
     38  O         13.3200   29.0740  -17.3700 O.2   202  HIS202     -0.2864
     39  CB        16.0350   27.8370  -17.3210 C.3   202  HIS202      0.0771
     40  CG        16.9750   26.7370  -16.9480 C.ar  202  HIS202      0.0820
     41  ND1       16.5720   25.6240  -16.2400 N.ar  202  HIS202     -0.2267
     42  CD2       18.3040   26.5870  -17.1640 C.ar  202  HIS202      0.1154
     43  CE1       17.6110   24.8320  -16.0400 C.ar  202  HIS202      0.1986
     44  NE2       18.6730   25.3950  -16.5890 N.ar  202  HIS202     -0.2212
     45  N         19.1890   21.3030  -25.6350 N.3   228  ILE228     -0.1245
     46  CA        18.8970   19.9000  -25.7600 C.3   228  ILE228      0.1561
     47  C         17.4610   19.8330  -26.2810 C.2   228  ILE228      0.2260
     48  O         16.7260   20.8130  -26.1670 O.2   228  ILE228     -0.2867
     49  CB        19.0930   19.1600  -24.4200 C.3   228  ILE228      0.0252
     50  CG1       18.3390   19.8720  -23.2980 C.3   228  ILE228      0.0019
     51  CG2       20.5700   19.1330  -24.0810 C.3   228  ILE228      0.0019
     52  CD1       16.9040   19.4660  -23.1610 C.3   228  ILE228      0.0001
     53  N          8.5810   20.2090  -18.7440 N.3   237  TYR237     -0.1241
     54  CA         8.9900   19.0410  -17.9500 C.3   237  TYR237      0.1605
     55  C          8.1040   18.9760  -16.7030 C.2   237  TYR237      0.2264
     56  O          8.5090   19.3830  -15.6230 O.2   237  TYR237     -0.2867
     57  CB        10.5140   19.0550  -17.6280 C.3   237  TYR237      0.0534
     58  CG        11.0760   17.6450  -17.7690 C.ar  237  TYR237     -0.0201
     59  CD1       10.5460   16.8280  -18.7490 C.ar  237  TYR237     -0.0009
     60  CD2       12.1400   17.1380  -16.9920 C.ar  237  TYR237     -0.0009
     61  CE1       10.9530   15.5570  -18.9330 C.ar  237  TYR237      0.0417
     62  CE2       12.6010   15.8050  -17.2130 C.ar  237  TYR237      0.0417
     63  CZ        11.9840   15.0340  -18.1840 C.ar  237  TYR237      0.1957
     64  OH        12.3190   13.7260  -18.4790 O.3   237  TYR237     -0.2866
     65  N         15.3100   17.8680  -11.7610 N.3   251  PHE251     -0.1241
     66  CA        15.0370   19.2960  -11.8480 C.3   251  PHE251      0.1605
     67  C         13.7610   19.6580  -11.0940 C.2   251  PHE251      0.2264
     68  O         12.7530   18.9650  -11.2220 O.2   251  PHE251     -0.2867
     69  CB        14.9060   19.7400  -13.3060 C.3   251  PHE251      0.0534
     70  CG        16.1260   19.4630  -14.1380 C.ar  251  PHE251     -0.0203
     71  CD1       16.2710   18.2470  -14.8060 C.ar  251  PHE251     -0.0042
     72  CD2       17.1360   20.4110  -14.2390 C.ar  251  PHE251     -0.0042
     73  CE1       17.3970   17.9880  -15.5520 C.ar  251  PHE251     -0.0003
     74  CE2       18.2670   20.1570  -14.9970 C.ar  251  PHE251     -0.0003
     75  CZ        18.4000   18.9450  -15.6510 C.ar  251  PHE251     -0.0000
     76  N         11.9570   23.5060  -16.1980 N.3   256  MET256     -0.1245
     77  CA        12.5210   22.9140  -17.4110 C.3   256  MET256      0.1570
     78  C         11.5070   22.7290  -18.5210 C.2   256  MET256      0.2261
     79  O         10.3660   22.3300  -18.2720 O.2   256  MET256     -0.2867
     80  CB        13.1680   21.5620  -17.0980 C.3   256  MET256      0.0387
     81  CG        14.5720   21.6750  -16.5250 C.3   256  MET256      0.0595
     82  SD        15.7870   21.7500  -17.8530 S.3   256  MET256     -0.1393
     83  CE        14.9680   20.6830  -18.9960 C.3   256  MET256      0.0692
     84  N         11.4740   20.8520  -22.4960 N.3   258  ILE258     -0.1245
     85  CA        12.1670   20.1070  -23.5470 C.3   258  ILE258      0.1561
     86  C         11.6160   20.5140  -24.9090 C.2   258  ILE258      0.2260
     87  O         10.4980   20.1110  -25.2730 O.2   258  ILE258     -0.2867
     88  CB        12.0160   18.5850  -23.3780 C.3   258  ILE258      0.0252
     89  CG1       12.3740   18.1830  -21.9500 C.3   258  ILE258      0.0019
     90  CG2       12.8700   17.8480  -24.4150 C.3   258  ILE258      0.0019
     91  CD1       13.8240   18.4450  -21.5960 C.3   258  ILE258      0.0001
     92  N         25.7190   13.7100  -25.2120 N.3   284  PHE284     -0.1241
     93  CA        25.3660   14.1240  -23.8610 C.3   284  PHE284      0.1605
     94  C         25.2290   12.8970  -22.9680 C.2   284  PHE284      0.2264
     95  O         25.4580   12.9670  -21.7540 O.2   284  PHE284     -0.2867
     96  CB        24.0980   14.9820  -23.8230 C.3   284  PHE284      0.0534
     97  CG        24.0360   15.8750  -22.6130 C.ar  284  PHE284     -0.0203
     98  CD1       25.1830   16.0990  -21.8880 C.ar  284  PHE284     -0.0042
     99  CD2       22.8870   16.5400  -22.2420 C.ar  284  PHE284     -0.0042
    100  CE1       25.1870   16.9000  -20.7790 C.ar  284  PHE284     -0.0003
    101  CE2       22.9070   17.3820  -21.1280 C.ar  284  PHE284     -0.0003
    102  CZ        24.0590   17.5410  -20.3870 C.ar  284  PHE284     -0.0000
    103  N         27.4320   12.7840  -19.3890 N.3   288  ASN288     -0.1240
    104  CA        26.8760   12.4940  -18.0900 C.3   288  ASN288      0.1653
    105  C         27.5010   11.2510  -17.4830 C.2   288  ASN288      0.2266
    106  O         27.5840   11.1190  -16.2440 O.2   288  ASN288     -0.2867
    107  CB        25.3640   12.3030  -18.1720 C.3   288  ASN288      0.1155
    108  CG        24.5980   13.6230  -18.2260 C.2   288  ASN288      0.2627
    109  OD1       24.3770   14.2540  -17.1940 O.2   288  ASN288     -0.2716
    110  ND2       24.1380   14.0090  -19.4170 N.am  288  ASN288     -0.0877
    111  N         30.9590   12.1130  -16.0720 N.3   291  TRP291     -0.1241
    112  CA        30.7230   12.8250  -14.8340 C.3   291  TRP291      0.1605
    113  C         30.4720   11.8370  -13.6900 C.2   291  TRP291      0.2264
    114  O         31.0360   11.9630  -12.5930 O.2   291  TRP291     -0.2867
    115  CB        29.5220   13.7620  -14.9890 C.3   291  TRP291      0.0550
    116  CG        29.7720   14.9960  -15.8040 C.ar  291  TRP291      0.0003
    117  CD1       30.9820   15.5280  -16.1400 C.ar  291  TRP291      0.0946
    118  CD2       28.7780   15.8560  -16.3850 C.ar  291  TRP291      0.0152
    119  NE1       30.8040   16.6700  -16.8920 N.ar  291  TRP291     -0.2442
    120  CE2       29.4590   16.8910  -17.0590 C.ar  291  TRP291      0.0810
    121  CE3       27.3730   15.8490  -16.4050 C.ar  291  TRP291      0.0012
    122  CZ2       28.7920   17.9140  -17.7360 C.ar  291  TRP291      0.0191
    123  CZ3       26.7060   16.8720  -17.0850 C.ar  291  TRP291      0.0001
    124  CH2       27.4190   17.8900  -17.7310 C.ar  291  TRP291      0.0015
    125  N         21.3170   12.7530  -11.2740 N.3   326  PHE326     -0.1241
    126  CA        21.4670   13.7840  -12.2930 C.3   326  PHE326      0.1605
    127  C         22.0480   13.1560  -13.5430 C.2   326  PHE326      0.2264
    128  O         21.4870   13.2160  -14.6280 O.2   326  PHE326     -0.2867
    129  CB        22.3940   14.8830  -11.7790 C.3   326  PHE326      0.0534
    130  CG        22.5330   16.0520  -12.6940 C.ar  326  PHE326     -0.0203
    131  CD1       21.6690   17.1400  -12.5820 C.ar  326  PHE326     -0.0042
    132  CD2       23.5440   16.0940  -13.6390 C.ar  326  PHE326     -0.0042
    133  CE1       21.8040   18.2440  -13.4110 C.ar  326  PHE326     -0.0003
    134  CE2       23.6770   17.1850  -14.4740 C.ar  326  PHE326     -0.0003
    135  CZ        22.8050   18.2610  -14.3560 C.ar  326  PHE326     -0.0000
    136  N         20.0410   10.0860  -15.0200 N.3   329  SER329     -0.1202
    137  CA        18.9890   10.6640  -15.8520 C.3   329  SER329      0.2020
    138  C         19.5590   11.1010  -17.2070 C.2   329  SER329      0.2619
    139  O         19.0200   10.7570  -18.2520 O.2   329  SER329     -0.2717
    140  CB        18.3330   11.8540  -15.1680 C.3   329  SER329      0.2103
    141  OG        17.5560   11.4210  -14.0760 O.3   329  SER329     -0.2182
    142  N         20.6650   11.8370  -17.1770 N.am  330  GLY330     -0.1956
    143  CA        21.3220   12.2630  -18.4000 C.3   330  GLY330      0.1869
    144  C         21.7690   11.1070  -19.2780 C.2   330  GLY330      0.2309
    145  O         21.5270   11.1100  -20.4840 O.2   330  GLY330     -0.2863
    146  N         18.5330    9.0800  -20.6820 N.3   333  MET333     -0.1230
    147  CA        17.5840    9.8500  -21.4550 C.3   333  MET333      0.1702
    148  C         18.1670   10.1540  -22.8340 C.2   333  MET333      0.2592
    149  O         17.5550    9.8830  -23.8600 O.2   333  MET333     -0.2718
    150  CB        17.2160   11.1340  -20.7200 C.3   333  MET333      0.0401
    151  CG        16.6210   12.1540  -21.6170 C.3   333  MET333      0.0596
    152  SD        16.1940   13.7130  -20.8960 S.3   333  MET333     -0.1393
    153  CE        14.6150   13.2640  -20.4120 C.3   333  MET333      0.0692
    154  N         19.3740   10.6980  -22.8470 N.am  334  PHE334     -0.1976
    155  CA        20.0120   11.0650  -24.0860 C.3   334  PHE334      0.1639
    156  C         20.5940    9.8870  -24.8530 C.2   334  PHE334      0.2290
    157  O         20.6790    9.9380  -26.0670 O.2   334  PHE334     -0.2864
    158  CB        21.0650   12.1140  -23.7980 C.3   334  PHE334      0.0560
    159  CG        20.4560   13.4240  -23.4610 C.ar  334  PHE334     -0.0200
    160  CD1       20.1070   13.7230  -22.1400 C.ar  334  PHE334     -0.0042
    161  CD2       20.1310   14.3260  -24.4720 C.ar  334  PHE334     -0.0042
    162  CE1       19.4880   14.9150  -21.8260 C.ar  334  PHE334     -0.0003
    163  CE2       19.5050   15.5260  -24.1640 C.ar  334  PHE334     -0.0003
    164  CZ        19.1900   15.8200  -22.8480 C.ar  334  PHE334     -0.0000
@<TRIPOS>BOND
     1    47    48    2
     2    47    46    1
     3   157   156    2
     4    46    45    1
     5    46    49    1
     6    87    86    2
     7    92    93    1
     8    86    85    1
     9   156   155    1
    10   161   163   ar
    11   161   159   ar
    12    49    51    1
    13    49    50    1
    14    90    88    1
    15   163   164   ar
    16   155   158    1
    17   155   154    1
    18    93    96    1
    19    93    94    1
    20   149   148    2
    21    96    97    1
    22   158   159    1
    23    17    18    1
    24    25    23   ar
    25    85    88    1
    26    85    84    1
    27   159   160   ar
    28    34    32   ar
    29    88    89    1
    30    22    23    1
    31    22    21    1
    32    50    52    1
    33    94    95    2
    34    32    33   ar
    35    32    31    1
    36   164   162   ar
    37   154   148   am
    38   148   147    1
    39    18    21    1
    40    18    19    1
    41    23    24   ar
    42    97    99   ar
    43    97    98   ar
    44    31    30    1
    45    99   101   ar
    46   160   162   ar
    47    26    27    1
    48    89    91    1
    49    98   100   ar
    50    19    20    2
    51   151   152    1
    52   151   150    1
    53   147   150    1
    54   147   146    1
    55    27    30    1
    56    27    28    1
    57   101   102   ar
    58   152   153    1
    59   100   102   ar
    60   145   144    2
    61    28    29    2
    62    28    35   am
    63   110   108   am
    64    35    36    1
    65   103   104    1
    66   144   143    1
    67    83    82    1
    68    61    59   ar
    69    61    63   ar
    70    59    58   ar
    71    53    54    1
    72    78    79    2
    73    78    77    1
    74    64    63    1
    75   143   142    1
    76    15    16    2
    77    15    14    1
    78    37    36    1
    79    37    38    2
    80   139   138    2
    81   108   107    1
    82   108   109    2
    83    63    62   ar
    84   107   104    1
    85    36    39    1
    86   104   105    1
    87    13    14    1
    88    54    57    1
    89    54    55    1
    90    82    81    1
    91    58    57    1
    92    58    60   ar
    93   122   124   ar
    94   122   120   ar
    95   124   123   ar
    96   105   106    2
    97    77    80    1
    98    77    76    1
    99    39    40    1
   100    62    60   ar
   101   138   142   am
   102   138   137    1
   103    42    40   ar
   104    42    44   ar
   105    80    81    1
   106   123   121   ar
   107   120   119   ar
   108   120   118   ar
   109    40    41   ar
   110   119   117   ar
   111    55    56    2
   112    44    43   ar
   113   121   118   ar
   114   118   116   ar
   115    41    43   ar
   116   117   116   ar
   117   111   112    1
   118   137   140    1
   119   137   136    1
   120   116   115    1
   121    12    11    1
   122    75    73   ar
   123    75    74   ar
   124    73    71   ar
   125   140   141    1
   126    74    72   ar
   127   115   112    1
   128   112   113    1
   129    71    70   ar
   130   128   127    2
   131    11     9   ar
   132    11    10   ar
   133   134   135   ar
   134   134   132   ar
   135   135   133   ar
   136    72    70   ar
   137     9     7   ar
   138    70    69    1
   139    10     8   ar
   140   113   114    2
   141   132   130   ar
   142   127   126    1
   143   133   131   ar
   144    69    66    1
   145     7     6   ar
   146     8     6   ar
   147   130   131   ar
   148   130   129    1
   149     6     5    1
   150   126   129    1
   151   126   125    1
   152    66    65    1
   153    66    67    1
   154    68    67    2
   155     5     2    1
   156     2     1    1
   157     2     3    1
   158     4     3    2
