@<TRIPOS>MOLECULE
tmp/6gkvA00.pdb
 204 193 0 0 0
SMALL
GASTEIGER

@<TRIPOS>ATOM
      1  N         10.6040   34.1140  -17.9180 N.3    64  ALA64      -0.1245
      2  CA        10.9690   32.9900  -17.0560 C.3    64  ALA64       0.1562
      3  C         10.1190   32.9480  -15.8060 C.2    64  ALA64       0.2260
      4  O          9.6480   33.9840  -15.3250 O.2    64  ALA64      -0.2867
      5  CB        12.4320   33.0570  -16.6720 C.3    64  ALA64       0.0290
      6  N         12.6400   31.8280  -11.0900 N.3    67  VAL67      -0.1245
      7  CA        13.9890   32.2530  -11.4890 C.3    67  VAL67       0.1561
      8  C         15.0430   32.1520  -10.3850 C.2    67  VAL67       0.2260
      9  O         16.1290   31.6170  -10.6030 O.2    67  VAL67      -0.2867
     10  CB        13.9750   33.7030  -11.9970 C.3    67  VAL67       0.0252
     11  CG1       15.3460   34.0940  -12.5430 C.3    67  VAL67       0.0019
     12  CG2       12.8840   33.8830  -13.0370 C.3    67  VAL67       0.0019
     13  N         15.3600   28.7130   -8.9140 N.3    70  LEU70      -0.1245
     14  CA        16.1640   27.8890   -9.8210 C.3    70  LEU70       0.1561
     15  C         17.6510   28.1210   -9.5510 C.2    70  LEU70       0.2260
     16  O         18.4420   27.1760   -9.5760 O.2    70  LEU70      -0.2867
     17  CB        15.8370   28.1840  -11.2980 C.3    70  LEU70       0.0270
     18  CG        16.7320   27.6430  -12.4300 C.3    70  LEU70       0.0019
     19  CD1       16.9880   26.1400  -12.3010 C.3    70  LEU70       0.0001
     20  CD2       16.1350   27.9840  -13.7980 C.3    70  LEU70       0.0001
     21  N         22.7370   25.5730   -9.7920 N.3    75  TYR75      -0.1241
     22  CA        23.5090   26.7350  -10.2880 C.3    75  TYR75       0.1605
     23  C         24.1830   27.6420   -9.2240 C.2    75  TYR75       0.2264
     24  O         24.8390   28.6300   -9.5780 O.2    75  TYR75      -0.2867
     25  CB        22.6050   27.5930  -11.1930 C.3    75  TYR75       0.0534
     26  CG        22.1060   26.8300  -12.3970 C.ar   75  TYR75      -0.0201
     27  CD1       22.9480   25.9430  -13.0640 C.ar   75  TYR75      -0.0009
     28  CD2       20.7960   26.9580  -12.8410 C.ar   75  TYR75      -0.0009
     29  CE1       22.5180   25.2290  -14.1480 C.ar   75  TYR75       0.0417
     30  CE2       20.3510   26.2360  -13.9320 C.ar   75  TYR75       0.0417
     31  CZ        21.2250   25.3710  -14.5850 C.ar   75  TYR75       0.1957
     32  OH        20.8190   24.6370  -15.6840 O.3    75  TYR75      -0.2866
     33  N         35.2210   22.8400  -16.7450 N.3    90  LEU90      -0.1231
     34  CA        34.0100   22.9240  -15.9480 C.3    90  LEU90       0.1693
     35  C         32.8280   23.2230  -16.8550 C.2    90  LEU90       0.2592
     36  O         32.0380   24.1360  -16.6030 O.2    90  LEU90      -0.2718
     37  CB        34.1440   23.9940  -14.8690 C.3    90  LEU90       0.0284
     38  CG        35.4070   23.9110  -14.0130 C.3    90  LEU90       0.0019
     39  CD1       35.4270   25.0380  -13.0050 C.3    90  LEU90       0.0001
     40  CD2       35.4980   22.5710  -13.3250 C.3    90  LEU90       0.0001
     41  N         32.7190   22.4520  -17.9280 N.am   91  LYS91      -0.1966
     42  CA        31.6160   22.6100  -18.8520 C.3    91  LYS91       0.1728
     43  C         30.4290   21.8320  -18.3200 C.2    91  LYS91       0.2617
     44  O         30.4810   20.6070  -18.2270 O.2    91  LYS91      -0.2715
     45  CB        32.0140   22.1310  -20.2440 C.3    91  LYS91       0.0311
     46  CG        30.9880   22.4450  -21.3380 C.3    91  LYS91       0.0038
     47  CD        31.5250   22.0400  -22.7100 C.3    91  LYS91       0.0206
     48  CE        30.8460   22.8350  -23.8060 C.3    91  LYS91       0.1093
     49  NZ        29.4060   22.5020  -23.9000 N.3    91  LYS91      -0.1314
     50  N         29.3650   22.5450  -17.9640 N.am   92  GLY92      -0.1940
     51  CA        28.1950   21.9280  -17.3550 C.3    92  GLY92       0.2014
     52  C         27.0960   21.7490  -18.3800 C.2    92  GLY92       0.2639
     53  O         25.9110   21.9490  -18.0920 O.2    92  GLY92      -0.2714
     54  N         27.5150   21.3660  -19.5850 N.am   93  SER93      -0.1949
     55  CA        26.6370   21.1940  -20.7310 C.3    93  SER93       0.1924
     56  C         27.2690   20.1810  -21.7150 C.2    93  SER93       0.2314
     57  O         28.4150   19.7500  -21.5320 O.2    93  SER93      -0.2863
     58  CB        26.4030   22.5440  -21.4170 C.3    93  SER93       0.2116
     59  OG        27.6440   23.2110  -21.6590 O.3    93  SER93      -0.2180
     60  N         28.3860   35.9120  -23.7490 N.3   129  ASP129     -0.1239
     61  CA        28.0910   34.5460  -23.3480 C.3   129  ASP129      0.1674
     62  C         26.9520   34.5420  -22.3310 C.2   129  ASP129      0.2266
     63  O         27.1780   34.7380  -21.1360 O.2   129  ASP129     -0.2867
     64  CB        29.3510   33.8930  -22.7810 C.3   129  ASP129      0.1410
     65  CG        29.1530   32.4360  -22.4380 C.2   129  ASP129      0.3668
     66  OD1       28.1850   31.8260  -22.9330 O.co2 129  ASP129     -0.2456
     67  OD2       29.9890   31.8900  -21.6920 O.co2 129  ASP129     -0.2456
     68  N         24.3980   33.1720  -19.8910 N.3   131  GLY131     -0.1210
     69  CA        24.2470   32.0060  -19.0510 C.3   131  GLY131      0.1956
     70  C         25.5140   31.1760  -19.0930 C.2   131  GLY131      0.2612
     71  O         25.4950   29.9920  -19.4370 O.2   131  GLY131     -0.2717
     72  N         26.6080   31.8080  -18.6910 N.am  132  CYS132     -0.1956
     73  CA        27.9600   31.3240  -18.9230 C.3   132  CYS132      0.1843
     74  C         28.4410   30.1360  -18.0850 C.2   132  CYS132      0.2626
     75  O         29.5370   29.6040  -18.3320 O.2   132  CYS132     -0.2714
     76  CB        28.9180   32.4840  -18.6910 C.3   132  CYS132      0.0997
     77  SG        28.8350   33.0750  -17.0070 S.3   132  CYS132     -0.0797
     78  N         27.6630   29.7430  -17.0780 N.am  133  GLY133     -0.1940
     79  CA        28.0880   28.6810  -16.1770 C.3   133  GLY133      0.2014
     80  C         29.3770   29.0380  -15.4570 C.2   133  GLY133      0.2638
     81  O         29.4940   30.1170  -14.8840 O.2   133  GLY133     -0.2714
     82  N         30.3510   28.1360  -15.4940 N.am  134  GLN134     -0.1977
     83  CA        31.6770   28.4330  -14.9650 C.3   134  GLN134      0.1601
     84  C         32.6220   28.9070  -16.0700 C.2   134  GLN134      0.2287
     85  O         33.8430   28.7930  -15.9570 O.2   134  GLN134     -0.2864
     86  CB        32.2540   27.2170  -14.2480 C.3   134  GLN134      0.0394
     87  CG        31.6100   26.9590  -12.8980 C.3   134  GLN134      0.0908
     88  CD        30.1920   26.4260  -13.0150 C.2   134  GLN134      0.2608
     89  OE1       29.8550   25.7360  -13.9790 O.2   134  GLN134     -0.2717
     90  NE2       29.3500   26.7520  -12.0350 N.am  134  GLN134     -0.0878
     91  N         33.3840   28.0020  -19.1690 N.3   136  ALA136     -0.1231
     92  CA        34.1140   27.1090  -20.0660 C.3   136  ALA136      0.1694
     93  C         34.2890   27.7370  -21.4500 C.2   136  ALA136      0.2591
     94  O         35.3910   27.7050  -22.0260 O.2   136  ALA136     -0.2718
     95  CB        33.4060   25.7840  -20.1750 C.3   136  ALA136      0.0304
     96  N         33.2130   28.3380  -21.9600 N.am  137  LEU137     -0.1980
     97  CA        33.2420   28.9720  -23.2820 C.3   137  LEU137      0.1596
     98  C         33.8960   30.3490  -23.2530 C.2   137  LEU137      0.2287
     99  O         34.6990   30.6710  -24.1270 O.2   137  LEU137     -0.2864
    100  CB        31.8310   29.0870  -23.8530 C.3   137  LEU137      0.0297
    101  CG        31.6510   29.7240  -25.2370 C.3   137  LEU137      0.0022
    102  CD1       32.4290   28.9750  -26.3390 C.3   137  LEU137      0.0001
    103  CD2       30.1660   29.7850  -25.5700 C.3   137  LEU137      0.0001
    104  N         25.7170   36.1610  -15.8900 N.3   154  THR154     -0.1203
    105  CA        25.2060   35.1720  -14.9450 C.3   154  THR154      0.1994
    106  C         24.3540   35.8160  -13.8650 C.2   154  THR154      0.2618
    107  O         24.5800   36.9570  -13.5250 O.2   154  THR154     -0.2717
    108  CB        26.3390   34.4340  -14.2470 C.3   154  THR154      0.1784
    109  OG1       27.3200   34.0440  -15.2090 O.3   154  THR154     -0.2211
    110  CG2       25.8040   33.2130  -13.6010 C.3   154  THR154      0.0376
    111  N         23.3870   35.0850  -13.3150 N.am  155  ASN155     -0.1960
    112  CA        22.6790   35.5410  -12.1210 C.3   155  ASN155      0.1819
    113  C         23.1550   34.7860  -10.8800 C.2   155  ASN155      0.2622
    114  O         22.4900   34.7820   -9.8380 O.2   155  ASN155     -0.2715
    115  CB        21.1700   35.3780  -12.2970 C.3   155  ASN155      0.1195
    116  CG        20.7480   33.9250  -12.4320 C.2   155  ASN155      0.2630
    117  OD1       21.5580   33.0500  -12.7550 O.2   155  ASN155     -0.2716
    118  ND2       19.4650   33.6630  -12.2020 N.am  155  ASN155     -0.0877
    119  N         24.3200   34.1600  -11.0060 N.am  156  SER156     -0.1950
    120  CA        24.8620   33.2630   -9.9860 C.3   156  SER156      0.1924
    121  C         26.1600   33.8150   -9.3980 C.2   156  SER156      0.2314
    122  O         27.1990   33.8290  -10.0570 O.2   156  SER156     -0.2863
    123  CB        25.0790   31.8620  -10.5890 C.3   156  SER156      0.2116
    124  OG        25.9170   31.0520   -9.7950 O.3   156  SER156     -0.2180
    125  N         29.2010   31.8510   -9.9170 N.3   159  GLN159     -0.1245
    126  CA        29.7540   31.7330  -11.2700 C.3   159  GLN159      0.1566
    127  C         30.5420   32.9910  -11.6760 C.2   159  GLN159      0.2260
    128  O         31.5760   32.8930  -12.3420 O.2   159  GLN159     -0.2867
    129  CB        28.6290   31.4140  -12.2720 C.3   159  GLN159      0.0367
    130  CG        28.0300   30.0210  -12.0590 C.3   159  GLN159      0.0905
    131  CD        26.9220   29.6630  -13.0460 C.2   159  GLN159      0.2608
    132  OE1       26.5830   30.4440  -13.9290 O.2   159  GLN159     -0.2717
    133  NE2       26.3610   28.4600  -12.9000 N.am  159  GLN159     -0.0878
    134  N         23.5460   39.4170  -13.5490 N.3   180  ALA180     -0.1231
    135  CA        22.2160   39.8980  -13.9460 C.3   180  ALA180      0.1694
    136  C         21.1940   38.7840  -14.1460 C.2   180  ALA180      0.2592
    137  O         21.5450   37.6780  -14.5480 O.2   180  ALA180     -0.2718
    138  CB        22.3160   40.7180  -15.2290 C.3   180  ALA180      0.0304
    139  N         19.9270   39.0850  -13.8640 N.am  181  ASP181     -0.1960
    140  CA        18.8310   38.2040  -14.2420 C.3   181  ASP181      0.1840
    141  C         18.5170   38.5250  -15.7030 C.2   181  ASP181      0.2622
    142  O         18.1020   39.6340  -16.0320 O.2   181  ASP181     -0.2715
    143  CB        17.6080   38.3940  -13.3340 C.3   181  ASP181      0.1450
    144  CG        16.4230   37.5010  -13.7230 C.2   181  ASP181      0.3671
    145  OD1       16.6250   36.4470  -14.3590 O.co2 181  ASP181     -0.2456
    146  OD2       15.2740   37.8480  -13.3820 O.co2 181  ASP181     -0.2456
    147  N         18.7550   37.5640  -16.5860 N.am  182  ILE182     -0.1963
    148  CA        18.5610   37.7870  -18.0080 C.3   182  ILE182      0.1727
    149  C         17.0740   38.0140  -18.2940 C.2   182  ILE182      0.2616
    150  O         16.7160   38.7110  -19.2480 O.2   182  ILE182     -0.2715
    151  CB        19.1370   36.6070  -18.8200 C.3   182  ILE182      0.0290
    152  CG1       20.6410   36.5110  -18.5550 C.3   182  ILE182      0.0022
    153  CG2       18.8720   36.7680  -20.3200 C.3   182  ILE182      0.0023
    154  CD1       21.3250   35.3240  -19.2090 C.3   182  ILE182      0.0001
    155  N         16.2180   37.4510  -17.4420 N.am  183  THR183     -0.1951
    156  CA        14.7700   37.6750  -17.5020 C.3   183  THR183      0.1897
    157  C         14.4060   39.1640  -17.4660 C.2   183  THR183      0.2313
    158  O         13.4770   39.6100  -18.1370 O.2   183  THR183     -0.2863
    159  CB        14.0650   36.9580  -16.3320 C.3   183  THR183      0.1794
    160  OG1       14.1710   35.5470  -16.5220 O.3   183  THR183     -0.2208
    161  CG2       12.5940   37.3470  -16.2330 C.3   183  THR183      0.0378
    162  N         24.3680   28.8470  -24.5450 N.3   197  ILE197     -0.1231
    163  CA        24.4990   27.4020  -24.4090 C.3   197  ILE197      0.1692
    164  C         23.6140   26.8300  -23.2980 C.2   197  ILE197      0.2592
    165  O         23.9550   26.8820  -22.1230 O.2   197  ILE197     -0.2718
    166  CB        25.9620   26.9910  -24.1520 C.3   197  ILE197      0.0266
    167  CG1       26.8660   27.6920  -25.1540 C.3   197  ILE197      0.0019
    168  CG2       26.1340   25.4460  -24.2400 C.3   197  ILE197      0.0020
    169  CD1       26.4730   27.4550  -26.6010 C.3   197  ILE197      0.0001
    170  N         22.4690   26.2950  -23.7060 N.am  198  GLU198     -0.1966
    171  CA        21.5600   25.5580  -22.8290 C.3   198  GLU198      0.1733
    172  C         21.0360   26.4570  -21.7240 C.2   198  GLU198      0.2616
    173  O         21.2300   26.1870  -20.5550 O.2   198  GLU198     -0.2715
    174  CB        22.2450   24.3020  -22.2660 C.3   198  GLU198      0.0429
    175  CG        22.5390   23.2670  -23.3530 C.3   198  GLU198      0.1163
    176  CD        23.0800   21.9520  -22.8280 C.2   198  GLU198      0.3649
    177  OE1       22.8890   21.6440  -21.6280 O.co2 198  GLU198     -0.2457
    178  OE2       23.7180   21.2280  -23.6210 O.co2 198  GLU198     -0.2457
    179  N         20.3550   27.5280  -22.1240 N.am  199  LEU199     -0.1977
    180  CA        19.7820   28.4830  -21.1860 C.3   199  LEU199      0.1596
    181  C         18.2680   28.5060  -21.3210 C.2   199  LEU199      0.2287
    182  O         17.5450   28.5700  -20.3250 O.2   199  LEU199     -0.2864
    183  CB        20.3430   29.8760  -21.4310 C.3   199  LEU199      0.0297
    184  CG        19.6480   31.0110  -20.6730 C.3   199  LEU199      0.0022
    185  CD1       20.0090   30.9670  -19.1890 C.3   199  LEU199      0.0001
    186  CD2       19.9790   32.3650  -21.2890 C.3   199  LEU199      0.0001
    187  N         15.2870   26.7850  -19.3930 N.3   202  HIS202     -0.1226
    188  CA        14.8320   27.3680  -18.1240 C.3   202  HIS202      0.1752
    189  C         13.8870   28.5410  -18.3220 C.2   202  HIS202      0.2595
    190  O         13.3200   29.0740  -17.3700 O.2   202  HIS202     -0.2718
    191  CB        16.0350   27.8370  -17.3210 C.3   202  HIS202      0.0759
    192  CG        16.9750   26.7370  -16.9480 C.ar  202  HIS202      0.0818
    193  ND1       16.5720   25.6240  -16.2400 N.ar  202  HIS202     -0.2268
    194  CD2       18.3040   26.5870  -17.1640 C.ar  202  HIS202      0.1154
    195  CE1       17.6110   24.8320  -16.0400 C.ar  202  HIS202      0.1986
    196  NE2       18.6730   25.3950  -16.5890 N.ar  202  HIS202     -0.2212
    197  N         13.7520   28.9630  -19.5750 N.am  203  MET203     -0.1979
    198  CA        12.9180   30.1060  -19.9110 C.3   203  MET203      0.1605
    199  C         11.5580   29.6240  -20.3480 C.2   203  MET203      0.2287
    200  O         11.3320   28.4270  -20.4260 O.2   203  MET203     -0.2864
    201  CB        13.5660   30.9480  -21.0070 C.3   203  MET203      0.0413
    202  CG        15.0090   31.2960  -20.7280 C.3   203  MET203      0.0598
    203  SD        15.2080   32.3750  -19.2930 S.3   203  MET203     -0.1393
    204  CE        16.4460   31.4800  -18.3540 C.3   203  MET203      0.0692
@<TRIPOS>BOND
     1   169   167    1
     2   102   101    1
     3   103   101    1
     4   101   100    1
     5   167   166    1
     6   162   163    1
     7   163   166    1
     8   163   164    1
     9   168   166    1
    10    99    98    2
    11    49    48    1
    12   100    97    1
    13    48    47    1
    14    60    61    1
    15   170   164   am
    16   170   171    1
    17   178   176   ar
    18   175   176    1
    19   175   174    1
    20    61    64    1
    21    61    62    1
    22   164   165    2
    23    97    98    1
    24    97    96    1
    25    66    65   ar
    26   171   174    1
    27   171   172    1
    28   176   177   ar
    29    64    65    1
    30    47    46    1
    31    65    67   ar
    32    62    63    2
    33   179   172   am
    34   179   180    1
    35    94    93    2
    36    96    93   am
    37   172   173    2
    38    56    57    2
    39    56    55    1
    40    59    58    1
    41    93    92    1
    42   183   180    1
    43   183   184    1
    44    58    55    1
    45    46    45    1
    46   181   180    1
    47   181   182    2
    48   186   184    1
    49   201   202    1
    50   201   198    1
    51    55    54    1
    52   202   203    1
    53   184   185    1
    54   200   199    2
    55   199   198    1
    56   153   151    1
    57    45    42    1
    58    95    92    1
    59    92    91    1
    60   198   197    1
    61    68    69    1
    62    54    52   am
    63   197   189   am
    64    71    70    2
    65   187   188    1
    66   203   204    1
    67   150   149    2
    68   154   152    1
    69    70    69    1
    70    70    72   am
    71    73    72    1
    72    73    76    1
    73    73    74    1
    74    42    43    1
    75    42    41    1
    76   151   152    1
    77   151   148    1
    78    76    77    1
    79    52    53    2
    80    52    51    1
    81    75    74    2
    82   189   188    1
    83   189   190    2
    84    43    44    2
    85    43    50   am
    86   149   148    1
    87   149   155   am
    88   158   157    2
    89   188   191    1
    90    74    78   am
    91   148   147    1
    92    50    51    1
    93    41    35   am
    94     1     2    1
    95   156   157    1
    96   156   155    1
    97   156   159    1
    98   191   192    1
    99   194   192   ar
   100   194   196   ar
   101    78    79    1
   102     2     5    1
   103     2     3    1
   104   192   193   ar
   105    35    36    2
   106    35    34    1
   107    33    34    1
   108   196   195   ar
   109   147   141   am
   110   160   159    1
   111   159   161    1
   112   193   195   ar
   113    79    80    1
   114    84    85    2
   115    84    83    1
   116   142   141    2
   117    34    37    1
   118   104   105    1
   119     3     4    2
   120   141   140    1
   121    32    31    1
   122    82    80   am
   123    82    83    1
   124    80    81    2
   125   138   135    1
   126   109   108    1
   127    83    86    1
   128   105   108    1
   129   105   106    1
   130    37    38    1
   131    31    29   ar
   132    31    30   ar
   133   137   136    2
   134   145   144   ar
   135    86    87    1
   136   108   110    1
   137   140   139    1
   138   140   143    1
   139    29    27   ar
   140   136   135    1
   141   136   139   am
   142    38    40    1
   143    38    39    1
   144    89    88    2
   145   135   134    1
   146    30    28   ar
   147   132   131    2
   148   106   107    2
   149   106   111   am
   150    20    18    1
   151   144   146   ar
   152   144   143    1
   153   111   112    1
   154    27    26   ar
   155   131   133   am
   156   131   130    1
   157    12    10    1
   158    88    87    1
   159    88    90   am
   160    28    26   ar
   161   117   116    2
   162    11    10    1
   163   116   115    1
   164   116   118   am
   165    18    19    1
   166    18    17    1
   167    26    25    1
   168   128   127    2
   169   115   112    1
   170   129   130    1
   171   129   126    1
   172   112   113    1
   173    10     7    1
   174   127   126    1
   175     7     6    1
   176     7     8    1
   177    17    14    1
   178   126   125    1
   179    25    22    1
   180   119   113   am
   181   119   120    1
   182   113   114    2
   183     9     8    2
   184   123   120    1
   185   123   124    1
   186    22    21    1
   187    22    23    1
   188   122   121    2
   189   120   121    1
   190    14    15    1
   191    14    13    1
   192    24    23    2
   193    16    15    2
