@<TRIPOS>MOLECULE
tmp/6gkyB01.pdb
 179 173 0 0 0
SMALL
GASTEIGER

@<TRIPOS>ATOM
      1  N        -22.4030   26.0180   69.4380 N.3    74  LEU74      -0.1231
      2  CA       -23.4460   26.1170   68.4240 C.3    74  LEU74       0.1693
      3  C        -24.3700   24.8980   68.4850 C.2    74  LEU74       0.2592
      4  O        -24.5820   24.3300   69.5500 O.2    74  LEU74      -0.2718
      5  CB       -22.8220   26.2530   67.0280 C.3    74  LEU74       0.0284
      6  CG       -23.6990   26.7580   65.8780 C.3    74  LEU74       0.0019
      7  CD1      -24.3090   28.1020   66.2270 C.3    74  LEU74       0.0001
      8  CD2      -22.9040   26.8500   64.5780 C.3    74  LEU74       0.0001
      9  N        -24.9390   24.5440   67.3360 N.am   75  TYR75      -0.1976
     10  CA       -25.7490   23.3330   67.0960 C.3    75  TYR75       0.1639
     11  C        -26.3750   22.5370   68.2660 C.2    75  TYR75       0.2290
     12  O        -27.2360   21.6910   68.0280 O.2    75  TYR75      -0.2864
     13  CB       -24.9110   22.3550   66.2710 C.3    75  TYR75       0.0560
     14  CG       -24.3690   22.9400   64.9920 C.ar   75  TYR75      -0.0198
     15  CD1      -25.1860   23.6840   64.1580 C.ar   75  TYR75      -0.0009
     16  CD2      -23.0410   22.7560   64.6220 C.ar   75  TYR75      -0.0009
     17  CE1      -24.7050   24.2230   62.9860 C.ar   75  TYR75       0.0417
     18  CE2      -22.5470   23.2950   63.4460 C.ar   75  TYR75       0.0417
     19  CZ       -23.3890   24.0280   62.6340 C.ar   75  TYR75       0.1957
     20  OH       -22.9310   24.5770   61.4600 O.3    75  TYR75      -0.2866
     21  N        -31.8310   25.0120   59.1780 N.3    92  GLY92      -0.1225
     22  CA       -30.7430   25.8640   59.6220 C.3    92  GLY92       0.1811
     23  C        -29.7630   26.1910   58.5120 C.2    92  GLY92       0.2280
     24  O        -28.5950   26.4860   58.7680 O.2    92  GLY92      -0.2866
     25  N        -24.3340   21.8090   53.6940 N.3   198  GLU198     -0.1245
     26  CA       -23.5390   22.7610   54.4630 C.3   198  GLU198      0.1567
     27  C        -22.8570   22.1010   55.6580 C.2   198  GLU198      0.2260
     28  O        -23.0270   22.5280   56.8010 O.2   198  GLU198     -0.2867
     29  CB       -24.4150   23.9260   54.9320 C.3   198  GLU198      0.0388
     30  CG       -25.0540   24.7080   53.7950 C.3   198  GLU198      0.1160
     31  CD       -25.8150   25.9290   54.2740 C.2   198  GLU198      0.3649
     32  OE1      -25.7750   26.2170   55.4890 O.co2 198  GLU198     -0.2457
     33  OE2      -26.4530   26.6010   53.4350 O.co2 198  GLU198     -0.2457
     34  N        -18.1100   22.9200   55.3280 N.3   201  GLU201     -0.1231
     35  CA       -17.5510   24.1770   55.8140 C.3   201  GLU201      0.1699
     36  C        -16.8630   23.9770   57.1620 C.2   201  GLU201      0.2592
     37  O        -15.9590   24.7300   57.5290 O.2   201  GLU201     -0.2718
     38  CB       -18.6360   25.2520   55.9340 C.3   201  GLU201      0.0402
     39  CG       -19.2970   25.6370   54.6200 C.3   201  GLU201      0.1161
     40  CD       -20.3690   24.6540   54.1970 C.2   201  GLU201      0.3649
     41  OE1      -20.3090   23.4860   54.6360 O.co2 201  GLU201     -0.2457
     42  OE2      -21.2780   25.0530   53.4380 O.co2 201  GLU201     -0.2457
     43  N        -17.2960   22.9520   57.8900 N.am  202  HIS202     -0.1976
     44  CA       -16.7650   22.6580   59.2180 C.3   202  HIS202      0.1656
     45  C        -15.5990   21.6760   59.1670 C.2   202  HIS202      0.2291
     46  O        -14.9030   21.4690   60.1650 O.2   202  HIS202     -0.2864
     47  CB       -17.8680   22.1010   60.1210 C.3   202  HIS202      0.0771
     48  CG       -18.9910   23.0580   60.3650 C.ar  202  HIS202      0.0820
     49  ND1      -18.7930   24.3210   60.8830 N.ar  202  HIS202     -0.2267
     50  CD2      -20.3260   22.9390   60.1660 C.ar  202  HIS202      0.1154
     51  CE1      -19.9560   24.9380   60.9890 C.ar  202  HIS202      0.1986
     52  NE2      -20.9010   24.1220   60.5610 N.ar  202  HIS202     -0.2212
     53  N        -22.1010   26.9480   51.0710 N.3   228  ILE228     -0.1245
     54  CA       -21.9800   28.3730   50.8060 C.3   228  ILE228      0.1561
     55  C        -20.5470   28.6640   50.3760 C.2   228  ILE228      0.2260
     56  O        -19.6340   27.8950   50.6780 O.2   228  ILE228     -0.2867
     57  CB       -22.3630   29.2240   52.0330 C.3   228  ILE228      0.0252
     58  CG1      -21.5290   28.8240   53.2480 C.3   228  ILE228      0.0019
     59  CG2      -23.8430   29.0820   52.3410 C.3   228  ILE228      0.0019
     60  CD1      -20.3620   29.7380   53.4920 C.3   228  ILE228      0.0001
     61  N        -11.5210   30.8010   57.7520 N.3   237  TYR237     -0.1241
     62  CA       -12.1010   31.9730   58.3950 C.3   237  TYR237      0.1605
     63  C        -11.2920   32.3710   59.6190 C.2   237  TYR237      0.2264
     64  O        -11.7100   32.1720   60.7600 O.2   237  TYR237     -0.2867
     65  CB       -13.5650   31.7350   58.7550 C.3   237  TYR237      0.0534
     66  CG       -14.4860   32.5760   57.9070 C.ar  237  TYR237     -0.0201
     67  CD1      -14.2430   32.7330   56.5500 C.ar  237  TYR237     -0.0009
     68  CD2      -15.5850   33.2250   58.4570 C.ar  237  TYR237     -0.0009
     69  CE1      -15.0640   33.5070   55.7620 C.ar  237  TYR237      0.0417
     70  CE2      -16.4220   34.0010   57.6720 C.ar  237  TYR237      0.0417
     71  CZ       -16.1550   34.1340   56.3240 C.ar  237  TYR237      0.1957
     72  OH       -16.9670   34.8980   55.5190 O.3   237  TYR237     -0.2866
     73  N        -19.0960   35.7340   64.7900 N.3   250  VAL250     -0.1231
     74  CA       -20.1630   34.7530   64.9460 C.3   250  VAL250      0.1692
     75  C        -19.6180   33.3530   65.2110 C.2   250  VAL250      0.2592
     76  O        -19.9510   32.7290   66.2200 O.2   250  VAL250     -0.2718
     77  CB       -21.0680   34.7040   63.7010 C.3   250  VAL250      0.0266
     78  CG1      -22.0380   33.5390   63.8000 C.3   250  VAL250      0.0020
     79  CG2      -21.8190   36.0170   63.5380 C.3   250  VAL250      0.0020
     80  N        -18.7850   32.8620   64.2990 N.am  251  PHE251     -0.1976
     81  CA       -18.2340   31.5170   64.4140 C.3   251  PHE251      0.1639
     82  C        -16.9210   31.5070   65.1850 C.2   251  PHE251      0.2290
     83  O        -16.0500   32.3450   64.9480 O.2   251  PHE251     -0.2864
     84  CB       -18.0240   30.9050   63.0290 C.3   251  PHE251      0.0560
     85  CG       -19.2790   30.8000   62.2170 C.ar  251  PHE251     -0.0200
     86  CD1      -19.6310   31.8040   61.3320 C.ar  251  PHE251     -0.0042
     87  CD2      -20.1100   29.6990   62.3410 C.ar  251  PHE251     -0.0042
     88  CE1      -20.7850   31.7120   60.5840 C.ar  251  PHE251     -0.0003
     89  CE2      -21.2660   29.6020   61.5950 C.ar  251  PHE251     -0.0003
     90  CZ       -21.6060   30.6100   60.7130 C.ar  251  PHE251     -0.0000
     91  N        -14.5280   27.2680   60.7520 N.3   256  MET256     -0.1245
     92  CA       -15.1400   27.5570   59.4600 C.3   256  MET256      0.1570
     93  C        -14.1380   27.6440   58.3140 C.2   256  MET256      0.2261
     94  O        -13.0130   28.1130   58.4850 O.2   256  MET256     -0.2867
     95  CB       -15.9350   28.8620   59.5400 C.3   256  MET256      0.0387
     96  CG       -17.3040   28.7170   60.1790 C.3   256  MET256      0.0595
     97  SD       -18.4710   27.8790   59.0920 S.3   256  MET256     -0.1393
     98  CE       -18.5080   29.0140   57.7060 C.3   256  MET256      0.0692
     99  N        -14.4180   28.8470   54.0950 N.3   258  ILE258     -0.1245
    100  CA       -15.2350   29.3060   52.9790 C.3   258  ILE258      0.1561
    101  C        -14.5870   28.9490   51.6510 C.2   258  ILE258      0.2260
    102  O        -13.6390   29.6060   51.2170 O.2   258  ILE258     -0.2867
    103  CB       -15.4800   30.8160   53.0410 C.3   258  ILE258      0.0252
    104  CG1      -16.3130   31.1480   54.2780 C.3   258  ILE258      0.0019
    105  CG2      -16.1670   31.3050   51.7700 C.3   258  ILE258      0.0019
    106  CD1      -17.4720   30.2120   54.5010 C.3   258  ILE258      0.0001
    107  N        -29.7570   33.3000   50.6510 N.3   284  PHE284     -0.1241
    108  CA       -29.3320   33.1270   52.0370 C.3   284  PHE284      0.1605
    109  C        -29.4700   34.4510   52.7820 C.2   284  PHE284      0.2264
    110  O        -29.7760   34.4800   53.9800 O.2   284  PHE284     -0.2867
    111  CB       -27.8920   32.6050   52.1080 C.3   284  PHE284      0.0534
    112  CG       -27.5910   31.8140   53.3490 C.ar  284  PHE284     -0.0203
    113  CD1      -28.5890   31.5330   54.2670 C.ar  284  PHE284     -0.0042
    114  CD2      -26.3090   31.3540   53.6000 C.ar  284  PHE284     -0.0042
    115  CE1      -28.3130   30.8020   55.4110 C.ar  284  PHE284     -0.0003
    116  CE2      -26.0280   30.6260   54.7410 C.ar  284  PHE284     -0.0003
    117  CZ       -27.0320   30.3500   55.6460 C.ar  284  PHE284     -0.0000
    118  N        -31.5880   34.8450   56.3140 N.3   288  ASN288     -0.1240
    119  CA       -31.1520   35.4320   57.5760 C.3   288  ASN288      0.1653
    120  C        -32.0200   36.6210   57.9680 C.2   288  ASN288      0.2266
    121  O        -32.2250   36.8880   59.1530 O.2   288  ASN288     -0.2867
    122  CB       -29.6860   35.8620   57.4940 C.3   288  ASN288      0.1155
    123  CG       -28.7280   34.6900   57.5630 C.2   288  ASN288      0.2627
    124  OD1      -28.3360   34.2580   58.6470 O.2   288  ASN288     -0.2716
    125  ND2      -28.3420   34.1710   56.4030 N.am  288  ASN288     -0.0877
    126  N        -35.0910   35.3270   59.4400 N.3   291  TRP291     -0.1241
    127  CA       -34.7140   34.8170   60.7530 C.3   291  TRP291      0.1605
    128  C        -34.6050   35.9600   61.7540 C.2   291  TRP291      0.2264
    129  O        -35.0170   35.8340   62.9080 O.2   291  TRP291     -0.2867
    130  CB       -33.3900   34.0530   60.6780 C.3   291  TRP291      0.0550
    131  CG       -33.4980   32.7060   60.0320 C.ar  291  TRP291      0.0003
    132  CD1      -34.6410   32.0070   59.7790 C.ar  291  TRP291      0.0946
    133  CD2      -32.4170   31.8950   59.5530 C.ar  291  TRP291      0.0152
    134  NE1      -34.3400   30.8090   59.1750 N.ar  291  TRP291     -0.2442
    135  CE2      -32.9830   30.7170   59.0250 C.ar  291  TRP291      0.0810
    136  CE3      -31.0290   32.0510   59.5200 C.ar  291  TRP291      0.0012
    137  CZ2      -32.2060   29.7020   58.4710 C.ar  291  TRP291      0.0191
    138  CZ3      -30.2610   31.0420   58.9700 C.ar  291  TRP291      0.0001
    139  CH2      -30.8500   29.8830   58.4530 C.ar  291  TRP291      0.0015
    140  N        -25.5940   36.9180   64.1890 N.3   326  PHE326     -0.1241
    141  CA       -25.6360   35.7540   63.3140 C.3   326  PHE326      0.1605
    142  C        -26.4400   36.0740   62.0590 C.2   326  PHE326      0.2264
    143  O        -25.9740   35.8650   60.9380 O.2   326  PHE326     -0.2867
    144  CB       -26.2370   34.5520   64.0480 C.3   326  PHE326      0.0534
    145  CG       -26.1830   33.2700   63.2650 C.ar  326  PHE326     -0.0203
    146  CD1      -25.0740   32.4430   63.3390 C.ar  326  PHE326     -0.0042
    147  CD2      -27.2460   32.8860   62.4640 C.ar  326  PHE326     -0.0042
    148  CE1      -25.0230   31.2610   62.6230 C.ar  326  PHE326     -0.0003
    149  CE2      -27.2000   31.7040   61.7460 C.ar  326  PHE326     -0.0003
    150  CZ       -26.0870   30.8920   61.8260 C.ar  326  PHE326     -0.0000
    151  N        -24.7940   39.0240   60.0850 N.3   329  SER329     -0.1202
    152  CA       -23.6030   38.5800   59.3730 C.3   329  SER329      0.2020
    153  C        -23.9810   37.8950   58.0660 C.2   329  SER329      0.2619
    154  O        -23.3390   38.1050   57.0370 O.2   329  SER329     -0.2717
    155  CB       -22.7700   37.6350   60.2410 C.3   329  SER329      0.2103
    156  OG       -22.2040   38.3160   61.3460 O.3   329  SER329     -0.2182
    157  N        -25.0270   37.0770   58.1140 N.am  330  GLY330     -0.1956
    158  CA       -25.4980   36.3730   56.9360 C.3   330  GLY330      0.1869
    159  C        -26.1760   37.2910   55.9360 C.2   330  GLY330      0.2309
    160  O        -26.0590   37.0980   54.7260 O.2   330  GLY330     -0.2863
    161  N        -23.3360   39.8020   54.3040 N.3   333  MET333     -0.1230
    162  CA       -22.2900   39.0420   53.6280 C.3   333  MET333      0.1702
    163  C        -22.7700   38.4740   52.2990 C.2   333  MET333      0.2592
    164  O        -22.1810   38.7430   51.2530 O.2   333  MET333     -0.2718
    165  CB       -21.7790   37.9070   54.5160 C.3   333  MET333      0.0401
    166  CG       -21.0180   36.8320   53.7490 C.3   333  MET333      0.0596
    167  SD       -20.0710   35.7650   54.8420 S.3   333  MET333     -0.1393
    168  CE       -18.9740   36.9870   55.5510 C.3   333  MET333      0.0692
    169  N        -23.8400   37.6880   52.3410 N.am  334  PHE334     -0.1976
    170  CA       -24.3410   37.0200   51.1440 C.3   334  PHE334      0.1639
    171  C        -25.1460   37.9580   50.2500 C.2   334  PHE334      0.2290
    172  O        -25.3340   37.6840   49.0640 O.2   334  PHE334     -0.2864
    173  CB       -25.1890   35.8090   51.5340 C.3   334  PHE334      0.0560
    174  CG       -24.4020   34.7060   52.1830 C.ar  334  PHE334     -0.0200
    175  CD1      -24.2420   34.6660   53.5570 C.ar  334  PHE334     -0.0042
    176  CD2      -23.8170   33.7140   51.4150 C.ar  334  PHE334     -0.0042
    177  CE1      -23.5160   33.6540   54.1550 C.ar  334  PHE334     -0.0003
    178  CE2      -23.0890   32.7000   52.0060 C.ar  334  PHE334     -0.0003
    179  CZ       -22.9390   32.6690   53.3790 C.ar  334  PHE334     -0.0000
@<TRIPOS>BOND
     1   172   171    2
     2   171   170    1
     3    55    56    2
     4    55    54    1
     5   107   108    1
     6    54    53    1
     7    54    57    1
     8   170   173    1
     9   170   169    1
    10   102   101    2
    11   164   163    2
    12   176   178   ar
    13   176   174   ar
    14   173   174    1
    15   101   100    1
    16   105   103    1
    17   178   179   ar
    18    57    59    1
    19    57    58    1
    20   108   111    1
    21   108   109    1
    22   111   112    1
    23   174   175   ar
    24   163   169   am
    25   163   162    1
    26   109   110    2
    27   100   103    1
    28   100    99    1
    29   103   104    1
    30    58    60    1
    31   112   114   ar
    32   112   113   ar
    33   179   177   ar
    34    33    31   ar
    35    42    40   ar
    36   175   177   ar
    37   114   116   ar
    38   162   161    1
    39   162   165    1
    40    25    26    1
    41   166   165    1
    42   166   167    1
    43    30    31    1
    44    30    29    1
    45    40    39    1
    46    40    41   ar
    47   113   115   ar
    48    31    32   ar
    49   104   106    1
    50    26    29    1
    51    26    27    1
    52    39    38    1
    53   160   159    2
    54   116   117   ar
    55   167   168    1
    56    34    35    1
    57   115   117   ar
    58    72    71    1
    59    27    28    2
    60    69    71   ar
    61    69    67   ar
    62    35    38    1
    63    35    36    1
    64   159   158    1
    65   118   119    1
    66    71    70   ar
    67   125   123   am
    68    67    66   ar
    69   158   157    1
    70   154   153    2
    71    36    37    2
    72    36    43   am
    73   122   123    1
    74   122   119    1
    75   123   124    2
    76   119   120    1
    77    70    68   ar
    78    98    97    1
    79    61    62    1
    80    43    44    1
    81    66    68   ar
    82    66    65    1
    83   120   121    2
    84   153   157   am
    85   153   152    1
    86    93    94    2
    87    93    92    1
    88    62    65    1
    89    62    63    1
    90   139   137   ar
    91   139   138   ar
    92   137   135   ar
    93    23    24    2
    94    23    22    1
    95   138   136   ar
    96   135   134   ar
    97   135   133   ar
    98    97    96    1
    99    45    44    1
   100    45    46    2
   101   134   132   ar
   102    21    22    1
   103    44    47    1
   104   152   151    1
   105   152   155    1
   106   126   127    1
   107    92    95    1
   108    92    91    1
   109   136   133   ar
   110    95    96    1
   111   133   131   ar
   112    63    64    2
   113   132   131   ar
   114   131   130    1
   115    47    48    1
   116    50    48   ar
   117    50    52   ar
   118   155   156    1
   119    48    49   ar
   120    52    51   ar
   121    88    90   ar
   122    88    86   ar
   123   130   127    1
   124    90    89   ar
   125   127   128    1
   126    49    51   ar
   127   143   142    2
   128    86    85   ar
   129    20    19    1
   130    89    87   ar
   131   149   150   ar
   132   149   147   ar
   133   128   129    2
   134   150   148   ar
   135   142   141    1
   136    85    87   ar
   137    85    84    1
   138   147   145   ar
   139   148   146   ar
   140    19    17   ar
   141    19    18   ar
   142    17    15   ar
   143    84    81    1
   144   145   146   ar
   145   145   144    1
   146   141   144    1
   147   141   140    1
   148    18    16   ar
   149    79    77    1
   150    77    78    1
   151    77    74    1
   152    15    14   ar
   153    80    81    1
   154    80    75   am
   155    81    82    1
   156     8     6    1
   157    16    14   ar
   158    73    74    1
   159    74    75    1
   160    83    82    2
   161    14    13    1
   162    75    76    2
   163     6     7    1
   164     6     5    1
   165    13    10    1
   166     5     2    1
   167    10     9    1
   168    10    11    1
   169     9     3   am
   170    12    11    2
   171     2     3    1
   172     2     1    1
   173     3     4    2
