@<TRIPOS>MOLECULE
tmp/6gl0C00.pdb
 114 111 0 0 0
SMALL
GASTEIGER

@<TRIPOS>ATOM
      1  N        -40.8690  117.9680   37.0810 N.3    23  ASN23      -0.1240
      2  CA       -39.7770  118.4190   37.9400 C.3    23  ASN23       0.1653
      3  C        -40.1410  118.4780   39.4210 C.2    23  ASN23       0.2266
      4  O        -39.7870  119.4060   40.1080 O.2    23  ASN23      -0.2867
      5  CB       -39.1980  119.7590   37.4320 C.3    23  ASN23       0.1155
      6  CG       -38.3500  119.5940   36.1650 C.2    23  ASN23       0.2627
      7  OD1      -38.2620  118.4960   35.5890 O.2    23  ASN23      -0.2716
      8  ND2      -37.6630  120.6680   35.7770 N.am   23  ASN23      -0.0877
      9  N        -39.8440  107.1760   35.9660 N.3   101  HIS101     -0.1226
     10  CA       -39.4510  108.3420   35.1490 C.3   101  HIS101      0.1752
     11  C        -37.9540  108.3430   34.8240 C.2   101  HIS101      0.2596
     12  O        -37.5570  107.5730   33.9600 O.2   101  HIS101     -0.2718
     13  CB       -39.9540  109.6690   35.7550 C.3   101  HIS101      0.0759
     14  CG       -40.1930  110.7330   34.7250 C.ar  101  HIS101      0.0818
     15  ND1      -41.3530  110.8140   33.9990 N.ar  101  HIS101     -0.2268
     16  CD2      -39.4230  111.7650   34.3110 C.ar  101  HIS101      0.1154
     17  CE1      -41.2810  111.8390   33.1610 C.ar  101  HIS101      0.1986
     18  NE2      -40.1220  112.4370   33.3310 N.ar  101  HIS101     -0.2212
     19  N        -37.1160  109.1560   35.4790 N.am  102  HIS102     -0.1975
     20  CA       -35.7150  109.3240   35.0450 C.3   102  HIS102      0.1656
     21  C        -34.7930  108.2560   35.6550 C.2   102  HIS102      0.2291
     22  O        -33.8050  108.5790   36.3160 O.2   102  HIS102     -0.2864
     23  CB       -35.1460  110.6960   35.4150 C.3   102  HIS102      0.0771
     24  CG       -35.7590  111.8500   34.7020 C.ar  102  HIS102      0.0820
     25  ND1      -35.9010  111.8950   33.3290 N.ar  102  HIS102     -0.2267
     26  CD2      -36.1930  113.0490   35.1730 C.ar  102  HIS102      0.1154
     27  CE1      -36.4270  113.0670   32.9960 C.ar  102  HIS102      0.1986
     28  NE2      -36.6070  113.7900   34.0990 N.ar  102  HIS102     -0.2212
     29  N        -41.3510  105.6090   31.4770 N.3   145  ASN145     -0.1225
     30  CA       -41.5870  106.9160   30.8960 C.3   145  ASN145      0.1785
     31  C        -41.1860  106.9940   29.4400 C.2   145  ASN145      0.2597
     32  O        -42.0300  107.1240   28.5530 O.2   145  ASN145     -0.2718
     33  CB       -40.8740  108.0250   31.7320 C.3   145  ASN145      0.1169
     34  CG       -40.9540  109.3940   31.0770 C.2   145  ASN145      0.2627
     35  OD1      -42.0300  109.8170   30.6580 O.2   145  ASN145     -0.2716
     36  ND2      -39.8320  110.0950   30.9970 N.am  145  ASN145     -0.0877
     37  N        -39.8800  107.0300   29.2300 N.am  146  GLU146     -0.1979
     38  CA       -39.2540  107.1680   27.9010 C.3   146  GLU146      0.1602
     39  C        -38.0450  106.2170   27.8840 C.2   146  GLU146      0.2287
     40  O        -36.9010  106.6560   27.7440 O.2   146  GLU146     -0.2864
     41  CB       -38.8450  108.6220   27.6470 C.3   146  GLU146      0.0415
     42  CG       -40.0520  109.5280   27.5300 C.3   146  GLU146      0.1163
     43  CD       -39.7100  110.9550   27.0670 C.2   146  GLU146      0.3649
     44  OE1      -38.5370  111.3710   27.2100 O.co2 146  GLU146     -0.2457
     45  OE2      -40.6380  111.6670   26.6320 O.co2 146  GLU146     -0.2457
     46  N        -45.4050  110.2290   23.5390 N.3   221  HIS221     -0.1241
     47  CA       -45.1600  111.6400   23.8030 C.3   221  HIS221      0.1621
     48  C        -44.7880  112.2330   22.4380 C.2   221  HIS221      0.2264
     49  O        -44.0010  111.6700   21.7030 O.2   221  HIS221     -0.2867
     50  CB       -44.0100  111.8410   24.7920 C.3   221  HIS221      0.0745
     51  CG       -44.2160  111.1980   26.1310 C.ar  221  HIS221      0.0817
     52  ND1      -43.1790  110.9970   27.0120 N.ar  221  HIS221     -0.2268
     53  CD2      -45.3190  110.6890   26.7340 C.ar  221  HIS221      0.1154
     54  CE1      -43.6340  110.3850   28.0970 C.ar  221  HIS221      0.1986
     55  NE2      -44.9280  110.1680   27.9470 N.ar  221  HIS221     -0.2212
     56  N        -43.8460  116.0010   21.1570 N.3   223  TYR223     -0.1241
     57  CA       -43.6490  117.4470   21.2690 C.3   223  TYR223      0.1605
     58  C        -43.5890  118.0440   19.8460 C.2   223  TYR223      0.2264
     59  O        -42.5470  118.5410   19.4160 O.2   223  TYR223     -0.2867
     60  CB       -42.3640  117.7080   22.0700 C.3   223  TYR223      0.0534
     61  CG       -42.4620  117.3600   23.5400 C.ar  223  TYR223     -0.0201
     62  CD1      -42.1280  116.0980   23.9890 C.ar  223  TYR223     -0.0009
     63  CD2      -42.8490  118.3250   24.4970 C.ar  223  TYR223     -0.0009
     64  CE1      -42.1880  115.7870   25.3430 C.ar  223  TYR223      0.0417
     65  CE2      -42.9260  118.0230   25.8340 C.ar  223  TYR223      0.0417
     66  CZ       -42.6020  116.7500   26.2670 C.ar  223  TYR223      0.1957
     67  OH       -42.6710  116.4590   27.6110 O.3   223  TYR223     -0.2866
     68  N        -39.3590  121.9470   21.6730 N.3   230  LEU230     -0.1245
     69  CA       -38.2410  121.5610   22.4820 C.3   230  LEU230      0.1561
     70  C        -36.9790  122.3710   22.2360 C.2   230  LEU230      0.2260
     71  O        -36.3590  122.7790   23.1990 O.2   230  LEU230     -0.2867
     72  CB       -37.9260  120.0890   22.2530 C.3   230  LEU230      0.0270
     73  CG       -38.9320  119.0770   22.8310 C.3   230  LEU230      0.0019
     74  CD1      -38.6180  117.6660   22.2910 C.3   230  LEU230      0.0001
     75  CD2      -38.8950  119.1070   24.3730 C.3   230  LEU230      0.0001
     76  N        -47.2580  113.2700   27.4720 N.3   269  SER269     -0.1217
     77  CA       -46.4530  114.5010   27.5010 C.3   269  SER269      0.1889
     78  C        -46.4040  115.1160   26.1250 C.2   269  SER269      0.2288
     79  O        -46.2630  114.4070   25.1230 O.2   269  SER269     -0.2866
     80  CB       -45.0330  114.2170   27.9150 C.3   269  SER269      0.2089
     81  OG       -44.9300  114.1770   29.2900 O.3   269  SER269     -0.2183
     82  N        -47.0150  118.9430   29.5380 N.3   302  TRP302     -0.1241
     83  CA       -45.8010  118.8710   30.3420 C.3   302  TRP302      0.1605
     84  C        -45.5300  120.2370   31.0200 C.2   302  TRP302      0.2264
     85  O        -45.3650  121.2470   30.3240 O.2   302  TRP302     -0.2867
     86  CB       -44.6030  118.4850   29.5030 C.3   302  TRP302      0.0550
     87  CG       -43.3640  118.4450   30.3210 C.ar  302  TRP302      0.0003
     88  CD1      -42.3250  119.3070   30.2690 C.ar  302  TRP302      0.0946
     89  CD2      -43.0820  117.5430   31.3600 C.ar  302  TRP302      0.0152
     90  NE1      -41.3940  118.9770   31.1930 N.ar  302  TRP302     -0.2442
     91  CE2      -41.8500  117.9050   31.9040 C.ar  302  TRP302      0.0810
     92  CE3      -43.7560  116.4580   31.8990 C.ar  302  TRP302      0.0012
     93  CZ2      -41.2530  117.1990   32.9790 C.ar  302  TRP302      0.0191
     94  CZ3      -43.1750  115.7750   32.9710 C.ar  302  TRP302      0.0001
     95  CH2      -41.9440  116.1530   33.4950 C.ar  302  TRP302      0.0015
     96  N        -43.0130  121.9230   33.9130 N.3   304  ASN304     -0.1240
     97  CA       -41.8570  121.6970   34.7650 C.3   304  ASN304      0.1653
     98  C        -41.7140  122.7460   35.8640 C.2   304  ASN304      0.2266
     99  O        -40.6960  122.7930   36.5460 O.2   304  ASN304     -0.2867
    100  CB       -40.5780  121.5650   33.9270 C.3   304  ASN304      0.1155
    101  CG       -40.0740  122.8760   33.3700 C.2   304  ASN304      0.2627
    102  OD1      -40.8150  123.8730   33.2970 O.2   304  ASN304     -0.2716
    103  ND2      -38.8230  122.8630   32.9320 N.am  304  ASN304     -0.0877
    104  N        -41.5490  125.3030   30.6170 N.3   310  PHE310     -0.1241
    105  CA       -42.8640  124.6520   30.4280 C.3   310  PHE310      0.1605
    106  C        -43.9220  125.0380   31.4740 C.2   310  PHE310      0.2264
    107  O        -45.0820  124.6150   31.4010 O.2   310  PHE310     -0.2867
    108  CB       -42.6630  123.1330   30.3920 C.3   310  PHE310      0.0534
    109  CG       -42.0430  122.6290   29.1180 C.ar  310  PHE310     -0.0203
    110  CD1      -42.8260  122.3920   27.9900 C.ar  310  PHE310     -0.0042
    111  CD2      -40.6730  122.3380   29.0670 C.ar  310  PHE310     -0.0042
    112  CE1      -42.2570  121.8780   26.8230 C.ar  310  PHE310     -0.0003
    113  CE2      -40.0960  121.8320   27.9120 C.ar  310  PHE310     -0.0003
    114  CZ       -40.8860  121.6190   26.7740 C.ar  310  PHE310     -0.0000
@<TRIPOS>BOND
     1    59    58    2
     2    58    57    1
     3    56    57    1
     4    57    60    1
     5    68    69    1
     6    49    48    2
     7    60    61    1
     8    70    69    1
     9    70    71    2
    10    72    69    1
    11    72    73    1
    12    74    73    1
    13    48    47    1
    14    73    75    1
    15    46    47    1
    16    61    62   ar
    17    61    63   ar
    18    47    50    1
    19    62    64   ar
    20    63    65   ar
    21    50    51    1
    22    79    78    2
    23    64    66   ar
    24    65    66   ar
    25    78    77    1
    26    51    53   ar
    27    51    52   ar
    28    66    67    1
    29    45    43   ar
    30    53    55   ar
    31   114   112   ar
    32   114   113   ar
    33   112   110   ar
    34    52    54   ar
    35    43    44   ar
    36    43    42    1
    37    76    77    1
    38    77    80    1
    39    42    41    1
    40    41    38    1
    41    40    39    2
    42    39    38    1
    43    38    37    1
    44   113   111   ar
    45    80    81    1
    46    55    54   ar
    47   110   109   ar
    48    32    31    2
    49   111   109   ar
    50   109   108    1
    51    37    31   am
    52    31    30    1
    53    86    87    1
    54    86    83    1
    55    82    83    1
    56    88    87   ar
    57    88    90   ar
    58    87    89   ar
    59    85    84    2
    60    83    84    1
    61   108   105    1
    62   105   104    1
    63   105   106    1
    64    35    34    2
    65    30    29    1
    66    30    33    1
    67    36    34   am
    68    34    33    1
    69    90    91   ar
    70    89    92   ar
    71    89    91   ar
    72   107   106    2
    73    92    94   ar
    74    91    93   ar
    75   103   101   am
    76    94    95   ar
    77    93    95   ar
    78    27    25   ar
    79    27    28   ar
    80    17    18   ar
    81    17    15   ar
    82   102   101    2
    83    25    24   ar
    84    18    16   ar
    85   101   100    1
    86    96    97    1
    87   100    97    1
    88    12    11    2
    89    15    14   ar
    90    28    26   ar
    91    16    14   ar
    92    24    26   ar
    93    24    23    1
    94    14    13    1
    95    97    98    1
    96    11    10    1
    97    11    19   am
    98    20    23    1
    99    20    19    1
   100    20    21    1
   101    10    13    1
   102    10     9    1
   103     7     6    2
   104    21    22    2
   105     8     6   am
   106    98    99    2
   107     6     5    1
   108     1     2    1
   109     5     2    1
   110     2     3    1
   111     3     4    2
