@<TRIPOS>MOLECULE
tmp/6gl3A00.pdb
 181 174 0 0 0
SMALL
GASTEIGER

@<TRIPOS>ATOM
      1  N        -42.9350  -16.3150    1.0770 N.3    67  LEU67      -0.1231
      2  CA       -42.7410  -15.1700    1.9750 C.3    67  LEU67       0.1693
      3  C        -44.0180  -14.3530    2.0900 C.2    67  LEU67       0.2592
      4  O        -44.9110  -14.4660    1.2600 O.2    67  LEU67      -0.2718
      5  CB       -41.5750  -14.3040    1.4980 C.3    67  LEU67       0.0284
      6  CG       -40.2700  -15.0800    1.2340 C.3    67  LEU67       0.0019
      7  CD1      -39.1840  -14.1700    0.6800 C.3    67  LEU67       0.0001
      8  CD2      -39.7310  -15.8310    2.4370 C.3    67  LEU67       0.0001
      9  N        -44.0860  -13.5350    3.1320 N.am   68  ASN68      -0.1960
     10  CA       -45.2060  -12.6460    3.3680 C.3    68  ASN68       0.1819
     11  C        -45.1480  -11.4670    2.4090 C.2    68  ASN68       0.2622
     12  O        -44.0520  -11.0160    2.0270 O.2    68  ASN68      -0.2715
     13  CB       -45.1750  -12.0940    4.7970 C.3    68  ASN68       0.1195
     14  CG       -45.2960  -13.1790    5.8570 C.2    68  ASN68       0.2630
     15  OD1      -46.0730  -14.1280    5.6990 O.2    68  ASN68      -0.2716
     16  ND2      -44.5340  -13.0480    6.9490 N.am   68  ASN68      -0.0877
     17  N        -46.3360  -10.9840    2.0400 N.am   69  SER69      -0.1936
     18  CA       -46.5350   -9.7120    1.3130 C.3    69  SER69       0.2055
     19  C        -48.0150   -9.3810    1.2530 C.2    69  SER69       0.2642
     20  O        -48.8570  -10.2380    1.5440 O.2    69  SER69      -0.2714
     21  CB       -45.9950   -9.7760   -0.1270 C.3    69  SER69       0.2130
     22  OG       -46.6400  -10.7820   -0.8850 O.3    69  SER69      -0.2179
     23  N        -48.3220   -8.1510    0.8470 N.am   70  LYS70      -0.1977
     24  CA       -49.7120   -7.6850    0.7500 C.3    70  LYS70       0.1596
     25  C        -50.4060   -8.3060   -0.4670 C.2    70  LYS70       0.2287
     26  O        -51.4400   -8.9730   -0.3210 O.2    70  LYS70      -0.2864
     27  CB       -49.7700   -6.1520    0.6990 C.3    70  LYS70       0.0298
     28  CG       -49.1180   -5.3760   -0.4830 C.3    70  LYS70       0.0038
     29  CD       -48.7950   -3.9120   -0.2070 C.3    70  LYS70       0.0206
     30  CE       -48.0190   -3.2910   -1.3610 C.3    70  LYS70       0.1093
     31  NZ       -47.6890   -1.8580   -1.1250 N.3    70  LYS70      -0.1314
     32  N        -44.2020  -13.6340   -3.3900 N.3    74  PRO74      -0.2116
     33  CA       -42.7440  -13.8290   -3.3570 C.3    74  PRO74       0.1372
     34  C        -42.3840  -15.1230   -2.6470 C.2    74  PRO74       0.2244
     35  O        -42.9730  -15.4180   -1.6190 O.2    74  PRO74      -0.2868
     36  CB       -42.2440  -12.6190   -2.5750 C.3    74  PRO74       0.0268
     37  CG       -43.3670  -12.2620   -1.6890 C.3    74  PRO74       0.0207
     38  CD       -44.6230  -12.5840   -2.4390 C.3    74  PRO74       0.0892
     39  N        -34.6310  -15.3420   -3.7910 N.3   127  ILE127     -0.1245
     40  CA       -36.0330  -14.9270   -3.6480 C.3   127  ILE127      0.1561
     41  C        -36.5470  -14.5280   -5.0380 C.2   127  ILE127      0.2260
     42  O        -35.9360  -13.6950   -5.7100 O.2   127  ILE127     -0.2867
     43  CB       -36.2080  -13.7380   -2.6700 C.3   127  ILE127      0.0252
     44  CG1      -35.8090  -14.1790   -1.2580 C.3   127  ILE127      0.0019
     45  CG2      -37.6780  -13.2520   -2.6310 C.3   127  ILE127      0.0019
     46  CD1      -35.7470  -13.0650   -0.2260 C.3   127  ILE127      0.0001
     47  N        -35.6970   -1.2760   -7.0120 N.3   137  GLU137     -0.1245
     48  CA       -34.7340   -2.0050   -6.1640 C.3   137  GLU137      0.1567
     49  C        -33.2910   -1.9220   -6.7110 C.2   137  GLU137      0.2260
     50  O        -32.3550   -1.6940   -5.9460 O.2   137  GLU137     -0.2867
     51  CB       -35.1470   -3.4760   -5.9920 C.3   137  GLU137      0.0388
     52  CG       -36.2560   -3.7420   -4.9710 C.3   137  GLU137      0.1160
     53  CD       -35.7550   -4.1950   -3.5810 C.2   137  GLU137      0.3649
     54  OE1      -36.0030   -5.3460   -3.1700 O.co2 137  GLU137     -0.2457
     55  OE2      -35.1360   -3.3810   -2.8790 O.co2 137  GLU137     -0.2457
     56  N        -27.9750   -5.8120   -1.3520 N.3   163  TYR163     -0.1241
     57  CA       -28.2800   -7.1960   -1.7560 C.3   163  TYR163      0.1605
     58  C        -28.5760   -7.1970   -3.2680 C.2   163  TYR163      0.2264
     59  O        -29.2530   -6.2910   -3.7610 O.2   163  TYR163     -0.2867
     60  CB       -29.4280   -7.7810   -0.9110 C.3   163  TYR163      0.0534
     61  CG       -30.6650   -6.9200   -0.8820 C.ar  163  TYR163     -0.0201
     62  CD1      -31.6300   -7.0030   -1.9000 C.ar  163  TYR163     -0.0009
     63  CD2      -30.8720   -6.0000    0.1520 C.ar  163  TYR163     -0.0009
     64  CE1      -32.7550   -6.2080   -1.8860 C.ar  163  TYR163      0.0417
     65  CE2      -32.0080   -5.1820    0.1880 C.ar  163  TYR163      0.0417
     66  CZ       -32.9490   -5.2910   -0.8230 C.ar  163  TYR163      0.1957
     67  OH       -34.0620   -4.4880   -0.8060 O.3   163  TYR163     -0.2866
     68  N        -34.1200  -11.5730   -6.1840 N.3   175  ILE175     -0.1231
     69  CA       -33.4140  -10.9350   -5.0950 C.3   175  ILE175      0.1692
     70  C        -32.6560  -12.0680   -4.4040 C.2   175  ILE175      0.2592
     71  O        -33.1530  -13.1810   -4.1870 O.2   175  ILE175     -0.2718
     72  CB       -34.3580  -10.2060   -4.1240 C.3   175  ILE175      0.0266
     73  CG1      -35.1270   -9.1150   -4.8860 C.3   175  ILE175      0.0019
     74  CG2      -33.5740   -9.5600   -2.9700 C.3   175  ILE175      0.0020
     75  CD1      -36.2310   -8.4710   -4.0710 C.3   175  ILE175      0.0001
     76  N        -31.4060  -11.7430   -4.0970 N.am  176  GLU176     -0.1966
     77  CA       -30.5330  -12.6340   -3.3380 C.3   176  GLU176      0.1718
     78  C        -30.8100  -12.3130   -1.8780 C.2   176  GLU176      0.2458
     79  O        -30.7360  -11.1270   -1.4990 O.2   176  GLU176     -0.2730
     80  CB       -29.0580  -12.4380   -3.6910 C.3   176  GLU176      0.0428
     81  CG       -28.1660  -13.5600   -3.1470 C.3   176  GLU176      0.1163
     82  CD       -26.8110  -13.6840   -3.8470 C.2   176  GLU176      0.3649
     83  OE1      -25.8460  -13.0220   -3.3980 O.co2 176  GLU176     -0.2457
     84  OE2      -26.7300  -14.4620   -4.8320 O.co2 176  GLU176     -0.2457
     85  N        -31.2050  -13.3200   -1.0740 N.am  177  PRO177     -0.2716
     86  CA       -31.6300  -13.0460    0.3260 C.3   177  PRO177      0.1536
     87  C        -30.4510  -12.7380    1.2870 C.2   177  PRO177      0.2598
     88  O        -29.3190  -13.1150    1.0120 O.2   177  PRO177     -0.2715
     89  CB       -32.3310  -14.3430    0.7200 C.3   177  PRO177      0.0310
     90  CG       -31.5560  -15.3770   -0.0350 C.3   177  PRO177      0.0237
     91  CD       -31.2990  -14.7570   -1.3830 C.3   177  PRO177      0.0939
     92  N        -30.7450  -12.0500    2.3880 N.am  178  VAL178     -0.1978
     93  CA       -29.8120  -11.8470    3.5120 C.3   178  VAL178      0.1596
     94  C        -29.9020  -13.0570    4.4540 C.2   178  VAL178      0.2287
     95  O        -30.9760  -13.3180    5.0370 O.2   178  VAL178     -0.2864
     96  CB       -30.1540  -10.5710    4.2760 C.3   178  VAL178      0.0276
     97  CG1      -29.2190  -10.3650    5.4610 C.3   178  VAL178      0.0022
     98  CG2      -30.1210   -9.3610    3.3410 C.3   178  VAL178      0.0022
     99  N        -30.6470  -13.5160    8.8920 N.3   181  ALA181     -0.1231
    100  CA       -31.5470  -12.3770    9.1140 C.3   181  ALA181      0.1694
    101  C        -33.0180  -12.7040    8.9420 C.2   181  ALA181      0.2592
    102  O        -33.3910  -13.4590    8.0580 O.2   181  ALA181     -0.2718
    103  CB       -31.1800  -11.2010    8.2170 C.3   181  ALA181      0.0304
    104  N        -33.8280  -12.0990    9.8080 N.am  182  VAL182     -0.1966
    105  CA       -35.2750  -12.2910    9.8780 C.3   182  VAL182      0.1727
    106  C        -35.9030  -10.8900   10.0790 C.2   182  VAL182      0.2616
    107  O        -35.2310   -9.9660   10.5740 O.2   182  VAL182     -0.2715
    108  CB       -35.6650  -13.2540   11.0360 C.3   182  VAL182      0.0290
    109  CG1      -37.0930  -13.7350   10.8530 C.3   182  VAL182      0.0023
    110  CG2      -34.8010  -14.5090   11.0700 C.3   182  VAL182      0.0023
    111  N        -37.1640  -10.7190    9.6700 N.am  183  SER183     -0.1950
    112  CA       -37.8820   -9.4480    9.8410 C.3   183  SER183      0.1924
    113  C        -38.0660   -9.0500   11.3300 C.2   183  SER183      0.2314
    114  O        -38.2390   -9.9190   12.1720 O.2   183  SER183     -0.2863
    115  CB       -39.2300   -9.4810    9.1160 C.3   183  SER183      0.2116
    116  OG       -40.2490  -10.2270    9.7790 O.3   183  SER183     -0.2180
    117  N        -40.6660   -7.6720   12.6110 N.3   185  HIS185     -0.1226
    118  CA       -41.9720   -8.2600   12.8680 C.3   185  HIS185      0.1752
    119  C        -41.8880   -9.6810   13.4430 C.2   185  HIS185      0.2595
    120  O        -42.5120   -9.9920   14.4440 O.2   185  HIS185     -0.2718
    121  CB       -42.7580   -8.3060   11.5460 C.3   185  HIS185      0.0759
    122  CG       -44.1460   -8.8450   11.6740 C.ar  185  HIS185      0.0818
    123  ND1      -45.2300   -8.0150   11.7320 N.ar  185  HIS185     -0.2268
    124  CD2      -44.6280  -10.1120   11.7370 C.ar  185  HIS185      0.1154
    125  CE1      -46.3320   -8.7430   11.8210 C.ar  185  HIS185      0.1986
    126  NE2      -45.9890  -10.0190   11.8490 N.ar  185  HIS185     -0.2212
    127  N        -41.1360  -10.5380   12.7720 N.am  186  GLN186     -0.1979
    128  CA       -40.9900  -11.9460   13.1580 C.3   186  GLN186      0.1601
    129  C        -40.2580  -12.1290   14.4910 C.2   186  GLN186      0.2287
    130  O        -40.6260  -13.0120   15.2730 O.2   186  GLN186     -0.2864
    131  CB       -40.2410  -12.7130   12.0700 C.3   186  GLN186      0.0394
    132  CG       -40.2370  -14.2250   12.2250 C.3   186  GLN186      0.0908
    133  CD       -41.6710  -14.8540   12.0020 C.2   186  GLN186      0.2608
    134  OE1      -42.3990  -14.4620   11.0890 O.2   186  GLN186     -0.2717
    135  NE2      -42.0410  -15.8180   12.8460 N.am  186  GLN186     -0.0878
    136  N        -41.8300   -0.2930    7.3660 N.3   238  HIS238     -0.1241
    137  CA       -42.4920   -0.9960    8.4690 C.3   238  HIS238      0.1621
    138  C        -41.6600   -2.2000    8.8860 C.2   238  HIS238      0.2264
    139  O        -40.7290   -2.5760    8.1830 O.2   238  HIS238     -0.2867
    140  CB       -43.9240   -1.4070    8.0730 C.3   238  HIS238      0.0745
    141  CG       -44.0310   -2.0180    6.7120 C.ar  238  HIS238      0.0817
    142  ND1      -43.8290   -3.3620    6.4810 N.ar  238  HIS238     -0.2268
    143  CD2      -44.3210   -1.4640    5.5080 C.ar  238  HIS238      0.1154
    144  CE1      -43.9810   -3.6100    5.1920 C.ar  238  HIS238      0.1986
    145  NE2      -44.2710   -2.4730    4.5770 N.ar  238  HIS238     -0.2212
    146  N        -42.1210   -5.3320    8.8420 N.3   240  GLY240     -0.1210
    147  CA       -42.0310   -6.2770    7.7210 C.3   240  GLY240      0.1956
    148  C        -40.9180   -6.0440    6.6960 C.2   240  GLY240      0.2611
    149  O        -40.4170   -7.0140    6.1260 O.2   240  GLY240     -0.2717
    150  N        -40.5840   -4.7740    6.4360 N.am  241  ASN241     -0.1974
    151  CA       -39.5300   -4.3420    5.5040 C.3   241  ASN241      0.1688
    152  C        -38.1630   -3.9630    6.1630 C.2   241  ASN241      0.2292
    153  O        -37.2910   -3.4090    5.4750 O.2   241  ASN241     -0.2864
    154  CB       -40.0440   -3.1480    4.6720 C.3   241  ASN241      0.1181
    155  CG       -41.0050   -3.5540    3.5370 C.2   241  ASN241      0.2629
    156  OD1      -41.3100   -4.7350    3.3090 O.2   241  ASN241     -0.2716
    157  ND2      -41.4760   -2.5500    2.7970 N.am  241  ASN241     -0.0877
    158  N        -35.1450   -5.8980    8.4350 N.3   243  LEU243     -0.1245
    159  CA       -34.6450   -7.1550    8.9710 C.3   243  LEU243      0.1561
    160  C        -33.6890   -6.8550   10.0970 C.2   243  LEU243      0.2260
    161  O        -33.1430   -5.7500   10.1560 O.2   243  LEU243     -0.2867
    162  CB       -33.9180   -7.9680    7.8930 C.3   243  LEU243      0.0270
    163  CG       -34.5650   -8.1460    6.5200 C.3   243  LEU243      0.0019
    164  CD1      -33.6330   -8.9670    5.6220 C.3   243  LEU243      0.0001
    165  CD2      -35.9340   -8.7770    6.5830 C.3   243  LEU243      0.0001
    166  N        -35.0410   -3.3410    3.4300 N.3   253  ILE253     -0.1231
    167  CA       -35.2920   -4.0560    2.1860 C.3   253  ILE253      0.1692
    168  C        -36.4490   -3.4000    1.4590 C.2   253  ILE253      0.2592
    169  O        -37.0840   -2.4670    1.9750 O.2   253  ILE253     -0.2718
    170  CB       -35.5670   -5.5560    2.4110 C.3   253  ILE253      0.0266
    171  CG1      -36.7490   -5.7740    3.3690 C.3   253  ILE253      0.0019
    172  CG2      -34.3230   -6.2290    2.9760 C.3   253  ILE253      0.0020
    173  CD1      -37.3300   -7.1490    3.3600 C.3   253  ILE253      0.0001
    174  N        -36.6770   -3.8810    0.2360 N.am  254  ASP254     -0.1974
    175  CA       -37.8350   -3.5240   -0.5620 C.3   254  ASP254      0.1709
    176  C        -37.8710   -2.0240   -0.8690 C.2   254  ASP254      0.2293
    177  O        -38.7970   -1.2960   -0.4930 O.2   254  ASP254     -0.2864
    178  CB       -39.1160   -4.0350    0.1230 C.3   254  ASP254      0.1436
    179  CG       -40.2660   -4.1810   -0.8230 C.2   254  ASP254      0.3671
    180  OD1      -40.3450   -3.4730   -1.8480 O.co2 254  ASP254     -0.2456
    181  OD2      -41.1140   -5.0380   -0.5140 O.co2 254  ASP254     -0.2456
@<TRIPOS>BOND
     1    47    48    1
     2    49    48    1
     3    49    50    2
     4    68    69    1
     5    48    51    1
     6    51    52    1
     7    42    41    2
     8    69    70    1
     9    69    72    1
    10    41    40    1
    11    52    53    1
    12    73    72    1
    13    73    75    1
    14    84    82   ar
    15    70    71    2
    16    70    76   am
    17    72    74    1
    18    76    77    1
    19    82    83   ar
    20    82    81    1
    21    39    40    1
    22    59    58    2
    23    80    77    1
    24    80    81    1
    25    40    43    1
    26    53    54   ar
    27    53    55   ar
    28    32    33    1
    29    32    38    1
    30    33    34    1
    31    33    36    1
    32    77    78    1
    33    58    57    1
    34    43    45    1
    35    43    44    1
    36    34    35    2
    37    36    37    1
    38    38    37    1
    39    62    64   ar
    40    62    61   ar
    41    64    66   ar
    42    78    79    2
    43    78    85   am
    44   180   179   ar
    45    57    56    1
    46    57    60    1
    47    91    85    1
    48    91    90    1
    49    30    31    1
    50    30    29    1
    51    44    46    1
    52    85    86    1
    53    60    61    1
    54    22    21    1
    55    61    63   ar
    56   176   175    1
    57   176   177    2
    58    66    67    1
    59    66    65   ar
    60   179   181   ar
    61   179   178    1
    62   175   178    1
    63   175   174    1
    64    28    29    1
    65    28    27    1
    66    25    26    2
    67    25    24    1
    68    21    18    1
    69    90    89    1
    70    63    65   ar
    71   174   168   am
    72    86    89    1
    73    86    87    1
    74     7     6    1
    75    27    24    1
    76    24    23    1
    77    23    19   am
    78    88    87    2
    79     1     2    1
    80     6     5    1
    81     6     8    1
    82    19    18    1
    83    19    20    2
    84     4     3    2
    85    87    92   am
    86    18    17    1
    87   168   169    2
    88   168   167    1
    89     5     2    1
    90     2     3    1
    91    12    11    2
    92    17    11   am
    93     3     9   am
    94   167   170    1
    95   167   166    1
    96    92    93    1
    97    11    10    1
    98   170   172    1
    99   170   171    1
   100   157   155   am
   101     9    10    1
   102   156   155    2
   103    98    96    1
   104   173   171    1
   105    10    13    1
   106    93    96    1
   107    93    94    1
   108   155   154    1
   109    96    97    1
   110    94    95    2
   111   145   144   ar
   112   145   143   ar
   113   154   151    1
   114    13    14    1
   115   144   142   ar
   116   153   152    2
   117   151   152    1
   118   151   150    1
   119   143   141   ar
   120   164   163    1
   121    15    14    2
   122    14    16   am
   123   149   148    2
   124   150   148   am
   125   142   141   ar
   126   163   165    1
   127   163   162    1
   128   148   147    1
   129   141   140    1
   130   136   137    1
   131   147   146    1
   132   162   159    1
   133   102   101    2
   134   140   137    1
   135   139   138    2
   136   103   100    1
   137   158   159    1
   138   137   138    1
   139    99   100    1
   140   101   100    1
   141   101   104   am
   142   159   160    1
   143   115   116    1
   144   115   112    1
   145   111   112    1
   146   111   106   am
   147   104   105    1
   148   112   113    1
   149   105   106    1
   150   105   108    1
   151   106   107    2
   152   160   161    2
   153   109   108    1
   154   108   110    1
   155   134   133    2
   156   113   114    2
   157   121   122    1
   158   121   118    1
   159   122   123   ar
   160   122   124   ar
   161   123   125   ar
   162   124   126   ar
   163   125   126   ar
   164   133   132    1
   165   133   135   am
   166   131   132    1
   167   131   128    1
   168   117   118    1
   169   127   128    1
   170   127   119   am
   171   118   119    1
   172   128   129    1
   173   119   120    2
   174   129   130    2
