@<TRIPOS>MOLECULE
tmp/6gl9A01.pdb
 124 121 0 0 0
SMALL
GASTEIGER

@<TRIPOS>ATOM
      1  N         24.2050  -11.7760   60.4850 N.3   181  PHE181     -0.1241
      2  CA        24.4100  -13.0680   61.1800 C.3   181  PHE181      0.1605
      3  C         24.7870  -12.9980   62.6340 C.2   181  PHE181      0.2264
      4  O         24.9980  -14.0780   63.2620 O.2   181  PHE181     -0.2867
      5  CB        25.4110  -13.9530   60.3930 C.3   181  PHE181      0.0534
      6  CG        24.9890  -14.1940   58.9870 C.ar  181  PHE181     -0.0203
      7  CD1       23.8400  -14.9390   58.6920 C.ar  181  PHE181     -0.0042
      8  CD2       25.7470  -13.6960   57.9010 C.ar  181  PHE181     -0.0042
      9  CE1       23.4610  -15.1560   57.3660 C.ar  181  PHE181     -0.0003
     10  CE2       25.3480  -13.8800   56.5860 C.ar  181  PHE181     -0.0003
     11  CZ        24.2190  -14.6380   56.3100 C.ar  181  PHE181     -0.0000
     12  N         22.3930  -12.3350   72.3590 N.3   200  TRP200     -0.1241
     13  CA        22.3080  -13.1590   71.1800 C.3   200  TRP200      0.1605
     14  C         23.6400  -12.9480   70.3860 C.2   200  TRP200      0.2264
     15  O         24.2480  -13.9060   69.9750 O.2   200  TRP200     -0.2867
     16  CB        21.1340  -12.7030   70.2930 C.3   200  TRP200      0.0550
     17  CG        21.0540  -13.4550   68.9700 C.ar  200  TRP200      0.0003
     18  CD1       21.8920  -13.3510   67.8830 C.ar  200  TRP200      0.0946
     19  CD2       20.0910  -14.4720   68.6270 C.ar  200  TRP200      0.0152
     20  NE1       21.4570  -14.2030   66.8720 N.ar  200  TRP200     -0.2442
     21  CE2       20.3640  -14.8870   67.3060 C.ar  200  TRP200      0.0810
     22  CE3       18.9620  -14.9980   69.2860 C.ar  200  TRP200      0.0012
     23  CZ2       19.6000  -15.8740   66.6660 C.ar  200  TRP200      0.0191
     24  CZ3       18.1810  -15.9520   68.6340 C.ar  200  TRP200      0.0001
     25  CH2       18.4900  -16.3610   67.3320 C.ar  200  TRP200      0.0015
     26  N         27.0790  -15.5400   69.1180 N.3   204  VAL204     -0.1245
     27  CA        27.7390  -15.6120   67.8410 C.3   204  VAL204      0.1561
     28  C         29.2340  -15.3210   68.0520 C.2   204  VAL204      0.2260
     29  O         30.1060  -15.9480   67.3950 O.2   204  VAL204     -0.2867
     30  CB        27.1000  -14.7110   66.7290 C.3   204  VAL204      0.0252
     31  CG1       27.6920  -15.0470   65.3650 C.3   204  VAL204      0.0019
     32  CG2       25.5600  -14.8310   66.7240 C.3   204  VAL204      0.0019
     33  N         29.8730  -17.7740   60.1110 N.3   219  PRO219     -0.2116
     34  CA        28.4200  -17.8040   60.0740 C.3   219  PRO219      0.1372
     35  C         27.8610  -17.6910   58.7050 C.2   219  PRO219      0.2244
     36  O         26.9300  -18.4370   58.3740 O.2   219  PRO219     -0.2868
     37  CB        28.0530  -16.5870   60.8840 C.3   219  PRO219      0.0268
     38  CG        29.0480  -16.6000   61.9530 C.3   219  PRO219      0.0207
     39  CD        30.3270  -16.9360   61.2330 C.3   219  PRO219      0.0892
     40  N         25.5210  -20.4970   56.8730 N.3   223  PHE223     -0.1241
     41  CA        24.2500  -20.1140   56.2310 C.3   223  PHE223      0.1605
     42  C         24.1920  -20.6090   54.7680 C.2   223  PHE223      0.2264
     43  O         23.2020  -21.2430   54.3610 O.2   223  PHE223     -0.2867
     44  CB        24.0240  -18.5870   56.3000 C.3   223  PHE223      0.0534
     45  CG        22.8590  -18.1190   55.5050 C.ar  223  PHE223     -0.0203
     46  CD1       21.5630  -18.2130   56.0150 C.ar  223  PHE223     -0.0042
     47  CD2       23.0320  -17.5810   54.2440 C.ar  223  PHE223     -0.0042
     48  CE1       20.4890  -17.7980   55.2660 C.ar  223  PHE223     -0.0003
     49  CE2       21.9610  -17.1680   53.4940 C.ar  223  PHE223     -0.0003
     50  CZ        20.6740  -17.2690   54.0050 C.ar  223  PHE223     -0.0000
     51  N         23.5960  -24.1620   54.7870 N.3   226  MET226     -0.1245
     52  CA        22.2510  -24.4720   55.2690 C.3   226  MET226      0.1570
     53  C         21.2590  -24.2010   54.0970 C.2   226  MET226      0.2261
     54  O         20.2340  -24.9020   53.9410 O.2   226  MET226     -0.2867
     55  CB        22.0060  -23.7840   56.6440 C.3   226  MET226      0.0387
     56  CG        22.8090  -24.4260   57.8000 C.3   226  MET226      0.0595
     57  SD        22.7020  -23.6120   59.4430 S.3   226  MET226     -0.1393
     58  CE        21.0080  -23.1850   59.4300 C.3   226  MET226      0.0692
     59  N         17.2680  -16.3260   56.4300 N.3   239  LEU239     -0.1245
     60  CA        17.8090  -16.4450   57.7690 C.3   239  LEU239      0.1561
     61  C         16.6710  -16.4070   58.7760 C.2   239  LEU239      0.2260
     62  O         16.6100  -17.2300   59.6990 O.2   239  LEU239     -0.2867
     63  CB        18.8220  -15.2990   58.0820 C.3   239  LEU239      0.0270
     64  CG        19.5270  -15.1920   59.4370 C.3   239  LEU239      0.0019
     65  CD1       20.2510  -16.4830   59.7200 C.3   239  LEU239      0.0001
     66  CD2       20.4550  -13.9420   59.5200 C.3   239  LEU239      0.0001
     67  N         14.8550  -19.5920   58.8690 N.3   242  LEU242     -0.1231
     68  CA        15.6680  -20.6470   59.4830 C.3   242  LEU242      0.1693
     69  C         15.6600  -20.4890   60.9900 C.2   242  LEU242      0.2591
     70  O         15.5390  -21.4700   61.7170 O.2   242  LEU242     -0.2718
     71  CB        17.1240  -20.6300   58.9830 C.3   242  LEU242      0.0284
     72  CG        17.3340  -21.1740   57.5700 C.3   242  LEU242      0.0019
     73  CD1       18.7180  -20.7870   57.0640 C.3   242  LEU242      0.0001
     74  CD2       17.2200  -22.6910   57.4910 C.3   242  LEU242      0.0001
     75  N         15.8010  -19.2720   61.4690 N.am  243  LEU243     -0.1980
     76  CA        15.8520  -19.0780   62.9200 C.3   243  LEU243      0.1596
     77  C         14.4900  -19.4140   63.5090 C.2   243  LEU243      0.2287
     78  O         14.3990  -19.9900   64.5940 O.2   243  LEU243     -0.2864
     79  CB        16.2740  -17.6380   63.2740 C.3   243  LEU243      0.0297
     80  CG        17.6470  -17.2240   62.8590 C.3   243  LEU243      0.0022
     81  CD1       17.8760  -15.7340   63.1590 C.3   243  LEU243      0.0001
     82  CD2       18.7250  -18.0300   63.5790 C.3   243  LEU243      0.0001
     83  N         16.5720  -23.6520   63.6630 N.3   247  GLN247     -0.1231
     84  CA        17.9310  -23.8880   63.1790 C.3   247  GLN247      0.1698
     85  C         18.9360  -22.8900   63.7970 C.2   247  GLN247      0.2592
     86  O         18.6580  -21.6840   63.9250 O.2   247  GLN247     -0.2718
     87  CB        17.9700  -23.7110   61.6720 C.3   247  GLN247      0.0381
     88  CG        17.1700  -24.7440   60.9420 C.3   247  GLN247      0.0905
     89  CD        17.9700  -26.0140   60.8280 C.2   247  GLN247      0.2608
     90  OE1       18.9680  -26.0490   60.1060 O.2   247  GLN247     -0.2717
     91  NE2       17.6070  -27.0280   61.6060 N.am  247  GLN247     -0.0878
     92  N         20.1010  -23.4150   64.1490 N.am  248  ARG248     -0.1966
     93  CA        21.1400  -22.6010   64.7360 C.3   248  ARG248      0.1729
     94  C         22.4770  -23.0870   64.2070 C.2   248  ARG248      0.2616
     95  O         22.5760  -24.1200   63.5530 O.2   248  ARG248     -0.2715
     96  CB        21.1080  -22.7100   66.2580 C.3   248  ARG248      0.0348
     97  CG        19.8340  -22.2330   66.9790 C.3   248  ARG248      0.0492
     98  CD        19.6800  -20.7540   66.8690 C.3   248  ARG248      0.2205
     99  NE        18.5570  -20.2660   67.6810 N.pl3 248  ARG248     -0.0865
    100  CZ        17.2930  -20.1070   67.2520 C.cat 248  ARG248      0.5346
    101  NH1       16.9450  -20.3830   66.0050 N.pl3 248  ARG248      0.1354
    102  NH2       16.3840  -19.6400   68.0910 N.pl3 248  ARG248      0.1354
    103  N         23.5020  -22.2790   64.4700 N.am  249  LEU249     -0.1977
    104  CA        24.8650  -22.6270   64.0850 C.3   249  LEU249      0.1596
    105  C         25.2750  -23.9220   64.7680 C.2   249  LEU249      0.2287
    106  O         24.8640  -24.1550   65.8870 O.2   249  LEU249     -0.2864
    107  CB        25.7940  -21.5030   64.4700 C.3   249  LEU249      0.0297
    108  CG        25.6000  -20.2250   63.6420 C.3   249  LEU249      0.0022
    109  CD1       26.2130  -18.9990   64.2960 C.3   249  LEU249      0.0001
    110  CD2       26.0720  -20.4500   62.1940 C.3   249  LEU249      0.0001
    111  N         20.8600  -17.9590   72.1880 N.3   267  TRP267     -0.1241
    112  CA        19.9960  -17.8920   71.0450 C.3   267  TRP267      0.1605
    113  C         18.5720  -18.3380   71.2700 C.2   267  TRP267      0.2264
    114  O         17.8830  -18.6720   70.2730 O.2   267  TRP267     -0.2867
    115  CB        20.6400  -18.6420   69.8830 C.3   267  TRP267      0.0550
    116  CG        22.0600  -18.2540   69.5520 C.ar  267  TRP267      0.0003
    117  CD1       22.5930  -17.0280   69.6220 C.ar  267  TRP267      0.0946
    118  CD2       23.0720  -19.1130   69.0170 C.ar  267  TRP267      0.0152
    119  NE1       23.9200  -17.0490   69.1830 N.ar  267  TRP267     -0.2442
    120  CE2       24.2360  -18.3350   68.8240 C.ar  267  TRP267      0.0810
    121  CE3       23.1380  -20.4550   68.7820 C.ar  267  TRP267      0.0012
    122  CZ2       25.4420  -18.8890   68.3200 C.ar  267  TRP267      0.0191
    123  CZ3       24.3240  -21.0280   68.3070 C.ar  267  TRP267      0.0001
    124  CH2       25.4560  -20.2610   68.0580 C.ar  267  TRP267      0.0015
@<TRIPOS>BOND
     1    49    50   ar
     2    49    47   ar
     3    54    53    2
     4    50    48   ar
     5    53    52    1
     6    47    45   ar
     7    43    42    2
     8    42    41    1
     9    51    52    1
    10    48    46   ar
    11    52    55    1
    12    45    46   ar
    13    45    44    1
    14    41    44    1
    15    41    40    1
    16    11    10   ar
    17    11     9   ar
    18    59    60    1
    19    10     8   ar
    20    55    56    1
    21    73    72    1
    22     9     7   ar
    23    74    72    1
    24    72    71    1
    25    60    63    1
    26    60    61    1
    27    56    57    1
    28     8     6   ar
    29    63    64    1
    30    36    35    2
    31     7     6   ar
    32    35    34    1
    33    61    62    2
    34    67    68    1
    35    71    68    1
    36     6     5    1
    37    58    57    1
    38    64    66    1
    39    64    65    1
    40    68    69    1
    41    34    33    1
    42    34    37    1
    43    90    89    2
    44    33    39    1
    45     5     2    1
    46     1     2    1
    47    89    88    1
    48    89    91   am
    49    37    38    1
    50    88    87    1
    51    69    75   am
    52    69    70    2
    53     2     3    1
    54    39    38    1
    55    75    76    1
    56    87    84    1
    57   110   108    1
    58     3     4    2
    59    80    81    1
    60    80    79    1
    61    80    82    1
    62    76    79    1
    63    76    77    1
    64    84    83    1
    65    84    85    1
    66    77    78    2
    67    95    94    2
    68   108   109    1
    69   108   107    1
    70    85    86    2
    71    85    92   am
    72   104   107    1
    73   104   103    1
    74   104   105    1
    75    92    93    1
    76    94   103   am
    77    94    93    1
    78    93    96    1
    79   105   106    2
    80    31    30    1
    81   101   100    1
    82    96    97    1
    83    23    21   ar
    84    23    25   ar
    85    32    30    1
    86    30    27    1
    87    98    97    1
    88    98    99    1
    89    20    21   ar
    90    20    18   ar
    91   100    99    2
    92   100   102    1
    93    21    19   ar
    94    25    24   ar
    95    29    28    2
    96    27    28    1
    97    27    26    1
    98    18    17   ar
    99   124   123   ar
   100   124   122   ar
   101   123   121   ar
   102   122   120   ar
   103    19    17   ar
   104    19    22   ar
   105    24    22   ar
   106   121   118   ar
   107   120   118   ar
   108   120   119   ar
   109    17    16    1
   110   118   116   ar
   111   119   117   ar
   112   116   117   ar
   113   116   115    1
   114   115   112    1
   115    15    14    2
   116   114   113    2
   117    16    13    1
   118    14    13    1
   119   112   113    1
   120   112   111    1
   121    13    12    1
