@<TRIPOS>MOLECULE
tmp/6gl9A00.pdb
 146 137 0 0 0
SMALL
GASTEIGER

@<TRIPOS>ATOM
      1  N         45.2220    4.0070   58.6310 N.3    16  GLN16      -0.1231
      2  CA        43.8440    3.6640   58.9610 C.3    16  GLN16       0.1698
      3  C         43.7680    2.3810   59.7730 C.2    16  GLN16       0.2592
      4  O         44.4130    1.3810   59.4500 O.2    16  GLN16      -0.2718
      5  CB        43.0270    3.4680   57.6850 C.3    16  GLN16       0.0381
      6  CG        41.5470    3.5590   57.9080 C.3    16  GLN16       0.0905
      7  CD        40.7770    3.6330   56.6110 C.2    16  GLN16       0.2608
      8  OE1       40.4970    2.5960   55.9770 O.2    16  GLN16      -0.2717
      9  NE2       40.4150    4.8850   56.1910 N.am   16  GLN16      -0.0878
     10  N         42.9300    2.3940   60.7850 N.am   17  LEU17      -0.1966
     11  CA        42.6450    1.2060   61.5810 C.3    17  LEU17       0.1728
     12  C         41.2880    0.5430   61.2700 C.2    17  LEU17       0.2616
     13  O         41.1060   -0.6640   61.4950 O.2    17  LEU17      -0.2715
     14  CB        42.7560    1.5910   63.0640 C.3    17  LEU17       0.0311
     15  CG        44.1500    1.9850   63.5170 C.3    17  LEU17       0.0022
     16  CD1       44.1170    2.5760   64.9220 C.3    17  LEU17       0.0001
     17  CD2       45.1020    0.8100   63.4590 C.3    17  LEU17       0.0001
     18  N         40.3210    1.3430   60.8800 N.am   18  GLY18      -0.1955
     19  CA        38.9450    0.8470   60.6490 C.3    18  GLY18       0.1869
     20  C         38.2060    1.8970   59.8680 C.2    18  GLY18       0.2309
     21  O         38.5460    3.0990   59.9250 O.2    18  GLY18      -0.2863
     22  N         38.5500    5.1840   61.9640 N.3    25  VAL25      -0.1245
     23  CA        39.4940    5.2170   63.0710 C.3    25  VAL25       0.1561
     24  C         40.8950    5.1460   62.4540 C.2    25  VAL25       0.2260
     25  O         41.2000    4.2530   61.6360 O.2    25  VAL25      -0.2867
     26  CB        39.3310    4.0460   64.0580 C.3    25  VAL25       0.0252
     27  CG1       40.3280    4.1750   65.1960 C.3    25  VAL25       0.0019
     28  CG2       37.9060    3.9860   64.5880 C.3    25  VAL25       0.0019
     29  N         44.5620    6.2580   68.8310 N.3    42  ALA42      -0.1245
     30  CA        43.6040    5.9560   67.8240 C.3    42  ALA42       0.1562
     31  C         42.5970    7.0050   67.8310 C.2    42  ALA42       0.2260
     32  O         42.0230    7.3010   68.8680 O.2    42  ALA42      -0.2867
     33  CB        42.9630    4.5950   68.1340 C.3    42  ALA42       0.0290
     34  N         37.7830   -0.5970   75.6210 N.3    73  VAL73      -0.1245
     35  CA        38.8020    0.2770   75.0690 C.3    73  VAL73       0.1561
     36  C         38.7290    1.6800   75.7310 C.2    73  VAL73       0.2260
     37  O         37.6470    2.1720   75.9970 O.2    73  VAL73      -0.2867
     38  CB        38.6920    0.4190   73.5330 C.3    73  VAL73       0.0252
     39  CG1       37.5150    1.3190   73.1130 C.3    73  VAL73       0.0019
     40  CG2       40.0090    1.0090   72.9880 C.3    73  VAL73       0.0019
     41  N         41.3000    7.7300   71.4540 N.3    91  MET91      -0.1230
     42  CA        41.3240    6.5480   72.2910 C.3    91  MET91       0.1702
     43  C         42.7160    5.9540   72.3610 C.2    91  MET91       0.2592
     44  O         43.5990    6.2520   71.5740 O.2    91  MET91      -0.2718
     45  CB        40.3970    5.4700   71.6920 C.3    91  MET91       0.0401
     46  CG        38.9100    5.8940   71.6160 C.3    91  MET91       0.0596
     47  SD        37.9620    4.9470   70.4330 S.3    91  MET91      -0.1393
     48  CE        38.5410    5.6250   68.8650 C.3    91  MET91       0.0692
     49  N         42.8640    5.0070   73.2870 N.am   92  GLU92      -0.1966
     50  CA        44.0860    4.2550   73.3480 C.3    92  GLU92       0.1733
     51  C         44.2460    3.4350   72.0410 C.2    92  GLU92       0.2616
     52  O         43.2890    3.0010   71.4380 O.2    92  GLU92      -0.2715
     53  CB        44.0970    3.3720   74.6130 C.3    92  GLU92       0.0429
     54  CG        43.1610    2.2510   74.6000 C.3    92  GLU92       0.1163
     55  CD        43.3730    1.2860   75.7560 C.2    92  GLU92       0.3649
     56  OE1       44.4910    1.2040   76.2940 O.co2  92  GLU92      -0.2457
     57  OE2       42.3990    0.5980   76.1150 O.co2  92  GLU92      -0.2457
     58  N         45.5040    3.2400   71.6420 N.am   93  TYR93      -0.1960
     59  CA        45.8540    2.4070   70.4980 C.3    93  TYR93       0.1771
     60  C         46.4050    1.0690   70.9860 C.2    93  TYR93       0.2619
     61  O         47.3110    1.0420   71.8070 O.2    93  TYR93      -0.2715
     62  CB        46.9460    3.0890   69.7050 C.3    93  TYR93       0.0574
     63  CG        47.6380    2.2190   68.6860 C.ar   93  TYR93      -0.0198
     64  CD1       46.9160    1.5810   67.7250 C.ar   93  TYR93      -0.0009
     65  CD2       49.0400    2.1410   68.6630 C.ar   93  TYR93      -0.0009
     66  CE1       47.5070    0.8510   66.7410 C.ar   93  TYR93       0.0417
     67  CE2       49.6650    1.4070   67.7120 C.ar   93  TYR93       0.0417
     68  CZ        48.9060    0.7500   66.7460 C.ar   93  TYR93       0.1957
     69  OH        49.5410    0.0110   65.7930 O.3    93  TYR93      -0.2866
     70  N         45.8200   -0.0130   70.4450 N.am   94  LEU94      -0.1977
     71  CA        46.2010   -1.4040   70.7700 C.3    94  LEU94       0.1596
     72  C         46.8680   -2.0410   69.5640 C.2    94  LEU94       0.2287
     73  O         46.1940   -2.5300   68.6690 O.2    94  LEU94      -0.2864
     74  CB        44.9730   -2.2290   71.2230 C.3    94  LEU94       0.0297
     75  CG        44.5900   -1.9970   72.6840 C.3    94  LEU94       0.0022
     76  CD1       43.5070   -2.9420   73.1900 C.3    94  LEU94       0.0001
     77  CD2       45.7760   -2.0900   73.6170 C.3    94  LEU94       0.0001
     78  N         45.9630   -5.4460   67.5420 N.3    97  GLY97      -0.1210
     79  CA        44.8450   -5.4200   66.6030 C.3    97  GLY97       0.1956
     80  C         43.6240   -6.1840   67.1240 C.2    97  GLY97       0.2612
     81  O         43.4670   -6.4280   68.3130 O.2    97  GLY97      -0.2717
     82  N         42.7900   -6.6580   66.2190 N.am   98  CYS98      -0.1970
     83  CA        41.5330   -7.2260   66.6150 C.3    98  CYS98       0.1712
     84  C         41.6540   -8.7150   66.8470 C.2    98  CYS98       0.2296
     85  O         42.5420   -9.4180   66.2930 O.2    98  CYS98      -0.2864
     86  CB        40.4270   -6.9420   65.6030 C.3    98  CYS98       0.0983
     87  SG        40.6730   -7.8170   64.0900 S.3    98  CYS98      -0.0798
     88  N         39.5930  -11.1330   65.9010 N.3   100  ARG100     -0.1231
     89  CA        39.2960  -11.9330   64.7160 C.3   100  ARG100      0.1694
     90  C         40.5870  -12.2630   63.9730 C.2   100  ARG100      0.2592
     91  O         40.8470  -13.3990   63.6170 O.2   100  ARG100     -0.2718
     92  CB        38.3200  -11.1950   63.7920 C.3   100  ARG100      0.0321
     93  CG        37.9880  -12.0070   62.5490 C.3   100  ARG100      0.0489
     94  CD        36.7220  -11.5380   61.8760 C.3   100  ARG100      0.2205
     95  NE        36.5100  -12.2400   60.6210 N.pl3 100  ARG100     -0.0865
     96  CZ        37.2090  -12.0310   59.5180 C.cat 100  ARG100      0.5346
     97  NH1       38.1910  -11.1210   59.5010 N.pl3 100  ARG100      0.1354
     98  NH2       36.9280  -12.7420   58.4270 N.pl3 100  ARG100      0.1354
     99  N         41.4120  -11.2520   63.7630 N.am  101  ASP101     -0.1974
    100  CA        42.6970  -11.4790   63.0700 C.3   101  ASP101      0.1709
    101  C         43.6900  -12.2850   63.8980 C.2   101  ASP101      0.2293
    102  O         44.4320  -13.1080   63.3410 O.2   101  ASP101     -0.2864
    103  CB        43.3320  -10.1650   62.6520 C.3   101  ASP101      0.1436
    104  CG        42.5980   -9.4900   61.4980 C.2   101  ASP101      0.3671
    105  OD1       41.6860  -10.0850   60.8550 O.co2 101  ASP101     -0.2456
    106  OD2       42.9690   -8.3400   61.2550 O.co2 101  ASP101     -0.2456
    107  N         35.6900   -8.9230   65.2520 N.3   142  ARG142     -0.1231
    108  CA        36.3830   -7.8230   64.5680 C.3   142  ARG142      0.1694
    109  C         36.4310   -6.5160   65.3770 C.2   142  ARG142      0.2592
    110  O         37.2430   -5.6710   65.0720 O.2   142  ARG142     -0.2718
    111  CB        35.7600   -7.5190   63.2010 C.3   142  ARG142      0.0321
    112  CG        34.3270   -6.9880   63.2230 C.3   142  ARG142      0.0489
    113  CD        33.8970   -6.4180   61.8560 C.3   142  ARG142      0.2205
    114  NE        34.4060   -7.2180   60.7590 N.pl3 142  ARG142     -0.0865
    115  CZ        35.4810   -6.9550   59.9930 C.cat 142  ARG142      0.5346
    116  NH1       36.2590   -5.8720   60.1350 N.pl3 142  ARG142      0.1354
    117  NH2       35.8070   -7.8200   59.0600 N.pl3 142  ARG142      0.1354
    118  N         35.5330   -6.3610   66.3580 N.am  143  ASN143     -0.1974
    119  CA        35.4870   -5.1690   67.2240 C.3   143  ASN143      0.1688
    120  C         36.0260   -5.4010   68.6220 C.2   143  ASN143      0.2292
    121  O         35.8210   -4.5730   69.5000 O.2   143  ASN143     -0.2864
    122  CB        34.0450   -4.6430   67.3070 C.3   143  ASN143      0.1181
    123  CG        33.5230   -4.2220   65.9660 C.2   143  ASN143      0.2629
    124  OD1       34.2820   -3.7540   65.1410 O.2   143  ASN143     -0.2716
    125  ND2       32.2070   -4.4080   65.7220 N.am  143  ASN143     -0.0877
    126  N         39.4860   -5.9850   70.7800 N.3   145  LEU145     -0.1245
    127  CA        40.9330   -5.7120   70.5880 C.3   145  LEU145      0.1561
    128  C         41.7700   -6.5930   71.4810 C.2   145  LEU145      0.2260
    129  O         41.3070   -6.9630   72.5510 O.2   145  LEU145     -0.2867
    130  CB        41.2350   -4.2640   70.8580 C.3   145  LEU145      0.0270
    131  CG        40.6210   -3.3350   69.8100 C.3   145  LEU145      0.0019
    132  CD1       40.7990   -1.8620   70.2540 C.3   145  LEU145      0.0001
    133  CD2       41.1350   -3.5900   68.3840 C.3   145  LEU145      0.0001
    134  N         35.6900   -2.7790   71.7010 N.3   155  ALA155     -0.1231
    135  CA        35.7780   -1.5380   70.9370 C.3   155  ALA155      0.1694
    136  C         34.5420   -1.2810   70.0660 C.2   155  ALA155      0.2592
    137  O         33.4840   -1.9020   70.2560 O.2   155  ALA155     -0.2718
    138  CB        37.0610   -1.5300   70.1520 C.3   155  ALA155      0.0304
    139  N         34.6520   -0.3100   69.1680 N.am  156  ASP156     -0.1974
    140  CA        33.6030    0.0970   68.2760 C.3   156  ASP156      0.1709
    141  C         32.2660    0.3430   68.9510 C.2   156  ASP156      0.2293
    142  O         31.3640   -0.4830   68.8760 O.2   156  ASP156     -0.2864
    143  CB        33.4240   -0.8160   67.0450 C.3   156  ASP156      0.1436
    144  CG        32.5030   -0.1220   65.9740 C.2   156  ASP156      0.3671
    145  OD1       32.1450    1.0790   66.1260 O.co2 156  ASP156     -0.2456
    146  OD2       32.0480   -0.7920   65.0300 O.co2 156  ASP156     -0.2456
@<TRIPOS>BOND
     1     8     7    2
     2     9     7   am
     3     7     6    1
     4     5     6    1
     5     5     2    1
     6    98    96    1
     7     1     2    1
     8     2     3    1
     9   117   115    1
    10     4     3    2
    11    97    96    1
    12    96    95    2
    13     3    10   am
    14    20    21    2
    15    20    19    1
    16   115   116    1
    17   115   114    2
    18    95    94    1
    19    19    18    1
    20   114   113    1
    21    10    11    1
    22   105   104   ar
    23    18    12   am
    24   106   104   ar
    25    12    13    2
    26    12    11    1
    27   104   103    1
    28    11    14    1
    29    25    24    2
    30   113   112    1
    31    94    93    1
    32    22    23    1
    33    24    23    1
    34    93    92    1
    35   103   100    1
    36    14    15    1
    37   100    99    1
    38   100   101    1
    39    23    26    1
    40   111   112    1
    41   111   108    1
    42   102   101    2
    43    17    15    1
    44    15    16    1
    45    91    90    2
    46    99    90   am
    47    92    89    1
    48    90    89    1
    49    26    28    1
    50    26    27    1
    51    87    86    1
    52   108   107    1
    53   108   109    1
    54    89    88    1
    55   146   144   ar
    56   110   109    2
    57   124   123    2
    58   109   118   am
    59    86    83    1
    60   125   123   am
    61    69    68    1
    62   123   122    1
    63   144   145   ar
    64   144   143    1
    65    82    83    1
    66    82    80   am
    67    85    84    2
    68   118   119    1
    69    79    80    1
    70    79    78    1
    71    83    84    1
    72    66    68   ar
    73    66    64   ar
    74    68    67   ar
    75   143   140    1
    76    80    81    2
    77   119   122    1
    78   119   120    1
    79    67    65   ar
    80    64    63   ar
    81    30    31    1
    82    30    33    1
    83    30    29    1
    84    31    32    2
    85   140   141    1
    86   140   139    1
    87   133   131    1
    88   120   121    2
    89    65    63   ar
    90    73    72    2
    91    63    62    1
    92    48    47    1
    93   142   141    2
    94   139   136   am
    95    72    71    1
    96    62    59    1
    97   131   132    1
    98   131   130    1
    99   136   137    2
   100   136   135    1
   101   138   135    1
   102    47    46    1
   103    70    71    1
   104    70    60   am
   105    59    60    1
   106    59    58    1
   107   127   126    1
   108   127   130    1
   109   127   128    1
   110    71    74    1
   111   135   134    1
   112    60    61    2
   113    74    75    1
   114    52    51    2
   115    41    42    1
   116   128   129    2
   117    44    43    2
   118    46    45    1
   119    58    51   am
   120    45    42    1
   121    51    50    1
   122    42    43    1
   123    43    49   am
   124    75    76    1
   125    75    77    1
   126    40    38    1
   127    39    38    1
   128    49    50    1
   129    50    53    1
   130    38    35    1
   131    54    53    1
   132    54    55    1
   133    35    34    1
   134    35    36    1
   135    36    37    2
   136    55    57   ar
   137    55    56   ar
