@<TRIPOS>MOLECULE
tmp/6glbA00.pdb
 146 137 0 0 0
SMALL
GASTEIGER

@<TRIPOS>ATOM
      1  N         40.4250   55.0000   -1.7850 N.3    16  LEU16      -0.1231
      2  CA        40.2550   53.7520   -1.0180 C.3    16  LEU16       0.1693
      3  C         39.0030   52.9680   -1.4050 C.2    16  LEU16       0.2593
      4  O         38.9870   51.7500   -1.3530 O.2    16  LEU16      -0.2718
      5  CB        40.2970   54.0560    0.4710 C.3    16  LEU16       0.0284
      6  CG        41.6400   54.5840    0.9310 C.3    16  LEU16       0.0019
      7  CD1       41.4680   55.4240    2.1810 C.3    16  LEU16       0.0001
      8  CD2       42.6160   53.4450    1.1600 C.3    16  LEU16       0.0001
      9  N         37.9510   53.6860   -1.7290 N.am   17  GLY17      -0.1942
     10  CA        36.6360   53.0880   -2.0040 C.3    17  GLY17       0.2014
     11  C         35.8060   54.2020   -2.5700 C.2    17  GLY17       0.2638
     12  O         36.1500   55.3890   -2.3830 O.2    17  GLY17      -0.2714
     13  N         34.7230   53.8340   -3.2350 N.am   18  LYS18      -0.1977
     14  CA        34.0500   54.7100   -4.1770 C.3    18  LYS18       0.1596
     15  C         32.5890   54.3030   -4.3390 C.2    18  LYS18       0.2287
     16  O         32.3060   53.1270   -4.5660 O.2    18  LYS18      -0.2864
     17  CB        34.7870   54.5990   -5.5220 C.3    18  LYS18       0.0298
     18  CG        34.0380   55.0640   -6.7600 C.3    18  LYS18       0.0038
     19  CD        34.8790   54.8290   -8.0150 C.3    18  LYS18       0.0206
     20  CE        34.0370   54.8270   -9.2770 C.3    18  LYS18       0.1093
     21  NZ        33.3680   56.1430   -9.5040 N.3    18  LYS18      -0.1314
     22  N         36.1100   57.6670   -0.6300 N.3    24  VAL24      -0.1245
     23  CA        37.0330   57.7400    0.4880 C.3    24  VAL24       0.1561
     24  C         38.4270   57.7010   -0.1040 C.2    24  VAL24       0.2260
     25  O         38.7470   56.8020   -0.8580 O.2    24  VAL24      -0.2867
     26  CB        36.8640   56.5860    1.4800 C.3    24  VAL24       0.0252
     27  CG1       37.7700   56.8130    2.6810 C.3    24  VAL24       0.0019
     28  CG2       35.3940   56.4820    1.9280 C.3    24  VAL24       0.0019
     29  N         42.1520   58.7790    6.1740 N.3    41  ALA41      -0.1245
     30  CA        41.1890   58.4040    5.1770 C.3    41  ALA41       0.1562
     31  C         40.1900   59.4900    5.2220 C.2    41  ALA41       0.2260
     32  O         39.7050   59.8660    6.3110 O.2    41  ALA41      -0.2867
     33  CB        40.5710   57.0470    5.5050 C.3    41  ALA41       0.0290
     34  N         35.3000   51.9570   12.9140 N.3    72  VAL72      -0.1245
     35  CA        36.2540   52.8670   12.3600 C.3    72  VAL72       0.1561
     36  C         36.1890   54.2160   13.0900 C.2    72  VAL72       0.2260
     37  O         35.1160   54.7410   13.3340 O.2    72  VAL72      -0.2867
     38  CB        36.1000   53.0380   10.8270 C.3    72  VAL72       0.0252
     39  CG1       34.9280   53.9300   10.4640 C.3    72  VAL72       0.0019
     40  CG2       37.3950   53.5780   10.2470 C.3    72  VAL72       0.0019
     41  N         39.0350   60.3360    8.8350 N.3    90  MET90      -0.1230
     42  CA        38.9570   59.1270    9.6650 C.3    90  MET90       0.1702
     43  C         40.3220   58.5050    9.7290 C.2    90  MET90       0.2592
     44  O         41.1900   58.8410    8.9340 O.2    90  MET90      -0.2718
     45  CB        37.9690   58.1050    9.0720 C.3    90  MET90       0.0401
     46  CG        36.4930   58.5480    9.0330 C.3    90  MET90       0.0596
     47  SD        35.6160   57.5730    7.7960 S.3    90  MET90      -0.1393
     48  CE        36.1900   58.3240    6.2540 C.3    90  MET90       0.0692
     49  N         40.5070   57.5630   10.6440 N.am   91  GLU91      -0.1966
     50  CA        41.7590   56.8040   10.6670 C.3    91  GLU91       0.1733
     51  C         41.8900   55.9760    9.3520 C.2    91  GLU91       0.2616
     52  O         40.8970   55.6060    8.7420 O.2    91  GLU91      -0.2715
     53  CB        41.8410   55.8860   11.8850 C.3    91  GLU91       0.0429
     54  CG        40.8250   54.7510   11.8570 C.3    91  GLU91       0.1163
     55  CD        40.9630   53.8120   13.0260 C.2    91  GLU91       0.3649
     56  OE1       42.0250   53.7500   13.6610 O.co2  91  GLU91      -0.2457
     57  OE2       39.9650   53.1270   13.3200 O.co2  91  GLU91      -0.2457
     58  N         43.1400   55.7530    8.9480 N.am   92  TYR92      -0.1960
     59  CA        43.4650   54.9440    7.8000 C.3    92  TYR92       0.1771
     60  C         43.9390   53.5960    8.2690 C.2    92  TYR92       0.2619
     61  O         44.8890   53.5250    9.0310 O.2    92  TYR92      -0.2715
     62  CB        44.5770   55.5990    6.9840 C.3    92  TYR92       0.0574
     63  CG        45.1470   54.7080    5.9150 C.ar   92  TYR92      -0.0198
     64  CD1       44.3280   54.1550    4.9440 C.ar   92  TYR92      -0.0009
     65  CD2       46.5140   54.4430    5.8730 C.ar   92  TYR92      -0.0009
     66  CE1       44.8450   53.3350    3.9570 C.ar   92  TYR92       0.0417
     67  CE2       47.0740   53.6640    4.8820 C.ar   92  TYR92       0.0417
     68  CZ        46.2300   53.1060    3.9260 C.ar   92  TYR92       0.1957
     69  OH        46.7800   52.3430    2.9580 O.3    92  TYR92      -0.2866
     70  N         43.2740   52.5400    7.8160 N.am   93  LEU93      -0.1977
     71  CA        43.6620   51.1650    8.0890 C.3    93  LEU93       0.1596
     72  C         44.3050   50.5230    6.8520 C.2    93  LEU93       0.2287
     73  O         43.6100   50.1060    5.9230 O.2    93  LEU93      -0.2864
     74  CB        42.4890   50.3560    8.6430 C.3    93  LEU93       0.0297
     75  CG        41.9900   50.7470   10.0610 C.3    93  LEU93       0.0022
     76  CD1       40.9030   49.8120   10.5680 C.3    93  LEU93       0.0001
     77  CD2       43.1330   50.7640   11.0760 C.3    93  LEU93       0.0001
     78  N         43.5090   47.1450    4.7530 N.3    96  GLY96      -0.1210
     79  CA        42.3340   47.1040    3.8620 C.3    96  GLY96       0.1956
     80  C         41.1440   46.3130    4.4290 C.2    96  GLY96       0.2612
     81  O         40.9970   46.1390    5.6520 O.2    96  GLY96      -0.2717
     82  N         40.2440   45.9320    3.5280 N.am   97  CYS97      -0.1970
     83  CA        38.9860   45.3450    3.9250 C.3    97  CYS97       0.1712
     84  C         39.1450   43.8420    4.1810 C.2    97  CYS97       0.2296
     85  O         40.0060   43.1790    3.6110 O.2    97  CYS97      -0.2864
     86  CB        37.8780   45.6200    2.8960 C.3    97  CYS97       0.0983
     87  SG        38.1390   44.6840    1.3820 S.3    97  CYS97      -0.0798
     88  N         37.0840   41.3360    3.3790 N.3    99  ARG99      -0.1231
     89  CA        36.8270   40.5780    2.1600 C.3    99  ARG99       0.1694
     90  C         38.1270   40.2480    1.4610 C.2    99  ARG99       0.2592
     91  O         38.3560   39.1110    1.1430 O.2    99  ARG99      -0.2718
     92  CB        35.9290   41.3630    1.1730 C.3    99  ARG99       0.0321
     93  CG        35.5970   40.5720   -0.1140 C.3    99  ARG99       0.0489
     94  CD        34.9060   41.3980   -1.1780 C.3    99  ARG99       0.2205
     95  NE        35.7450   42.4800   -1.6790 N.pl3  99  ARG99      -0.0865
     96  CZ        35.3160   43.5170   -2.3910 C.cat  99  ARG99       0.5346
     97  NH1       34.0410   43.6480   -2.7290 N.pl3  99  ARG99       0.1354
     98  NH2       36.1690   44.4530   -2.7530 N.pl3  99  ARG99       0.1354
     99  N         38.9670   41.2530    1.2340 N.am  100  ASP100     -0.1974
    100  CA        40.1950   41.0760    0.4440 C.3   100  ASP100      0.1709
    101  C         41.2570   40.2700    1.1920 C.2   100  ASP100      0.2293
    102  O         41.9400   39.4210    0.6190 O.2   100  ASP100     -0.2864
    103  CB        40.7440   42.4360    0.0190 C.3   100  ASP100      0.1436
    104  CG        39.9860   43.0560   -1.1150 C.2   100  ASP100      0.3671
    105  OD1       39.0080   42.5230   -1.6120 O.co2 100  ASP100     -0.2456
    106  OD2       40.3620   44.1470   -1.5170 O.co2 100  ASP100     -0.2456
    107  N         33.2680   43.4910    2.6910 N.3   141  ARG141     -0.1231
    108  CA        34.0350   44.5190    1.9500 C.3   141  ARG141      0.1694
    109  C         34.0600   45.8620    2.6870 C.2   141  ARG141      0.2592
    110  O         34.8660   46.6960    2.3600 O.2   141  ARG141     -0.2718
    111  CB        33.4660   44.7280    0.5470 C.3   141  ARG141      0.0321
    112  CG        32.1280   45.4560    0.5180 C.3   141  ARG141      0.0489
    113  CD        31.3360   45.3300   -0.7730 C.3   141  ARG141      0.2205
    114  NE        29.9410   45.4950   -0.4380 N.pl3 141  ARG141     -0.0865
    115  CZ        29.2810   46.6410   -0.3240 C.cat 141  ARG141      0.5346
    116  NH1       27.9960   46.5760    0.0320 N.pl3 141  ARG141      0.1354
    117  NH2       29.8650   47.8290   -0.5250 N.pl3 141  ARG141      0.1354
    118  N         33.1190   46.0760    3.6190 N.am  142  ASN142     -0.1974
    119  CA        33.0210   47.2940    4.4540 C.3   142  ASN142      0.1688
    120  C         33.4920   47.1160    5.9070 C.2   142  ASN142      0.2292
    121  O         33.3690   48.0400    6.7150 O.2   142  ASN142     -0.2864
    122  CB        31.5660   47.7760    4.4890 C.3   142  ASN142      0.1181
    123  CG        31.0680   48.2250    3.1220 C.2   142  ASN142      0.2629
    124  OD1       31.8660   48.6450    2.2850 O.2   142  ASN142     -0.2716
    125  ND2       29.7650   48.1700    2.9090 N.am  142  ASN142     -0.0877
    126  N         36.9140   46.6030    8.0680 N.3   144  LEU144     -0.1245
    127  CA        38.3810   46.8150    7.9000 C.3   144  LEU144      0.1561
    128  C         39.2700   46.0200    8.8450 C.2   144  LEU144      0.2260
    129  O         38.8300   45.6500    9.9470 O.2   144  LEU144     -0.2867
    130  CB        38.7250   48.2910    8.0590 C.3   144  LEU144      0.0270
    131  CG        38.0720   49.2660    7.0920 C.3   144  LEU144      0.0019
    132  CD1       38.5160   50.6940    7.4350 C.3   144  LEU144      0.0001
    133  CD2       38.4130   48.9410    5.6320 C.3   144  LEU144      0.0001
    134  N         33.1920   49.7940    9.0630 N.3   154  ALA154     -0.1231
    135  CA        33.3440   51.0110    8.2890 C.3   154  ALA154      0.1694
    136  C         32.1070   51.2080    7.4000 C.2   154  ALA154      0.2592
    137  O         31.0430   50.5660    7.6440 O.2   154  ALA154     -0.2718
    138  CB        34.6110   50.9220    7.4670 C.3   154  ALA154      0.0304
    139  N         32.2130   52.1040    6.4050 N.am  155  ASP155     -0.1974
    140  CA        31.1090   52.5570    5.5640 C.3   155  ASP155      0.1709
    141  C         29.7760   52.8480    6.2570 C.2   155  ASP155      0.2293
    142  O         28.8580   52.0550    6.1700 O.2   155  ASP155     -0.2864
    143  CB        30.8320   51.6420    4.3570 C.3   155  ASP155      0.1436
    144  CG        29.9360   52.3530    3.3070 C.2   155  ASP155      0.3671
    145  OD1       29.6110   53.5500    3.4680 O.co2 155  ASP155     -0.2456
    146  OD2       29.6180   51.7610    2.2950 O.co2 155  ASP155     -0.2456
@<TRIPOS>BOND
     1    21    20    1
     2    20    19    1
     3    19    18    1
     4    18    17    1
     5    17    14    1
     6    16    15    2
     7    15    14    1
     8    14    13    1
     9    13    11   am
    10    98    96    1
    11    97    96    1
    12    11    12    2
    13    11    10    1
    14    96    95    2
    15    10     9    1
    16     1     2    1
    17     9     3   am
    18    95    94    1
    19   105   104   ar
    20   106   104   ar
    21     3     4    2
    22     3     2    1
    23    94    93    1
    24   104   103    1
    25     2     5    1
    26    25    24    2
    27   113   114    1
    28   113   112    1
    29    22    23    1
    30   117   115    1
    31   114   115    2
    32   115   116    1
    33    93    92    1
    34    24    23    1
    35   103   100    1
    36   100   101    1
    37   100    99    1
    38     5     6    1
    39    23    26    1
    40   112   111    1
    41   111   108    1
    42   102   101    2
    43     6     8    1
    44     6     7    1
    45    91    90    2
    46    92    89    1
    47    99    90   am
    48    87    86    1
    49    90    89    1
    50    26    28    1
    51    26    27    1
    52   108   109    1
    53   108   107    1
    54    89    88    1
    55   124   123    2
    56   146   144   ar
    57   110   109    2
    58   109   118   am
    59    86    83    1
    60   125   123   am
    61    69    68    1
    62   123   122    1
    63   144   145   ar
    64   144   143    1
    65    82    83    1
    66    82    80   am
    67    85    84    2
    68   118   119    1
    69    79    80    1
    70    79    78    1
    71    83    84    1
    72    68    66   ar
    73    68    67   ar
    74    66    64   ar
    75   143   140    1
    76    80    81    2
    77   119   122    1
    78   119   120    1
    79    67    65   ar
    80    64    63   ar
    81    30    31    1
    82    30    33    1
    83    30    29    1
    84    31    32    2
    85   140   141    1
    86   140   139    1
    87   133   131    1
    88    65    63   ar
    89   120   121    2
    90    63    62    1
    91    73    72    2
    92   142   141    2
    93    48    47    1
    94   139   136   am
    95    72    71    1
    96    62    59    1
    97   131   132    1
    98   131   130    1
    99   136   137    2
   100   136   135    1
   101   138   135    1
   102    47    46    1
   103    59    60    1
   104    59    58    1
   105    70    71    1
   106    70    60   am
   107   127   130    1
   108   127   126    1
   109   127   128    1
   110    71    74    1
   111    60    61    2
   112   135   134    1
   113    74    75    1
   114    52    51    2
   115    41    42    1
   116   128   129    2
   117    44    43    2
   118    58    51   am
   119    46    45    1
   120    45    42    1
   121    51    50    1
   122    42    43    1
   123    43    49   am
   124    75    76    1
   125    75    77    1
   126    40    38    1
   127    39    38    1
   128    49    50    1
   129    50    53    1
   130    38    35    1
   131    54    53    1
   132    54    55    1
   133    35    34    1
   134    35    36    1
   135    55    57   ar
   136    55    56   ar
   137    36    37    2
