@<TRIPOS>MOLECULE
tmp/6glnA00.pdb
 138 136 0 0 0
SMALL
GASTEIGER

@<TRIPOS>ATOM
      1  N        -11.0510   -9.1360    4.5170 N.3     5  TYR5       -0.1227
      2  CA       -11.0880   -9.0010    5.9630 C.3     5  TYR5        0.1736
      3  C         -9.7000   -9.3000    6.5160 C.2     5  TYR5        0.2596
      4  O         -8.8610   -9.9380    5.8680 O.2     5  TYR5       -0.2718
      5  CB       -12.0480  -10.0180    6.5890 C.3     5  TYR5        0.0548
      6  CG       -13.5100   -9.7990    6.2690 C.ar    5  TYR5       -0.0200
      7  CD1      -14.0450  -10.2260    5.0570 C.ar    5  TYR5       -0.0009
      8  CD2      -14.3580   -9.1900    7.1840 C.ar    5  TYR5       -0.0009
      9  CE1      -15.3890  -10.0220    4.7550 C.ar    5  TYR5        0.0417
     10  CE2      -15.7030   -8.9950    6.8940 C.ar    5  TYR5        0.0417
     11  CZ       -16.2010   -9.4180    5.6810 C.ar    5  TYR5        0.1957
     12  OH       -17.5350   -9.2290    5.3740 O.3     5  TYR5       -0.2866
     13  N         -9.4820   -8.8570    7.7420 N.am    6  THR6       -0.1939
     14  CA        -8.2790   -9.1870    8.4980 C.3     6  THR6        0.2028
     15  C         -8.6550   -9.9000    9.7850 C.2     6  THR6        0.2642
     16  O         -9.7670   -9.7630   10.2940 O.2     6  THR6       -0.2714
     17  CB        -7.4590   -7.9410    8.8500 C.3     6  THR6        0.1808
     18  OG1       -8.2340   -7.0610    9.6710 O.3     6  THR6       -0.2208
     19  CG2       -7.0300   -7.2310    7.5760 C.3     6  THR6        0.0379
     20  N         -7.6860  -10.6310   10.3310 N.am    7  LEU7       -0.1977
     21  CA        -7.8360  -11.3420   11.5950 C.3     7  LEU7        0.1596
     22  C         -6.4640  -11.3700   12.2390 C.2     7  LEU7        0.2287
     23  O         -5.4980  -11.8240   11.6100 O.2     7  LEU7       -0.2864
     24  CB        -8.3430  -12.7680   11.3460 C.3     7  LEU7        0.0297
     25  CG        -8.6750  -13.6120   12.5750 C.3     7  LEU7        0.0022
     26  CD1       -9.7890  -12.9520   13.3940 C.3     7  LEU7        0.0001
     27  CD2       -9.0760  -15.0100   12.1760 C.3     7  LEU7        0.0001
     28  N        -21.8010  -10.1210   13.7780 N.3    25  PHE25      -0.1241
     29  CA       -21.3430  -11.3960   13.2420 C.3    25  PHE25       0.1605
     30  C        -20.3080  -12.0100   14.1750 C.2    25  PHE25       0.2264
     31  O        -19.2770  -11.3950   14.4630 O.2    25  PHE25      -0.2867
     32  CB       -20.7540  -11.2020   11.8490 C.3    25  PHE25       0.0534
     33  CG       -20.6870  -12.4670   11.0450 C.ar   25  PHE25      -0.0203
     34  CD1      -21.8080  -13.2650   10.8920 C.ar   25  PHE25      -0.0042
     35  CD2      -19.5020  -12.8640   10.4510 C.ar   25  PHE25      -0.0042
     36  CE1      -21.7500  -14.4360   10.1580 C.ar   25  PHE25      -0.0003
     37  CE2      -19.4390  -14.0300    9.7140 C.ar   25  PHE25      -0.0003
     38  CZ       -20.5630  -14.8170    9.5680 C.ar   25  PHE25      -0.0000
     39  N        -10.3600   -8.2760   14.2060 N.3    34  GLY34      -0.1210
     40  CA       -10.2610   -7.9250   12.8070 C.3    34  GLY34       0.1956
     41  C        -11.5720   -7.3870   12.2820 C.2    34  GLY34       0.2612
     42  O        -12.4800   -7.0360   13.0360 O.2    34  GLY34      -0.2717
     43  N        -11.6420   -7.3220   10.9620 N.am   35  GLY35      -0.1956
     44  CA       -12.7970   -6.7320   10.3130 C.3    35  GLY35       0.1869
     45  C        -12.4590   -6.3730    8.8780 C.2    35  GLY35       0.2309
     46  O        -11.4720   -6.8450    8.3210 O.2    35  GLY35      -0.2863
     47  N        -13.8920  -17.9530    3.4720 N.3    70  PHE70      -0.1241
     48  CA       -15.1180  -18.5080    4.0280 C.3    70  PHE70       0.1605
     49  C        -16.2640  -18.3110    3.0520 C.2    70  PHE70       0.2264
     50  O        -16.4610  -17.2100    2.5200 O.2    70  PHE70      -0.2867
     51  CB       -15.4730  -17.8370    5.3570 C.3    70  PHE70       0.0534
     52  CG       -14.4780  -18.0850    6.4510 C.ar   70  PHE70      -0.0203
     53  CD1      -14.4740  -19.2860    7.1350 C.ar   70  PHE70      -0.0042
     54  CD2      -13.5400  -17.1280    6.7820 C.ar   70  PHE70      -0.0042
     55  CE1      -13.5470  -19.5230    8.1380 C.ar   70  PHE70      -0.0003
     56  CE2      -12.6260  -17.3500    7.7880 C.ar   70  PHE70      -0.0003
     57  CZ       -12.6280  -18.5520    8.4650 C.ar   70  PHE70      -0.0000
     58  N        -20.4110  -18.8560    3.1390 N.3    72  PHE72      -0.1241
     59  CA       -21.6330  -19.1740    3.8660 C.3    72  PHE72       0.1605
     60  C        -22.7060  -19.4510    2.8270 C.2    72  PHE72       0.2264
     61  O        -23.0400  -18.5670    2.0280 O.2    72  PHE72      -0.2867
     62  CB       -22.0180  -18.0240    4.7970 C.3    72  PHE72       0.0534
     63  CG       -21.0810  -17.8740    5.9500 C.ar   72  PHE72      -0.0203
     64  CD1      -19.9510  -17.0860    5.8420 C.ar   72  PHE72      -0.0042
     65  CD2      -21.2970  -18.5740    7.1170 C.ar   72  PHE72      -0.0042
     66  CE1      -19.0640  -16.9770    6.9000 C.ar   72  PHE72      -0.0003
     67  CE2      -20.4170  -18.4730    8.1820 C.ar   72  PHE72      -0.0003
     68  CZ       -19.2960  -17.6750    8.0640 C.ar   72  PHE72      -0.0000
     69  N        -15.7750  -14.4140    2.0470 N.3    79  MET79      -0.1245
     70  CA       -14.9260  -13.6150    2.9260 C.3    79  MET79       0.1570
     71  C        -13.4870  -14.0660    2.7500 C.2    79  MET79       0.2261
     72  O        -13.1650  -15.2290    3.0200 O.2    79  MET79      -0.2867
     73  CB       -15.3230  -13.7800    4.3870 C.3    79  MET79       0.0387
     74  CG       -16.7660  -13.4050    4.6360 C.3    79  MET79       0.0595
     75  SD       -17.1550  -13.6180    6.3820 S.3    79  MET79      -0.1393
     76  CE       -18.9490  -13.5820    6.3100 C.3    79  MET79       0.0692
     77  N        -10.1350  -13.7510    4.2350 N.3    81  VAL81      -0.1245
     78  CA        -9.6150  -13.3190    5.5330 C.3    81  VAL81       0.1561
     79  C         -8.1070  -13.4920    5.5450 C.2    81  VAL81       0.2260
     80  O         -7.5890  -14.6050    5.3980 O.2    81  VAL81      -0.2867
     81  CB       -10.2660  -14.0940    6.6850 C.3    81  VAL81       0.0252
     82  CG1       -9.7000  -13.6140    8.0260 C.3    81  VAL81       0.0019
     83  CG2      -11.7830  -13.9610    6.6430 C.3    81  VAL81       0.0019
     84  N        -15.1960  -20.0960   16.7380 N.3   115  TRP115     -0.1241
     85  CA       -15.6530  -20.5560   15.4350 C.3   115  TRP115      0.1605
     86  C        -15.1010  -21.9550   15.1770 C.2   115  TRP115      0.2264
     87  O        -13.9520  -22.2400   15.5260 O.2   115  TRP115     -0.2867
     88  CB       -15.1590  -19.6130   14.3410 C.3   115  TRP115      0.0550
     89  CG       -15.9530  -18.3600   14.1690 C.ar  115  TRP115      0.0003
     90  CD1      -15.7130  -17.1430   14.7490 C.ar  115  TRP115      0.0946
     91  CD2      -17.1070  -18.1900   13.3430 C.ar  115  TRP115      0.0152
     92  NE1      -16.6530  -16.2320   14.3370 N.ar  115  TRP115     -0.2442
     93  CE2      -17.5210  -16.8490   13.4740 C.ar  115  TRP115      0.0810
     94  CE3      -17.8310  -19.0420   12.5000 C.ar  115  TRP115      0.0012
     95  CZ2      -18.6300  -16.3420   12.7970 C.ar  115  TRP115      0.0191
     96  CZ3      -18.9310  -18.5390   11.8360 C.ar  115  TRP115      0.0001
     97  CH2      -19.3200  -17.2030   11.9860 C.ar  115  TRP115      0.0015
     98  N        -13.9560  -23.5260   12.6620 N.3   117  ASP117     -0.1225
     99  CA       -12.7770  -23.6640   11.8200 C.3   117  ASP117      0.1805
    100  C        -11.4870  -23.4900   12.6100 C.2   117  ASP117      0.2597
    101  O        -10.4440  -24.0190   12.2000 O.2   117  ASP117     -0.2718
    102  CB       -12.8320  -22.6680   10.6620 C.3   117  ASP117      0.1424
    103  CG       -13.0290  -21.2520   11.1320 C.2   117  ASP117      0.3668
    104  OD1      -14.1730  -20.9400   11.5290 O.co2 117  ASP117     -0.2456
    105  OD2      -12.0730  -20.4680   11.1140 O.co2 117  ASP117     -0.2456
    106  N        -11.5320  -22.7550   13.7320 N.am  118  ASP118     -0.1974
    107  CA       -10.3130  -22.5140   14.5010 C.3   118  ASP118      0.1709
    108  C         -9.6760  -23.8070   14.9790 C.2   118  ASP118      0.2293
    109  O         -8.4510  -23.8790   15.1000 O.2   118  ASP118     -0.2864
    110  CB       -10.6110  -21.6080   15.6910 C.3   118  ASP118      0.1436
    111  CG       -10.8040  -20.1700   15.2810 C.2   118  ASP118      0.3671
    112  OD1      -11.5770  -19.9140   14.3360 O.co2 118  ASP118     -0.2456
    113  OD2      -10.1420  -19.2890   15.8840 O.co2 118  ASP118     -0.2456
    114  N         -7.0900  -24.7290   12.1220 N.3   121  TRP121     -0.1241
    115  CA        -5.9240  -23.9210   11.7790 C.3   121  TRP121      0.1605
    116  C         -5.1960  -23.3190   12.9710 C.2   121  TRP121      0.2264
    117  O         -4.0090  -23.0060   12.8410 O.2   121  TRP121     -0.2867
    118  CB        -6.2530  -22.8320   10.7380 C.3   121  TRP121      0.0550
    119  CG        -7.3130  -21.8480   11.1560 C.ar  121  TRP121      0.0003
    120  CD1       -8.6350  -21.9040   10.8460 C.ar  121  TRP121      0.0946
    121  CD2       -7.1340  -20.6620   11.9510 C.ar  121  TRP121      0.0152
    122  NE1       -9.3000  -20.8270   11.3920 N.ar  121  TRP121     -0.2442
    123  CE2       -8.4010  -20.0510   12.0770 C.ar  121  TRP121      0.0810
    124  CE3       -6.0290  -20.0580   12.5610 C.ar  121  TRP121      0.0012
    125  CZ2       -8.5970  -18.8600   12.7800 C.ar  121  TRP121      0.0191
    126  CZ3       -6.2220  -18.8800   13.2700 C.ar  121  TRP121      0.0001
    127  CH2       -7.4980  -18.2930   13.3730 C.ar  121  TRP121      0.0015
    128  N        -19.4780  -23.0970    5.1490 N.3   137  PHE137     -0.1241
    129  CA       -20.3350  -23.1540    6.3190 C.3   137  PHE137      0.1605
    130  C        -21.7960  -23.1860    5.8940 C.2   137  PHE137      0.2264
    131  O        -22.1960  -22.5660    4.9000 O.2   137  PHE137     -0.2867
    132  CB       -20.1600  -21.8870    7.1620 C.3   137  PHE137      0.0534
    133  CG       -19.0780  -21.9720    8.1970 C.ar  137  PHE137     -0.0203
    134  CD1      -17.7570  -21.7500    7.8660 C.ar  137  PHE137     -0.0042
    135  CD2      -19.3920  -22.2680    9.5110 C.ar  137  PHE137     -0.0042
    136  CE1      -16.7630  -21.8200    8.8300 C.ar  137  PHE137     -0.0003
    137  CE2      -18.4000  -22.3360   10.4880 C.ar  137  PHE137     -0.0003
    138  CZ       -17.0880  -22.1110   10.1410 C.ar  137  PHE137     -0.0000
@<TRIPOS>BOND
     1    61    60    2
     2    69    70    1
     3    50    49    2
     4    71    70    1
     5    71    72    2
     6    60    59    1
     7    70    73    1
     8    49    48    1
     9    58    59    1
    10    47    48    1
    11    59    62    1
    12    48    51    1
    13    77    78    1
    14    73    74    1
    15     1     2    1
    16    74    75    1
    17     9     7   ar
    18     9    11   ar
    19    62    63    1
    20   131   130    2
    21     7     6   ar
    22   128   129    1
    23    51    52    1
    24    12    11    1
    25    80    79    2
    26    78    79    1
    27    78    81    1
    28    11    10   ar
    29    64    63   ar
    30    64    66   ar
    31     4     3    2
    32   130   129    1
    33    63    65   ar
    34     2     3    1
    35     2     5    1
    36     6     5    1
    37     6     8   ar
    38    76    75    1
    39   129   132    1
    40    52    54   ar
    41    52    53   ar
    42     3    13   am
    43    83    81    1
    44    81    82    1
    45    54    56   ar
    46    10     8   ar
    47    66    68   ar
    48    65    67   ar
    49    53    55   ar
    50   132   133    1
    51    19    17    1
    52    13    14    1
    53    56    57   ar
    54   134   133   ar
    55   134   136   ar
    56    68    67   ar
    57    55    57   ar
    58   133   135   ar
    59    46    45    2
    60    14    17    1
    61    14    15    1
    62   136   138   ar
    63    17    18    1
    64    45    44    1
    65   135   137   ar
    66    38    37   ar
    67    38    36   ar
    68    37    35   ar
    69    15    16    2
    70    15    20   am
    71   138   137   ar
    72    36    34   ar
    73    44    43    1
    74    20    21    1
    75    35    33   ar
    76   102   103    1
    77   102    99    1
    78   118   119    1
    79   118   115    1
    80   120   119   ar
    81   120   122   ar
    82    34    33   ar
    83    43    41   am
    84    33    32    1
    85   105   103   ar
    86   103   104   ar
    87   119   121   ar
    88    24    21    1
    89    24    25    1
    90   122   123   ar
    91    21    22    1
    92    23    22    2
    93   115   114    1
    94   115   116    1
    95    99   100    1
    96    99    98    1
    97    96    97   ar
    98    96    94   ar
    99    32    29    1
   100   121   123   ar
   101   121   124   ar
   102    97    95   ar
   103   123   125   ar
   104    27    25    1
   105   101   100    2
   106    41    40    1
   107    41    42    2
   108    94    91   ar
   109   124   126   ar
   110    25    26    1
   111   100   106   am
   112   125   127   ar
   113    95    93   ar
   114    40    39    1
   115   117   116    2
   116    29    28    1
   117    29    30    1
   118   126   127   ar
   119    91    93   ar
   120    91    89   ar
   121    93    92   ar
   122   106   107    1
   123    89    88    1
   124    89    90   ar
   125    30    31    2
   126   112   111   ar
   127    92    90   ar
   128    88    85    1
   129   107   108    1
   130   107   110    1
   131   108   109    2
   132    86    85    1
   133    86    87    2
   134   111   110    1
   135   111   113   ar
   136    85    84    1
