@<TRIPOS>MOLECULE
tmp/6glrB00.pdb
 123 121 0 0 0
SMALL
GASTEIGER

@<TRIPOS>ATOM
      1  N         12.9570    8.3160  -18.0600 N.3     9  TYR9       -0.1241
      2  CA        14.1300    9.1510  -18.2930 C.3     9  TYR9        0.1605
      3  C         15.3660    8.2690  -18.3920 C.2     9  TYR9        0.2264
      4  O         15.3940    7.1530  -17.8750 O.2     9  TYR9       -0.2867
      5  CB        14.3720   10.1540  -17.1540 C.3     9  TYR9        0.0534
      6  CG        13.4020   11.2930  -17.0480 C.ar    9  TYR9       -0.0201
      7  CD1       12.1180   11.0910  -16.5750 C.ar    9  TYR9       -0.0009
      8  CD2       13.7880   12.5800  -17.3830 C.ar    9  TYR9       -0.0009
      9  CE1       11.2380   12.1420  -16.4610 C.ar    9  TYR9        0.0417
     10  CE2       12.9170   13.6390  -17.2710 C.ar    9  TYR9        0.0417
     11  CZ        11.6380   13.4090  -16.8090 C.ar    9  TYR9        0.1957
     12  OH        10.7560   14.4600  -16.6950 O.3     9  TYR9       -0.2866
     13  N         19.8350    8.6020  -17.9360 N.3    11  LEU11      -0.1245
     14  CA        20.9070    9.4000  -17.3510 C.3    11  LEU11       0.1561
     15  C         22.2130    8.6810  -17.6560 C.2    11  LEU11       0.2260
     16  O         22.3360    7.4900  -17.3610 O.2    11  LEU11      -0.2867
     17  CB        20.7060    9.5680  -15.8390 C.3    11  LEU11       0.0270
     18  CG        21.7350   10.3940  -15.0780 C.3    11  LEU11       0.0019
     19  CD1       21.7150   11.8430  -15.5720 C.3    11  LEU11       0.0001
     20  CD2       21.4530   10.3200  -13.5870 C.3    11  LEU11       0.0001
     21  N         14.7380   22.1450  -15.5380 N.3    29  PHE29      -0.1241
     22  CA        14.7120   21.4260  -14.2700 C.3    29  PHE29       0.1605
     23  C         16.1330   21.0510  -13.8580 C.2    29  PHE29       0.2264
     24  O         16.8140   20.2930  -14.5580 O.2    29  PHE29      -0.2867
     25  CB        13.8170   20.1440  -14.4020 C.3    29  PHE29       0.0534
     26  CG        12.3300   20.2620  -14.2350 C.ar   29  PHE29      -0.0203
     27  CD1       11.7990   21.4700  -14.1140 C.ar   29  PHE29      -0.0042
     28  CD2       11.5060   19.1700  -14.2970 C.ar   29  PHE29      -0.0042
     29  CE1       10.3950   21.6490  -13.9660 C.ar   29  PHE29      -0.0003
     30  CE2       10.1030   19.3500  -14.1990 C.ar   29  PHE29      -0.0003
     31  CZ         9.5830   20.5640  -14.0030 C.ar   29  PHE29      -0.0000
     32  N         12.1910    8.9030   -8.7240 N.3    74  PHE74      -0.1241
     33  CA        12.0560   10.1500   -7.9810 C.3    74  PHE74       0.1605
     34  C         10.5860   10.5000   -7.8350 C.2    74  PHE74       0.2264
     35  O          9.8240   10.4410   -8.8040 O.2    74  PHE74      -0.2867
     36  CB        12.8100   11.3090   -8.6560 C.3    74  PHE74       0.0534
     37  CG        14.3010   11.0980   -8.7010 C.ar   74  PHE74      -0.0203
     38  CD1       15.0630   11.2140   -7.5420 C.ar   74  PHE74      -0.0042
     39  CD2       14.9360   10.7860   -9.8910 C.ar   74  PHE74      -0.0042
     40  CE1       16.4350   11.0070   -7.5800 C.ar   74  PHE74      -0.0003
     41  CE2       16.3130   10.5820   -9.9370 C.ar   74  PHE74      -0.0003
     42  CZ        17.0600   10.6920   -8.7820 C.ar   74  PHE74      -0.0000
     43  N          8.2280   13.6460   -6.2000 N.3    76  PHE76      -0.1241
     44  CA         8.2690   15.0140   -5.7090 C.3    76  PHE76       0.1605
     45  C          6.9320   15.3820   -5.0870 C.2    76  PHE76       0.2264
     46  O          5.8830   15.1890   -5.7050 O.2    76  PHE76      -0.2867
     47  CB         8.6200   15.9840   -6.8440 C.3    76  PHE76       0.0534
     48  CG        10.0440   15.8640   -7.3080 C.ar   76  PHE76      -0.0203
     49  CD1       10.3890   14.9640   -8.3050 C.ar   76  PHE76      -0.0042
     50  CD2       11.0450   16.6350   -6.7270 C.ar   76  PHE76      -0.0042
     51  CE1       11.7070   14.8450   -8.7220 C.ar   76  PHE76      -0.0003
     52  CE2       12.3660   16.5140   -7.1390 C.ar   76  PHE76      -0.0003
     53  CZ        12.6880   15.6180   -8.1330 C.ar   76  PHE76      -0.0000
     54  N          9.3350   10.1830  -11.6860 N.3    83  MET83      -0.1245
     55  CA        10.3770   10.0610  -12.7020 C.3    83  MET83       0.1570
     56  C         11.0630    8.7180  -12.5160 C.2    83  MET83       0.2261
     57  O         11.5440    8.4120  -11.4160 O.2    83  MET83      -0.2867
     58  CB        11.4040   11.1880  -12.6140 C.3    83  MET83       0.0387
     59  CG        10.7710   12.5550  -12.7460 C.3    83  MET83       0.0595
     60  SD        12.0430   13.8240  -12.6410 S.3    83  MET83      -0.1393
     61  CE        11.0190   15.2700  -12.3470 C.3    83  MET83       0.0692
     62  N         14.1620    6.8760  -13.7220 N.3    85  VAL85      -0.1245
     63  CA        15.4220    7.2160  -14.3830 C.3    85  VAL85       0.1561
     64  C         16.2650    5.9560  -14.5160 C.2    85  VAL85       0.2260
     65  O         16.6450    5.3430  -13.5130 O.2    85  VAL85      -0.2867
     66  CB        16.1860    8.3060  -13.6150 C.3    85  VAL85       0.0252
     67  CG1       17.4900    8.6550  -14.3470 C.3    85  VAL85       0.0019
     68  CG2       15.3200    9.5560  -13.4440 C.3    85  VAL85       0.0019
     69  N         22.6170   17.2260   -7.4040 N.3   119  TRP119     -0.1241
     70  CA        21.3870   16.8200   -6.7380 C.3   119  TRP119      0.1605
     71  C         21.7150   16.0850   -5.4380 C.2   119  TRP119      0.2264
     72  O         22.6440   15.2630   -5.4030 O.2   119  TRP119     -0.2867
     73  CB        20.5540   15.9180   -7.6490 C.3   119  TRP119      0.0550
     74  CG        19.7250   16.6830   -8.6350 C.ar  119  TRP119      0.0003
     75  CD1       20.1120   17.1030   -9.8730 C.ar  119  TRP119      0.0946
     76  CD2       18.3640   17.1090   -8.4720 C.ar  119  TRP119      0.0152
     77  NE1       19.0800   17.7690  -10.4920 N.ar  119  TRP119     -0.2442
     78  CE2       17.9950   17.7820   -9.6540 C.ar  119  TRP119      0.0810
     79  CE3       17.4220   16.9800   -7.4420 C.ar  119  TRP119      0.0012
     80  CZ2       16.7230   18.3340   -9.8370 C.ar  119  TRP119      0.0191
     81  CZ3       16.1600   17.5260   -7.6260 C.ar  119  TRP119      0.0001
     82  CH2       15.8240   18.1930   -8.8120 C.ar  119  TRP119      0.0015
     83  N         20.5160   13.5830   -3.8960 N.3   121  ASP121     -0.1225
     84  CA        20.4890   12.1210   -3.9130 C.3   121  ASP121      0.1805
     85  C         21.8030   11.5240   -4.4020 C.2   121  ASP121      0.2597
     86  O         22.1090   10.3680   -4.0780 O.2   121  ASP121     -0.2718
     87  CB        19.3400   11.6200   -4.7850 C.3   121  ASP121      0.1424
     88  CG        19.3500   12.2380   -6.1650 C.2   121  ASP121      0.3668
     89  OD1       18.9360   13.4100   -6.2870 O.co2 121  ASP121     -0.2456
     90  OD2       19.7820   11.5670   -7.1210 O.co2 121  ASP121     -0.2456
     91  N         22.5690   12.2640   -5.2120 N.am  122  ASP122     -0.1974
     92  CA        23.8100   11.7030   -5.7450 C.3   122  ASP122      0.1709
     93  C         24.7530   11.2600   -4.6330 C.2   122  ASP122      0.2293
     94  O         25.4790   10.2710   -4.7990 O.2   122  ASP122     -0.2864
     95  CB        24.5180   12.7090   -6.6520 C.3   122  ASP122      0.1436
     96  CG        23.8200   12.8720   -7.9940 C.2   122  ASP122      0.3671
     97  OD1       22.6670   12.4440   -8.1220 O.co2 122  ASP122     -0.2456
     98  OD2       24.4040   13.4740   -8.9080 O.co2 122  ASP122     -0.2456
     99  N         23.7710    7.4520   -3.8740 N.3   125  TRP125     -0.1241
    100  CA        23.9260    6.3670   -4.8420 C.3   125  TRP125      0.1605
    101  C         25.1790    6.4620   -5.6990 C.2   125  TRP125      0.2264
    102  O         25.6380    5.4370   -6.2150 O.2   125  TRP125     -0.2867
    103  CB        22.7040    6.2750   -5.7680 C.3   125  TRP125      0.0550
    104  CG        22.4420    7.4770   -6.6330 C.ar  125  TRP125      0.0003
    105  CD1       21.5920    8.5110   -6.3540 C.ar  125  TRP125      0.0946
    106  CD2       22.9760    7.7370   -7.9380 C.ar  125  TRP125      0.0152
    107  NE1       21.5840    9.4080   -7.3930 N.ar  125  TRP125     -0.2442
    108  CE2       22.4240    8.9590   -8.3780 C.ar  125  TRP125      0.0810
    109  CE3       23.8670    7.0560   -8.7760 C.ar  125  TRP125      0.0012
    110  CZ2       22.7410    9.5180   -9.6140 C.ar  125  TRP125      0.0191
    111  CZ3       24.1810    7.6130  -10.0050 C.ar  125  TRP125      0.0001
    112  CH2       23.6200    8.8340  -10.4110 C.ar  125  TRP125      0.0015
    113  N         11.2860   13.6030   -2.6250 N.3   141  PHE141     -0.1241
    114  CA        11.7670   14.9700   -2.4950 C.3   141  PHE141      0.1605
    115  C         10.6340   15.9120   -2.1150 C.2   141  PHE141      0.2264
    116  O          9.5050   15.7770   -2.6070 O.2   141  PHE141     -0.2867
    117  CB        12.3350   15.4710   -3.8240 C.3   141  PHE141      0.0534
    118  CG        13.8030   15.1970   -4.0240 C.ar  141  PHE141     -0.0203
    119  CD1       14.2290   13.9880   -4.5440 C.ar  141  PHE141     -0.0042
    120  CD2       14.7470   16.1680   -3.7300 C.ar  141  PHE141     -0.0042
    121  CE1       15.5830   13.7490   -4.7530 C.ar  141  PHE141     -0.0003
    122  CE2       16.0980   15.9390   -3.9380 C.ar  141  PHE141     -0.0003
    123  CZ        16.5160   14.7170   -4.4490 C.ar  141  PHE141     -0.0000
@<TRIPOS>BOND
     1     3     2    1
     2     3     4    2
     3     2     1    1
     4     2     5    1
     5    13    14    1
     6    15    16    2
     7    15    14    1
     8     8    10   ar
     9     8     6   ar
    10    14    17    1
    11    10    11   ar
    12     5     6    1
    13     6     7   ar
    14    11    12    1
    15    11     9   ar
    16     7     9   ar
    17    17    18    1
    18    19    18    1
    19    21    22    1
    20    18    20    1
    21    24    23    2
    22    64    63    1
    23    64    65    2
    24    25    22    1
    25    25    26    1
    26    63    62    1
    27    63    66    1
    28    67    66    1
    29    28    26   ar
    30    28    30   ar
    31    22    23    1
    32    26    27   ar
    33    30    31   ar
    34    27    29   ar
    35    31    29   ar
    36    66    68    1
    37    59    60    1
    38    59    58    1
    39    55    58    1
    40    55    56    1
    41    55    54    1
    42    60    61    1
    43    56    57    2
    44    77    75   ar
    45    77    78   ar
    46   112   111   ar
    47   112   110   ar
    48   111   109   ar
    49    41    39   ar
    50    41    42   ar
    51    39    37   ar
    52    75    74   ar
    53    80    78   ar
    54    80    82   ar
    55    78    76   ar
    56   110   108   ar
    57    98    96   ar
    58    82    81   ar
    59    35    34    2
    60    42    40   ar
    61   109   106   ar
    62    32    33    1
    63    51    49   ar
    64    51    53   ar
    65    37    36    1
    66    37    38   ar
    67    36    33    1
    68    74    76   ar
    69    74    73    1
    70    76    79   ar
    71   108   106   ar
    72   108   107   ar
    73    49    48   ar
    74    53    52   ar
    75    97    96   ar
    76    96    95    1
    77    33    34    1
    78   106   104   ar
    79    73    70    1
    80    81    79   ar
    81    40    38   ar
    82    69    70    1
    83   107   105   ar
    84    48    47    1
    85    48    50   ar
    86    52    50   ar
    87    90    88   ar
    88    47    44    1
    89    70    71    1
    90    95    92    1
    91   104   105   ar
    92   104   103    1
    93    89    88   ar
    94   102   101    2
    95    43    44    1
    96    88    87    1
    97   103   100    1
    98    92    91    1
    99    92    93    1
   100    44    45    1
   101    46    45    2
   102   101   100    1
   103    71    72    2
   104    91    85   am
   105   100    99    1
   106    94    93    2
   107    87    84    1
   108   121   119   ar
   109   121   123   ar
   110   119   118   ar
   111   123   122   ar
   112    85    86    2
   113    85    84    1
   114   118   117    1
   115   118   120   ar
   116   122   120   ar
   117    84    83    1
   118   117   114    1
   119   113   114    1
   120   116   115    2
   121   114   115    1
