@<TRIPOS>MOLECULE
tmp/6glsA01.pdb
 99 95 0 0 0
SMALL
GASTEIGER

@<TRIPOS>ATOM
      1  N          1.8630    2.7180  -15.6160 N.3     7  ARG7       -0.1245
      2  CA         1.5660    2.1260  -14.3230 C.3     7  ARG7        0.1563
      3  C          2.2690    0.7790  -14.2020 C.2     7  ARG7        0.2260
      4  O          2.2680   -0.0140  -15.1460 O.2     7  ARG7       -0.2867
      5  CB         0.0620    1.9430  -14.1520 C.3     7  ARG7        0.0307
      6  CG        -0.3530    1.5870  -12.7380 C.3     7  ARG7        0.0489
      7  CD        -0.1950    2.7950  -11.8190 C.3     7  ARG7        0.2205
      8  NE        -0.8980    2.6400  -10.5470 N.pl3   7  ARG7       -0.0865
      9  CZ        -2.1750    2.9610  -10.3490 C.cat   7  ARG7        0.5346
     10  NH1       -2.9060    3.4530  -11.3410 N.pl3   7  ARG7        0.1354
     11  NH2       -2.7270    2.7850   -9.1560 N.pl3   7  ARG7        0.1354
     12  N          2.9160   -2.9710  -13.1110 N.3     9  TYR9       -0.1241
     13  CA         2.1340   -4.1770  -12.8850 C.3     9  TYR9        0.1605
     14  C          3.0580   -5.3790  -12.7740 C.2     9  TYR9        0.2264
     15  O          4.1820   -5.3750  -13.2770 O.2     9  TYR9       -0.2867
     16  CB         1.1730   -4.4580  -14.0440 C.3     9  TYR9        0.0534
     17  CG        -0.0460   -3.6030  -14.1040 C.ar    9  TYR9       -0.0201
     18  CD1       -0.0110   -2.3470  -14.6930 C.ar    9  TYR9       -0.0009
     19  CD2       -1.2470   -4.0690  -13.6050 C.ar    9  TYR9       -0.0009
     20  CE1       -1.1500   -1.5650  -14.7490 C.ar    9  TYR9        0.0417
     21  CE2       -2.3870   -3.2980  -13.6620 C.ar    9  TYR9        0.0417
     22  CZ        -2.3320   -2.0570  -14.2290 C.ar    9  TYR9        0.1957
     23  OH        -3.4820   -1.3010  -14.2790 O.3     9  TYR9       -0.2866
     24  N        -11.8630   -5.4710  -17.1220 N.3    29  PHE29      -0.1241
     25  CA       -10.9630   -5.4640  -18.2650 C.3    29  PHE29       0.1605
     26  C        -10.3680   -6.8500  -18.4640 C.2    29  PHE29       0.2264
     27  O         -9.7770   -7.4200  -17.5430 O.2    29  PHE29      -0.2867
     28  CB        -9.8620   -4.4270  -18.0470 C.3    29  PHE29       0.0534
     29  CG        -9.1730   -3.9860  -19.3110 C.ar   29  PHE29      -0.0203
     30  CD1       -9.8970   -3.4610  -20.3690 C.ar   29  PHE29      -0.0042
     31  CD2       -7.7960   -4.0890  -19.4280 C.ar   29  PHE29      -0.0042
     32  CE1       -9.2600   -3.0490  -21.5310 C.ar   29  PHE29      -0.0003
     33  CE2       -7.1520   -3.6770  -20.5840 C.ar   29  PHE29      -0.0003
     34  CZ        -7.8860   -3.1570  -21.6360 C.ar   29  PHE29      -0.0000
     35  N         -1.5890   -4.3470   -9.9750 N.3    40  LYS40      -0.1245
     36  CA        -0.7740   -3.1560   -9.7690 C.3    40  LYS40       0.1561
     37  C          0.1690   -3.3230   -8.5900 C.2    40  LYS40       0.2260
     38  O         -0.2190   -3.8180   -7.5290 O.2    40  LYS40      -0.2867
     39  CB        -1.6630   -1.9350   -9.5290 C.3    40  LYS40       0.0271
     40  CG        -2.6310   -1.6100  -10.6470 C.3    40  LYS40       0.0035
     41  CD        -3.4420   -0.3620  -10.3100 C.3    40  LYS40       0.0206
     42  CE        -4.7640   -0.3510  -11.0500 C.3    40  LYS40       0.1093
     43  NZ        -5.6760   -1.3980  -10.5050 N.3    40  LYS40      -0.1314
     44  N          2.1500   -2.4700  -22.4370 N.3    74  PHE74      -0.1241
     45  CA         0.8980   -2.4600  -23.1800 C.3    74  PHE74       0.1605
     46  C          0.3790   -1.0440  -23.3250 C.2    74  PHE74       0.2264
     47  O          0.3660   -0.2720  -22.3600 O.2    74  PHE74      -0.2867
     48  CB        -0.1790   -3.2920  -22.4900 C.3    74  PHE74       0.0534
     49  CG         0.1460   -4.7540  -22.4220 C.ar   74  PHE74      -0.0203
     50  CD1        0.1700   -5.5110  -23.5740 C.ar   74  PHE74      -0.0042
     51  CD2        0.4640   -5.3540  -21.2190 C.ar   74  PHE74      -0.0042
     52  CE1        0.4860   -6.8500  -23.5270 C.ar   74  PHE74      -0.0003
     53  CE2        0.7800   -6.7090  -21.1610 C.ar   74  PHE74      -0.0003
     54  CZ         0.7880   -7.4540  -22.3160 C.ar   74  PHE74      -0.0000
     55  N         -3.1020    0.9900  -25.0000 N.3    76  PHE76      -0.1241
     56  CA        -4.4350    0.8770  -25.5700 C.3    76  PHE76       0.1605
     57  C         -4.8200    2.1980  -26.2060 C.2    76  PHE76       0.2264
     58  O         -4.7350    3.2510  -25.5600 O.2    76  PHE76      -0.2867
     59  CB        -5.4370    0.4690  -24.4960 C.3    76  PHE76       0.0534
     60  CG        -5.1960   -0.9210  -23.9950 C.ar   76  PHE76      -0.0203
     61  CD1       -5.7640   -2.0030  -24.6500 C.ar   76  PHE76      -0.0042
     62  CD2       -4.3400   -1.1580  -22.9320 C.ar   76  PHE76      -0.0042
     63  CE1       -5.5150   -3.3030  -24.2230 C.ar   76  PHE76      -0.0003
     64  CE2       -4.0870   -2.4710  -22.5090 C.ar   76  PHE76      -0.0003
     65  CZ        -4.6780   -3.5310  -23.1690 C.ar   76  PHE76      -0.0000
     66  N         -6.1640    5.6730  -24.5120 N.3    79  GLU79      -0.1245
     67  CA        -5.7470    5.7920  -23.1130 C.3    79  GLU79       0.1567
     68  C         -4.2650    6.1360  -23.1110 C.2    79  GLU79       0.2260
     69  O         -3.4410    5.3180  -23.5760 O.2    79  GLU79      -0.2867
     70  CB        -6.0240    4.4980  -22.3470 C.3    79  GLU79       0.0388
     71  CG        -5.3760    4.4200  -20.9600 C.3    79  GLU79       0.1160
     72  CD        -5.5700    5.6790  -20.1430 C.2    79  GLU79       0.3649
     73  OE1       -4.5700    6.3160  -19.7700 O.co2  79  GLU79      -0.2457
     74  OE2       -6.7240    6.0500  -19.8490 O.co2  79  GLU79      -0.2457
     75  N         -2.0120    6.4170  -20.6970 N.3    81  GLU81      -0.1231
     76  CA        -1.1660    5.7460  -19.7180 C.3    81  GLU81       0.1699
     77  C         -0.9260    4.3020  -20.1330 C.2    81  GLU81       0.2592
     78  O         -1.8760    3.5850  -20.4760 O.2    81  GLU81      -0.2718
     79  CB        -1.8140    5.7870  -18.3400 C.3    81  GLU81       0.0402
     80  CG        -0.9130    5.2770  -17.2340 C.3    81  GLU81       0.1161
     81  CD        -1.5170    5.4670  -15.8560 C.2    81  GLU81       0.3649
     82  OE1       -2.0780    6.5370  -15.5950 O.co2  81  GLU81      -0.2457
     83  OE2       -1.4350    4.5390  -15.0380 O.co2  81  GLU81      -0.2457
     84  N          0.3360    3.8760  -20.0820 N.am   82  LEU82      -0.1966
     85  CA         0.7290    2.5250  -20.4610 C.3    82  LEU82       0.1728
     86  C          0.7320    1.5990  -19.2490 C.2    82  LEU82       0.2616
     87  O          0.7750    2.0380  -18.0980 O.2    82  LEU82      -0.2715
     88  CB         2.1230    2.5300  -21.0940 C.3    82  LEU82       0.0311
     89  CG         2.4100    3.6410  -22.1020 C.3    82  LEU82       0.0022
     90  CD1        3.8010    3.4900  -22.6960 C.3    82  LEU82       0.0001
     91  CD2        1.3800    3.6370  -23.1900 C.3    82  LEU82       0.0001
     92  N          0.6930    0.2910  -19.5180 N.am   83  MET83      -0.1977
     93  CA         0.8890   -0.7240  -18.4900 C.3    83  MET83       0.1605
     94  C          2.2970   -1.2850  -18.6400 C.2    83  MET83       0.2287
     95  O          2.6460   -1.8080  -19.6980 O.2    83  MET83      -0.2864
     96  CB        -0.1480   -1.8410  -18.6080 C.3    83  MET83       0.0413
     97  CG        -1.5760   -1.3440  -18.7220 C.3    83  MET83       0.0598
     98  SD        -2.8180   -2.6410  -18.5510 S.3    83  MET83      -0.1393
     99  CE        -2.3700   -3.7000  -19.9070 C.3    83  MET83       0.0692
@<TRIPOS>BOND
     1    57    56    1
     2    57    58    2
     3    56    55    1
     4    56    59    1
     5    61    63   ar
     6    61    60   ar
     7    66    67    1
     8    59    60    1
     9    63    65   ar
    10    60    62   ar
    11    69    68    2
    12    50    52   ar
    13    50    49   ar
    14    52    54   ar
    15    46    45    1
    16    46    47    2
    17    91    89    1
    18    45    48    1
    19    45    44    1
    20    65    64   ar
    21    67    68    1
    22    67    70    1
    23    62    64   ar
    24    90    89    1
    25    48    49    1
    26    49    51   ar
    27    70    71    1
    28    54    53   ar
    29    89    88    1
    30    34    32   ar
    31    34    33   ar
    32    32    30   ar
    33    51    53   ar
    34    88    85    1
    35    71    72    1
    36    75    76    1
    37    33    31   ar
    38    78    77    2
    39    85    84    1
    40    85    86    1
    41    30    29   ar
    42    72    74   ar
    43    72    73   ar
    44    77    84   am
    45    77    76    1
    46    99    98    1
    47    76    79    1
    48    95    94    2
    49    92    86   am
    50    92    93    1
    51    31    29   ar
    52    29    28    1
    53    86    87    2
    54    97    96    1
    55    97    98    1
    56    94    93    1
    57    96    93    1
    58    26    25    1
    59    26    27    2
    60    79    80    1
    61    25    28    1
    62    25    24    1
    63    80    81    1
    64    81    82   ar
    65    81    83   ar
    66     1     2    1
    67     4     3    2
    68    20    18   ar
    69    20    22   ar
    70    18    17   ar
    71     2     3    1
    72     2     5    1
    73    23    22    1
    74    22    21   ar
    75     5     6    1
    76    17    16    1
    77    17    19   ar
    78    16    13    1
    79    21    19   ar
    80    15    14    2
    81    12    13    1
    82    13    14    1
    83     6     7    1
    84     7     8    1
    85    10     9    1
    86    42    43    1
    87    42    41    1
    88    40    41    1
    89    40    39    1
    90     8     9    2
    91     9    11    1
    92    35    36    1
    93    36    39    1
    94    36    37    1
    95    37    38    2
