@<TRIPOS>MOLECULE
tmp/6gmbA00.pdb
 215 207 0 0 0
SMALL
GASTEIGER

@<TRIPOS>ATOM
      1  N          4.6140   25.1300  -42.1880 N.3    26  TYR26      -0.1227
      2  CA         4.6700   26.0730  -43.2970 C.3    26  TYR26       0.1736
      3  C          5.6790   25.5930  -44.3450 C.2    26  TYR26       0.2595
      4  O          5.4010   25.6020  -45.5460 O.2    26  TYR26      -0.2718
      5  CB         5.0230   27.4850  -42.8240 C.3    26  TYR26       0.0548
      6  CG         5.4600   28.3740  -43.9550 C.ar   26  TYR26      -0.0200
      7  CD1        4.5430   28.8560  -44.8750 C.ar   26  TYR26      -0.0009
      8  CD2        6.7990   28.6250  -44.1880 C.ar   26  TYR26      -0.0009
      9  CE1        4.9440   29.5970  -45.9730 C.ar   26  TYR26       0.0417
     10  CE2        7.2150   29.3800  -45.2700 C.ar   26  TYR26       0.0417
     11  CZ         6.2850   29.8680  -46.1660 C.ar   26  TYR26       0.1957
     12  OH         6.7030   30.5710  -47.2580 O.3    26  TYR26      -0.2866
     13  N          6.8680   25.1930  -43.8860 N.am   27  TYR27      -0.1976
     14  CA         7.9270   24.7790  -44.7960 C.3    27  TYR27       0.1639
     15  C          7.6060   23.4310  -45.4630 C.2    27  TYR27       0.2290
     16  O          7.8800   23.2470  -46.6480 O.2    27  TYR27      -0.2864
     17  CB         9.2470   24.6930  -44.0360 C.3    27  TYR27       0.0560
     18  CG         9.8820   25.9980  -43.6150 C.ar   27  TYR27      -0.0198
     19  CD1       10.0370   27.0630  -44.4880 C.ar   27  TYR27      -0.0009
     20  CD2       10.4300   26.1260  -42.3440 C.ar   27  TYR27      -0.0009
     21  CE1       10.6850   28.2340  -44.0990 C.ar   27  TYR27       0.0417
     22  CE2       11.0890   27.2730  -41.9430 C.ar   27  TYR27       0.0417
     23  CZ        11.2110   28.3330  -42.8210 C.ar   27  TYR27       0.1957
     24  OH        11.8970   29.4410  -42.4110 O.3    27  TYR27      -0.2866
     25  N          5.9820   14.2810  -56.4300 N.3    40  ASN40      -0.1240
     26  CA         7.2680   14.8780  -56.8070 C.3    40  ASN40       0.1653
     27  C          8.4130   13.9420  -56.4190 C.2    40  ASN40       0.2266
     28  O          9.4120   13.8770  -57.1200 O.2    40  ASN40      -0.2867
     29  CB         7.4960   16.2550  -56.1820 C.3    40  ASN40       0.1155
     30  CG         6.8700   17.3950  -56.9530 C.2    40  ASN40       0.2627
     31  OD1        6.4000   17.2140  -58.0760 O.2    40  ASN40      -0.2716
     32  ND2        6.8770   18.5790  -56.3550 N.am   40  ASN40      -0.0877
     33  N         17.0530   27.0800  -54.5940 N.3    78  GLY78      -0.1210
     34  CA        15.8190   27.7090  -55.0420 C.3    78  GLY78       0.1956
     35  C         15.2690   28.6740  -54.0040 C.2    78  GLY78       0.2612
     36  O         15.5980   28.6010  -52.8190 O.2    78  GLY78      -0.2717
     37  N         14.3870   29.5650  -54.4560 N.am   79  ALA79      -0.1965
     38  CA        13.7660   30.5610  -53.5840 C.3    79  ALA79       0.1728
     39  C         12.8570   29.8700  -52.5660 C.2    79  ALA79       0.2617
     40  O         11.9430   29.1340  -52.9300 O.2    79  ALA79      -0.2715
     41  CB        12.9850   31.5540  -54.4080 C.3    79  ALA79       0.0334
     42  N         13.1180   30.1190  -51.2860 N.am   80  THR80      -0.1937
     43  CA        12.2070   29.7320  -50.2230 C.3    80  THR80       0.2028
     44  C         12.0410   30.9320  -49.3010 C.2    80  THR80       0.2642
     45  O         13.0160   31.4450  -48.7820 O.2    80  THR80      -0.2714
     46  CB        12.6930   28.5030  -49.4460 C.3    80  THR80       0.1808
     47  OG1       14.0420   28.6870  -49.0240 O.3    80  THR80      -0.2208
     48  CG2       12.6080   27.2350  -50.2630 C.3    80  THR80       0.0379
     49  N         10.8060   31.3980  -49.1610 N.am   81  ALA81      -0.1977
     50  CA        10.5150   32.6000  -48.4160 C.3    81  ALA81       0.1597
     51  C         10.8970   32.4750  -46.9350 C.2    81  ALA81       0.2287
     52  O         10.8670   31.4130  -46.3410 O.2    81  ALA81      -0.2864
     53  CB         9.0480   32.9090  -48.5540 C.3    81  ALA81       0.0319
     54  N         14.2930   34.7740  -52.7220 N.3   108  SER108     -0.1217
     55  CA        12.8640   35.0540  -52.7050 C.3   108  SER108      0.1889
     56  C         12.5840   36.5550  -52.5950 C.2   108  SER108      0.2288
     57  O         13.2020   37.2470  -51.7900 O.2   108  SER108     -0.2866
     58  CB        12.2210   34.3400  -51.5470 C.3   108  SER108      0.2089
     59  OG        10.8450   34.6810  -51.4170 O.3   108  SER108     -0.2183
     60  N         10.0940   37.3870  -51.0520 N.3   110  TRP110     -0.1241
     61  CA         9.5310   37.3290  -49.6980 C.3   110  TRP110      0.1605
     62  C         10.6020   36.9490  -48.6660 C.2   110  TRP110      0.2264
     63  O         10.2960   36.4040  -47.6090 O.2   110  TRP110     -0.2867
     64  CB         8.3740   36.3300  -49.6570 C.3   110  TRP110      0.0550
     65  CG         7.2280   36.6800  -50.5540 C.ar  110  TRP110      0.0003
     66  CD1        6.9550   37.8830  -51.1340 C.ar  110  TRP110      0.0946
     67  CD2        6.1500   35.8070  -50.9300 C.ar  110  TRP110      0.0152
     68  NE1        5.8030   37.8070  -51.8720 N.ar  110  TRP110     -0.2442
     69  CE2        5.2870   36.5440  -51.7650 C.ar  110  TRP110      0.0810
     70  CE3        5.8550   34.4640  -50.6730 C.ar  110  TRP110      0.0012
     71  CZ2        4.1460   35.9830  -52.3320 C.ar  110  TRP110      0.0191
     72  CZ3        4.7240   33.9140  -51.2340 C.ar  110  TRP110      0.0001
     73  CH2        3.8870   34.6630  -52.0570 C.ar  110  TRP110      0.0015
     74  N         14.3180   35.9060  -57.4300 N.3   130  GLN130     -0.1245
     75  CA        12.9800   35.4320  -57.7480 C.3   130  GLN130      0.1566
     76  C         12.0270   36.6120  -57.5620 C.2   130  GLN130      0.2260
     77  O         12.0310   37.2500  -56.5070 O.2   130  GLN130     -0.2867
     78  CB        12.5730   34.2600  -56.8610 C.3   130  GLN130      0.0367
     79  CG        11.1290   33.8180  -57.0710 C.3   130  GLN130      0.0905
     80  CD        10.0970   34.6260  -56.3140 C.2   130  GLN130      0.2608
     81  OE1        9.0250   34.9710  -56.8350 O.2   130  GLN130     -0.2717
     82  NE2       10.3860   34.8920  -55.0590 N.am  130  GLN130     -0.0878
     83  N          8.1090   38.2240  -57.7950 N.3   132  TYR132     -0.1241
     84  CA         6.6700   38.2550  -57.8880 C.3   132  TYR132      0.1605
     85  C          6.2600   39.6020  -58.4770 C.2   132  TYR132      0.2264
     86  O          6.8650   40.6220  -58.1610 O.2   132  TYR132     -0.2867
     87  CB         6.0200   38.0840  -56.5140 C.3   132  TYR132      0.0534
     88  CG         5.9970   36.6700  -55.9960 C.ar  132  TYR132     -0.0201
     89  CD1        5.2890   35.6880  -56.6690 C.ar  132  TYR132     -0.0009
     90  CD2        6.6770   36.3060  -54.8420 C.ar  132  TYR132     -0.0009
     91  CE1        5.2430   34.3910  -56.2000 C.ar  132  TYR132      0.0417
     92  CE2        6.6450   35.0070  -54.3640 C.ar  132  TYR132      0.0417
     93  CZ         5.9190   34.0490  -55.0460 C.ar  132  TYR132      0.1957
     94  OH         5.8570   32.7560  -54.6140 O.3   132  TYR132     -0.2866
     95  N          8.0710   34.2890  -61.1590 N.3   158  THR158     -0.1218
     96  CA         7.1550   33.2290  -60.7910 C.3   158  THR158      0.1862
     97  C          5.8150   33.4810  -61.4840 C.2   158  THR158      0.2287
     98  O          5.2580   34.5620  -61.3580 O.2   158  THR158     -0.2866
     99  CB         7.0200   33.1330  -59.2720 C.3   158  THR158      0.1770
    100  OG1        8.3320   32.8800  -58.7640 O.3   158  THR158     -0.2211
    101  CG2        6.0660   32.0380  -58.8530 C.3   158  THR158      0.0375
    102  N          9.3860   30.7880  -64.1360 N.3   236  LYS236     -0.1245
    103  CA         9.3580   29.7810  -63.0860 C.3   236  LYS236      0.1561
    104  C          7.9140   29.3440  -62.8280 C.2   236  LYS236      0.2260
    105  O          7.0730   30.1580  -62.4460 O.2   236  LYS236     -0.2867
    106  CB        10.0150   30.3500  -61.8310 C.3   236  LYS236      0.0271
    107  CG         9.9220   29.4720  -60.5950 C.3   236  LYS236      0.0035
    108  CD        10.6730   30.0630  -59.4320 C.3   236  LYS236      0.0206
    109  CE        10.7330   29.1580  -58.2230 C.3   236  LYS236      0.1093
    110  NZ         9.4160   29.0610  -57.5670 N.3   236  LYS236     -0.1314
    111  N          8.4930   23.6410  -62.7310 N.3   258  SER258     -0.1217
    112  CA         8.2320   23.7500  -61.3170 C.3   258  SER258      0.1889
    113  C          6.7260   23.6800  -61.1030 C.2   258  SER258      0.2288
    114  O          5.9750   24.2840  -61.8670 O.2   258  SER258     -0.2866
    115  CB         8.7900   25.0480  -60.7660 C.3   258  SER258      0.2089
    116  OG         8.4890   25.1980  -59.3860 O.3   258  SER258     -0.2183
    117  N          5.9880   24.5870  -57.9500 N.3   260  HIS260     -0.1226
    118  CA         6.0670   25.4140  -56.7430 C.3   260  HIS260      0.1752
    119  C          6.1710   24.5170  -55.5040 C.2   260  HIS260      0.2596
    120  O          5.5560   24.7770  -54.4790 O.2   260  HIS260     -0.2718
    121  CB         4.8700   26.3750  -56.6660 C.3   260  HIS260      0.0759
    122  CG         5.1090   27.6320  -55.9010 C.ar  260  HIS260      0.0818
    123  ND1        4.9880   28.8720  -56.4910 N.ar  260  HIS260     -0.2268
    124  CD2        5.3700   27.8640  -54.5930 C.ar  260  HIS260      0.1154
    125  CE1        5.2030   29.8070  -55.5850 C.ar  260  HIS260      0.1986
    126  NE2        5.4280   29.2190  -54.4140 N.ar  260  HIS260     -0.2212
    127  N          6.9710   23.4520  -55.6060 N.am  261  GLY261     -0.1957
    128  CA         7.1130   22.5190  -54.4870 C.3   261  GLY261      0.1869
    129  C          5.7910   21.8790  -54.1010 C.2   261  GLY261      0.2309
    130  O          5.5850   21.5270  -52.9460 O.2   261  GLY261     -0.2863
    131  N          2.9110   23.3110  -53.9010 N.3   263  ARG263     -0.1245
    132  CA         2.2510   24.2040  -52.9440 C.3   263  ARG263      0.1563
    133  C          1.1480   25.0590  -53.5810 C.2   263  ARG263      0.2260
    134  O          0.4790   25.8130  -52.8550 O.2   263  ARG263     -0.2867
    135  CB         3.2860   25.1200  -52.2820 C.3   263  ARG263      0.0307
    136  CG         4.3060   24.3640  -51.4480 C.3   263  ARG263      0.0489
    137  CD         5.5790   25.1320  -51.1610 C.3   263  ARG263      0.2205
    138  NE         5.3850   26.2460  -50.2500 N.pl3 263  ARG263     -0.0865
    139  CZ         5.5180   26.1660  -48.9290 C.cat 263  ARG263      0.5346
    140  NH1        5.5100   24.9790  -48.3410 N.pl3 263  ARG263      0.1354
    141  NH2        5.6780   27.2680  -48.2070 N.pl3 263  ARG263      0.1354
    142  N         12.7780   21.9720  -60.5120 N.3   291  ASP291     -0.1225
    143  CA        12.7370   21.8280  -59.0710 C.3   291  ASP291      0.1805
    144  C         11.5230   20.9710  -58.7110 C.2   291  ASP291      0.2598
    145  O         10.6840   20.6840  -59.5600 O.2   291  ASP291     -0.2718
    146  CB        12.7860   23.1760  -58.3550 C.3   291  ASP291      0.1424
    147  CG        11.5790   24.0700  -58.4770 C.2   291  ASP291      0.3668
    148  OD1       10.4870   23.5570  -58.7500 O.co2 291  ASP291     -0.2456
    149  OD2       11.7550   25.2800  -58.2580 O.co2 291  ASP291     -0.2456
    150  N         11.4630   20.5570  -57.4450 N.am  292  GLY292     -0.1942
    151  CA        10.3550   19.7690  -56.9290 C.3   292  GLY292      0.2014
    152  C         10.7560   18.3360  -56.6630 C.2   292  GLY292      0.2639
    153  O         10.8440   17.5220  -57.5890 O.2   292  GLY292     -0.2714
    154  N         11.0010   18.0270  -55.3880 N.am  293  GLY293     -0.1939
    155  CA        11.2600   16.6570  -54.9790 C.3   293  GLY293      0.2014
    156  C         12.7140   16.2160  -55.0440 C.2   293  GLY293      0.2639
    157  O         12.9770   15.0450  -54.7980 O.2   293  GLY293     -0.2714
    158  N         13.6580   17.1180  -55.3340 N.am  294  VAL294     -0.1963
    159  CA        15.0660   16.7220  -55.3760 C.3   294  VAL294      0.1727
    160  C         15.5810   16.5600  -53.9460 C.2   294  VAL294      0.2616
    161  O         15.6000   17.5120  -53.1650 O.2   294  VAL294     -0.2715
    162  CB        15.9120   17.7370  -56.1570 C.3   294  VAL294      0.0290
    163  CG1       17.3890   17.3780  -56.0920 C.3   294  VAL294      0.0023
    164  CG2       15.4400   17.8690  -57.5950 C.3   294  VAL294      0.0023
    165  N         15.9870   15.3320  -53.6250 N.am  295  ARG295     -0.1977
    166  CA        16.4430   14.9880  -52.2890 C.3   295  ARG295      0.1597
    167  C         17.7540   14.1990  -52.3070 C.2   295  ARG295      0.2287
    168  O         18.3930   14.0880  -51.2690 O.2   295  ARG295     -0.2864
    169  CB        15.4070   14.1400  -51.5490 C.3   295  ARG295      0.0334
    170  CG        14.0280   14.7660  -51.4260 C.3   295  ARG295      0.0492
    171  CD        13.9770   15.9980  -50.5510 C.3   295  ARG295      0.2205
    172  NE        12.6430   16.5870  -50.5280 N.pl3 295  ARG295     -0.0865
    173  CZ        12.2460   17.6530  -51.2150 C.cat 295  ARG295      0.5346
    174  NH1       13.0740   18.2620  -52.0520 N.pl3 295  ARG295      0.1354
    175  NH2       11.0090   18.1070  -51.0530 N.pl3 295  ARG295      0.1354
    176  N         17.1350   22.9240  -58.8880 N.3   312  PHE312     -0.1227
    177  CA        17.0570   23.7520  -57.7150 C.3   312  PHE312      0.1736
    178  C         16.4450   22.9400  -56.5790 C.2   312  PHE312      0.2595
    179  O         15.5530   22.1090  -56.7960 O.2   312  PHE312     -0.2718
    180  CB        16.2380   25.0180  -57.9840 C.3   312  PHE312      0.0547
    181  CG        16.8790   25.9490  -58.9760 C.ar  312  PHE312     -0.0202
    182  CD1       16.7670   25.7240  -60.3340 C.ar  312  PHE312     -0.0042
    183  CD2       17.6430   27.0220  -58.5510 C.ar  312  PHE312     -0.0042
    184  CE1       17.4040   26.5470  -61.2460 C.ar  312  PHE312     -0.0003
    185  CE2       18.2700   27.8520  -59.4650 C.ar  312  PHE312     -0.0003
    186  CZ        18.1530   27.6090  -60.8080 C.ar  312  PHE312     -0.0000
    187  N         16.9340   23.2100  -55.3690 N.am  313  VAL313     -0.1966
    188  CA        16.4100   22.5890  -54.1640 C.3   313  VAL313      0.1727
    189  C         15.8160   23.6680  -53.2690 C.2   313  VAL313      0.2617
    190  O         16.4020   24.7350  -53.0720 O.2   313  VAL313     -0.2715
    191  CB        17.4490   21.7510  -53.4060 C.3   313  VAL313      0.0290
    192  CG1       17.6990   20.4250  -54.0940 C.3   313  VAL313      0.0023
    193  CG2       18.7270   22.5080  -53.1640 C.3   313  VAL313      0.0023
    194  N         14.6410   23.3440  -52.7270 N.am  314  GLY314     -0.1940
    195  CA        13.9020   24.2340  -51.8500 C.3   314  GLY314      0.2014
    196  C         14.0230   23.8050  -50.4010 C.2   314  GLY314      0.2638
    197  O         14.9090   24.2460  -49.6710 O.2   314  GLY314     -0.2714
    198  N         13.1390   22.8980  -49.9900 N.am  315  ARG315     -0.1977
    199  CA        13.0300   22.5170  -48.5880 C.3   315  ARG315      0.1597
    200  C         14.3470   22.0350  -47.9960 C.2   315  ARG315      0.2287
    201  O         14.6220   22.3560  -46.8420 O.2   315  ARG315     -0.2864
    202  CB        11.9460   21.4650  -48.3920 C.3   315  ARG315      0.0334
    203  CG        10.5520   22.0250  -48.6110 C.3   315  ARG315      0.0492
    204  CD         9.5040   20.9460  -48.5300 C.3   315  ARG315      0.2205
    205  NE         8.1820   21.4450  -48.8720 N.pl3 315  ARG315     -0.0865
    206  CZ         7.6170   21.3640  -50.0740 C.cat 315  ARG315      0.5346
    207  NH1        8.3200   20.9730  -51.1290 N.pl3 315  ARG315      0.1354
    208  NH2        6.3480   21.7200  -50.2130 N.pl3 315  ARG315      0.1354
    209  N         16.2140   24.7800  -46.1760 N.3   318  VAL318     -0.1245
    210  CA        15.6650   25.2790  -44.9210 C.3   318  VAL318      0.1561
    211  C         15.9140   24.2420  -43.8130 C.2   318  VAL318      0.2260
    212  O         16.1500   24.6380  -42.6670 O.2   318  VAL318     -0.2867
    213  CB        14.1940   25.7290  -45.0260 C.3   318  VAL318      0.0252
    214  CG1       14.0520   26.9110  -45.9690 C.3   318  VAL318      0.0019
    215  CG2       13.2480   24.6220  -45.4390 C.3   318  VAL318      0.0019
@<TRIPOS>BOND
     1   102   103    1
     2   103   104    1
     3   103   106    1
     4   104   105    2
     5   111   112    1
     6   114   113    2
     7   106   107    1
     8    97    98    2
     9    97    96    1
    10   112   113    1
    11   112   115    1
    12   184   186   ar
    13   184   182   ar
    14    95    96    1
    15   186   185   ar
    16    96    99    1
    17   115   116    1
    18   107   108    1
    19   142   143    1
    20   182   181   ar
    21   145   144    2
    22   185   183   ar
    23   108   109    1
    24    99   101    1
    25    99   100    1
    26   143   144    1
    27   143   146    1
    28   181   183   ar
    29   181   180    1
    30   176   177    1
    31   148   147   ar
    32   144   150   am
    33    85    86    2
    34    85    84    1
    35   147   146    1
    36   147   149   ar
    37   109   110    1
    38    31    30    2
    39   180   177    1
    40   117   118    1
    41    84    83    1
    42    84    87    1
    43    75    76    1
    44    75    74    1
    45    75    78    1
    46   177   178    1
    47   164   162    1
    48   153   152    2
    49    76    77    2
    50   150   151    1
    51    28    27    2
    52    79    78    1
    53    79    80    1
    54    30    32   am
    55    30    29    1
    56   151   152    1
    57    81    80    2
    58    26    25    1
    59    26    27    1
    60    26    29    1
    61   179   178    2
    62   118   121    1
    63   118   119    1
    64    89    91   ar
    65    89    88   ar
    66   121   122    1
    67   152   154   am
    68   178   187   am
    69    87    88    1
    70   123   122   ar
    71   123   125   ar
    72    80    82   am
    73    91    93   ar
    74   162   163    1
    75   162   159    1
    76    88    90   ar
    77   122   124   ar
    78   127   119   am
    79   127   128    1
    80   125   126   ar
    81   119   120    2
    82   154   155    1
    83   159   158    1
    84   159   160    1
    85   187   188    1
    86   158   156   am
    87    93    94    1
    88    93    92   ar
    89   156   155    1
    90   156   157    2
    91    34    33    1
    92    34    35    1
    93    90    92   ar
    94   124   126   ar
    95   128   129    1
    96    37    35   am
    97    37    38    1
    98    41    38    1
    99   188   191    1
   100   188   189    1
   101   129   130    2
   102   192   191    1
   103    35    36    2
   104   160   165   am
   105   160   161    2
   106   131   132    1
   107   165   166    1
   108    38    39    1
   109   133   132    1
   110   133   134    2
   111   191   193    1
   112   189   190    2
   113   189   194   am
   114   132   135    1
   115    40    39    2
   116   194   195    1
   117    54    55    1
   118    55    56    1
   119    55    58    1
   120    56    57    2
   121    39    42   am
   122    71    73   ar
   123    71    69   ar
   124   167   166    1
   125   167   168    2
   126   166   169    1
   127   135   136    1
   128    73    72   ar
   129   174   173    1
   130    68    69   ar
   131    68    66   ar
   132   195   196    1
   133    69    67   ar
   134   169   170    1
   135    58    59    1
   136   136   137    1
   137   170   171    1
   138    42    43    1
   139    72    70   ar
   140   173   175    1
   141   173   172    2
   142   137   138    1
   143    66    65   ar
   144   207   206    1
   145    60    61    1
   146    67    70   ar
   147    67    65   ar
   148    65    64    1
   149   171   172    1
   150   196   198   am
   151   196   197    2
   152    48    46    1
   153   138   139    2
   154    43    46    1
   155    43    44    1
   156   208   206    1
   157   206   205    2
   158   198   199    1
   159    61    64    1
   160    61    62    1
   161    46    47    1
   162    44    49   am
   163    44    45    2
   164    49    50    1
   165   139   140    1
   166   139   141    1
   167   205   204    1
   168    62    63    2
   169   203   204    1
   170   203   202    1
   171   199   202    1
   172   199   200    1
   173    53    50    1
   174    50    51    1
   175   200   201    2
   176    12    11    1
   177    51    52    2
   178    16    15    2
   179   209   210    1
   180    11     9   ar
   181    11    10   ar
   182     9     7   ar
   183   214   213    1
   184     4     3    2
   185    15    14    1
   186   215   213    1
   187    10     8   ar
   188   213   210    1
   189   210   211    1
   190     7     6   ar
   191    14    17    1
   192    14    13    1
   193    19    21   ar
   194    19    18   ar
   195     3    13   am
   196     3     2    1
   197     8     6   ar
   198    21    23   ar
   199    17    18    1
   200     6     5    1
   201   211   212    2
   202    18    20   ar
   203     2     5    1
   204     2     1    1
   205    23    24    1
   206    23    22   ar
   207    20    22   ar
