@<TRIPOS>MOLECULE
tmp/6gmcA01.pdb
 144 140 0 0 0
SMALL
GASTEIGER

@<TRIPOS>ATOM
      1  N          4.6350   25.1390  -42.2860 N.3    26  TYR26      -0.1241
      2  CA         4.6670   26.1020  -43.3700 C.3    26  TYR26       0.1605
      3  C          5.6830   25.6400  -44.4260 C.2    26  TYR26       0.2264
      4  O          5.4030   25.6570  -45.6210 O.2    26  TYR26      -0.2867
      5  CB         5.0030   27.5160  -42.8750 C.3    26  TYR26       0.0534
      6  CG         5.4770   28.3920  -44.0020 C.ar   26  TYR26      -0.0201
      7  CD1        4.5940   28.8680  -44.9570 C.ar   26  TYR26      -0.0009
      8  CD2        6.8290   28.6300  -44.1970 C.ar   26  TYR26      -0.0009
      9  CE1        5.0360   29.5810  -46.0580 C.ar   26  TYR26       0.0417
     10  CE2        7.2870   29.3600  -45.2790 C.ar   26  TYR26       0.0417
     11  CZ         6.3880   29.8240  -46.2210 C.ar   26  TYR26       0.1957
     12  OH         6.8310   30.4970  -47.3220 O.3    26  TYR26      -0.2866
     13  N         10.8040   31.4630  -49.2730 N.3    81  ALA81      -0.1231
     14  CA        10.5650   32.6880  -48.5550 C.3    81  ALA81       0.1694
     15  C         10.9540   32.5640  -47.0790 C.2    81  ALA81       0.2591
     16  O         10.9390   31.4940  -46.4830 O.2    81  ALA81      -0.2718
     17  CB         9.1100   33.0660  -48.6800 C.3    81  ALA81       0.0304
     18  N         11.2480   33.7220  -46.4870 N.am   82  MET82      -0.1979
     19  CA        11.2120   33.8990  -45.0310 C.3    82  MET82       0.1605
     20  C         12.1570   32.9170  -44.3280 C.2    82  MET82       0.2287
     21  O         11.7730   32.2300  -43.3740 O.2    82  MET82      -0.2864
     22  CB         9.7760   33.7350  -44.5090 C.3    82  MET82       0.0413
     23  CG         8.8370   34.7350  -45.1230 C.3    82  MET82       0.0598
     24  SD         7.1680   34.6340  -44.4830 S.3    82  MET82      -0.1393
     25  CE         6.7290   32.9330  -44.8320 C.3    82  MET82       0.0692
     26  N          9.8390   37.4140  -51.0680 N.3   110  TRP110     -0.1241
     27  CA         9.4380   37.6750  -49.6240 C.3   110  TRP110      0.1605
     28  C         10.5180   37.1220  -48.6890 C.2   110  TRP110      0.2264
     29  O         10.2310   36.4600  -47.6960 O.2   110  TRP110     -0.2867
     30  CB         8.0740   37.0950  -49.2060 C.3   110  TRP110      0.0547
     31  CG         6.8910   38.0010  -49.3570 C.2   110  TRP110     -0.0038
     32  CD1        6.4780   39.0080  -48.5320 C.2   110  TRP110      0.0889
     33  CD2        5.9140   37.9210  -50.4030 C.2   110  TRP110     -0.0046
     34  NE1        5.3300   39.5800  -49.0170 N.2   110  TRP110     -0.2685
     35  CE2        4.9630   38.9370  -50.1700 C.3   110  TRP110      0.1104
     36  CE3        5.7800   37.1040  -51.5290 C.2   110  TRP110     -0.0073
     37  CZ2        3.8810   39.1430  -51.0210 C.3   110  TRP110      0.0385
     38  CZ3        4.7170   37.3140  -52.3700 C.2   110  TRP110     -0.0263
     39  CH2        3.7850   38.3210  -52.1190 C.3   110  TRP110      0.0287
     40  N          8.0060   38.3280  -58.3410 N.3   132  TYR132     -0.1241
     41  CA         6.6220   38.3600  -58.6960 C.3   132  TYR132      0.1605
     42  C          6.2950   39.7010  -59.3380 C.2   132  TYR132      0.2264
     43  O          6.8630   40.7150  -58.9410 O.2   132  TYR132     -0.2867
     44  CB         5.7430   38.2370  -57.4610 C.3   132  TYR132      0.0534
     45  CG         5.7150   36.8550  -56.8950 C.ar  132  TYR132     -0.0201
     46  CD1        5.1180   35.8320  -57.6070 C.ar  132  TYR132     -0.0009
     47  CD2        6.2590   36.5790  -55.6580 C.ar  132  TYR132     -0.0009
     48  CE1        5.0720   34.5510  -57.1020 C.ar  132  TYR132      0.0417
     49  CE2        6.2080   35.3050  -55.1270 C.ar  132  TYR132      0.0417
     50  CZ         5.6090   34.2920  -55.8560 C.ar  132  TYR132      0.1957
     51  OH         5.5320   33.0260  -55.3800 O.3   132  TYR132     -0.2866
     52  N          1.4740   31.6510  -59.4210 N.3   161  THR161     -0.1218
     53  CA         0.9450   32.1140  -58.1320 C.3   161  THR161      0.1862
     54  C          0.1530   33.4070  -58.3260 C.2   161  THR161      0.2287
     55  O          0.4020   34.3990  -57.6450 O.2   161  THR161     -0.2866
     56  CB         2.0810   32.2680  -57.1090 C.3   161  THR161      0.1770
     57  OG1        2.8430   31.0630  -57.1010 O.3   161  THR161     -0.2211
     58  CG2        1.6230   32.5140  -55.6890 C.3   161  THR161      0.0375
     59  N         -2.3370   32.5310  -53.8490 N.3   164  LEU164     -0.1245
     60  CA        -1.6190   31.4720  -53.1240 C.3   164  LEU164      0.1561
     61  C         -2.4410   30.1810  -53.1080 C.2   164  LEU164      0.2260
     62  O         -3.6580   30.1940  -52.9610 O.2   164  LEU164     -0.2867
     63  CB        -1.3230   31.9320  -51.6960 C.3   164  LEU164      0.0270
     64  CG        -0.2090   31.1550  -50.9930 C.3   164  LEU164      0.0019
     65  CD1        1.1520   31.4620  -51.5920 C.3   164  LEU164      0.0001
     66  CD2       -0.1970   31.4760  -49.5090 C.3   164  LEU164      0.0001
     67  N         -2.7870   25.7430  -48.4790 N.3   167  ARG167     -0.1245
     68  CA        -2.0020   24.8340  -47.6250 C.3   167  ARG167      0.1563
     69  C         -2.7490   24.7070  -46.3010 C.2   167  ARG167      0.2260
     70  O         -2.8230   25.6520  -45.5220 O.2   167  ARG167     -0.2867
     71  CB        -0.5630   25.3380  -47.4620 C.3   167  ARG167      0.0307
     72  CG         0.1920   25.5520  -48.7720 C.3   167  ARG167      0.0489
     73  CD         0.1830   27.0080  -49.2190 C.3   167  ARG167      0.2205
     74  NE         0.9080   27.2830  -50.4650 N.pl3 167  ARG167     -0.0865
     75  CZ         2.0510   27.9630  -50.5560 C.cat 167  ARG167      0.5346
     76  NH1        2.7230   28.2730  -49.4540 N.pl3 167  ARG167      0.1354
     77  NH2        2.4810   28.3510  -51.7540 N.pl3 167  ARG167      0.1354
     78  N          9.3580   40.8660  -44.3840 N.3   183  MET183     -0.1245
     79  CA         9.8090   40.8400  -45.7730 C.3   183  MET183      0.1570
     80  C         10.5790   42.1390  -46.0350 C.2   183  MET183      0.2261
     81  O          9.9850   43.2170  -46.0460 O.2   183  MET183     -0.2867
     82  CB         8.6240   40.7500  -46.7410 C.3   183  MET183      0.0387
     83  CG         7.8790   39.4310  -46.6770 C.3   183  MET183      0.0595
     84  SD         8.0400   38.6380  -45.0640 S.3   183  MET183     -0.1393
     85  CE         9.7440   38.1040  -45.1600 C.3   183  MET183      0.0692
     86  N          4.6100   42.2930  -45.0620 N.3   191  PHE191     -0.1241
     87  CA         3.9320   41.1660  -44.4080 C.3   191  PHE191      0.1605
     88  C          4.1090   41.2520  -42.8840 C.2   191  PHE191      0.2264
     89  O          4.4100   40.2550  -42.2320 O.2   191  PHE191     -0.2867
     90  CB         4.4480   39.8330  -44.9590 C.3   191  PHE191      0.0534
     91  CG         3.6520   38.6180  -44.5500 C.ar  191  PHE191     -0.0203
     92  CD1        2.2690   38.6670  -44.4640 C.ar  191  PHE191     -0.0042
     93  CD2        4.2850   37.4140  -44.2800 C.ar  191  PHE191     -0.0042
     94  CE1        1.5420   37.5430  -44.1040 C.ar  191  PHE191     -0.0003
     95  CE2        3.5560   36.2900  -43.9240 C.ar  191  PHE191     -0.0003
     96  CZ         2.1850   36.3580  -43.8320 C.ar  191  PHE191     -0.0000
     97  N         -0.7230   34.4910  -45.1870 N.3   203  LEU203     -0.1245
     98  CA         0.0220   34.5540  -46.4080 C.3   203  LEU203      0.1561
     99  C         -0.9300   34.6980  -47.5960 C.2   203  LEU203      0.2260
    100  O         -0.6780   35.4390  -48.5060 O.2   203  LEU203     -0.2867
    101  CB         0.8470   33.2740  -46.5160 C.3   203  LEU203      0.0270
    102  CG         1.6590   32.9430  -45.2710 C.3   203  LEU203      0.0019
    103  CD1        2.6020   31.7930  -45.5650 C.3   203  LEU203      0.0001
    104  CD2        2.4060   34.1770  -44.7890 C.3   203  LEU203      0.0001
    105  N         -2.1470   38.1750  -47.8640 N.3   206  TYR206     -0.1227
    106  CA        -1.0670   39.0480  -48.2790 C.3   206  TYR206      0.1733
    107  C         -0.8930   38.9580  -49.7970 C.2   206  TYR206      0.2595
    108  O         -0.7430   39.9620  -50.4700 O.2   206  TYR206     -0.2718
    109  CB         0.2570   38.6850  -47.6070 C.3   206  TYR206      0.0504
    110  CG         1.4550   39.3270  -48.2620 C.2   206  TYR206     -0.0417
    111  CD1        1.8480   40.6010  -47.8970 C.2   206  TYR206     -0.0055
    112  CD2        2.1660   38.6960  -49.2720 C.3   206  TYR206      0.0316
    113  CE1        2.9230   41.2280  -48.5000 C.2   206  TYR206      0.0369
    114  CE2        3.2510   39.3050  -49.8830 C.3   206  TYR206      0.0840
    115  CZ         3.6370   40.5730  -49.4870 C.2   206  TYR206      0.1747
    116  OH         4.7080   41.1900  -50.0740 O.2   206  TYR206     -0.2913
    117  N         -0.8720   37.7270  -50.3160 N.am  207  VAL207     -0.1980
    118  CA        -0.6840   37.5170  -51.7390 C.3   207  VAL207      0.1595
    119  C         -1.8180   38.2030  -52.5130 C.2   207  VAL207      0.2287
    120  O         -1.5750   38.8510  -53.5300 O.2   207  VAL207     -0.2864
    121  CB        -0.5710   36.0200  -52.0670 C.3   207  VAL207      0.0276
    122  CG1       -0.7200   35.7520  -53.5570 C.3   207  VAL207      0.0022
    123  CG2        0.7430   35.4730  -51.5490 C.3   207  VAL207      0.0022
    124  N          5.9790   24.5970  -58.0210 N.3   258  HIS258     -0.1241
    125  CA         6.0620   25.4310  -56.8160 C.3   258  HIS258      0.1621
    126  C          6.1760   24.5330  -55.5740 C.2   258  HIS258      0.2264
    127  O          5.5790   24.8130  -54.5490 O.2   258  HIS258     -0.2867
    128  CB         4.8520   26.3670  -56.7270 C.3   258  HIS258      0.0745
    129  CG         5.0860   27.6630  -56.0320 C.ar  258  HIS258      0.0817
    130  ND1        5.3270   27.8620  -54.6730 N.ar  258  HIS258     -0.2268
    131  CD2        5.0210   28.9010  -56.5740 C.ar  258  HIS258      0.1154
    132  CE1        5.4090   29.1870  -54.4490 C.ar  258  HIS258      0.1986
    133  NE2        5.2340   29.8200  -55.5960 N.ar  258  HIS258     -0.2212
    134  N          2.8920   23.3010  -53.9500 N.3   261  ARG261     -0.1245
    135  CA         2.2260   24.1840  -52.9780 C.3   261  ARG261      0.1563
    136  C          1.1270   25.0450  -53.6150 C.2   261  ARG261      0.2260
    137  O          0.4840   25.8400  -52.9040 O.2   261  ARG261     -0.2867
    138  CB         3.2600   25.1050  -52.3240 C.3   261  ARG261      0.0307
    139  CG         4.3150   24.3440  -51.5410 C.3   261  ARG261      0.0489
    140  CD         5.5510   25.1550  -51.2160 C.3   261  ARG261      0.2205
    141  NE         5.3500   26.2560  -50.2920 N.pl3 261  ARG261     -0.0865
    142  CZ         5.4840   26.1570  -48.9750 C.cat 261  ARG261      0.5346
    143  NH1        5.4910   24.9610  -48.4010 N.pl3 261  ARG261      0.1354
    144  NH2        5.6370   27.2540  -48.2400 N.pl3 261  ARG261      0.1354
@<TRIPOS>BOND
     1    52    53    1
     2    42    43    2
     3    42    41    1
     4    41    40    1
     5    41    44    1
     6    54    53    1
     7    54    55    2
     8    53    56    1
     9   124   125    1
    10    46    48   ar
    11    46    45   ar
    12    44    45    1
    13    56    57    1
    14    56    58    1
    15    48    50   ar
    16    45    47   ar
    17   125   128    1
    18   125   126    1
    19   128   129    1
    20   131   129   ar
    21   131   133   ar
    22   129   130   ar
    23    50    51    1
    24    50    49   ar
    25    47    49   ar
    26   133   132   ar
    27   126   127    2
    28   130   132   ar
    29   134   135    1
    30    59    60    1
    31   136   135    1
    32   136   137    2
    33   122   121    1
    34   120   119    2
    35    60    61    1
    36    60    63    1
    37    61    62    2
    38   135   138    1
    39   119   118    1
    40    38    39    1
    41    38    36    2
    42   138   139    1
    43    39    37    1
    44   121   118    1
    45   121   123    1
    46    77    75    1
    47   118   117    1
    48    63    64    1
    49    65    64    1
    50   139   140    1
    51    36    33    1
    52   140   141    1
    53    26    27    1
    54    37    35    1
    55    37   114    1
    56    64    66    1
    57    75    74    2
    58    75    76    1
    59   108   107    2
    60    74    73    1
    61    33    35    1
    62    33    31    2
    63   117   107   am
    64   141   142    2
    65    35   114    1
    66    35    34    1
    67   116   115    1
    68   114   115    1
    69   114   112    1
    70   107   106    1
    71    27    30    1
    72    27    28    1
    73   115   113    2
    74    31    30    1
    75    31    32    1
    76    13    14    1
    77   112   110    1
    78    73    72    1
    79    34    32    2
    80   142   143    1
    81   142   144    1
    82    72    71    1
    83    28    29    2
    84    17    14    1
    85    14    15    1
    86   100    99    2
    87   113   111    1
    88    67    68    1
    89   106   105    1
    90   106   109    1
    91   110   111    2
    92   110   109    1
    93    68    71    1
    94    68    69    1
    95    99    98    1
    96    12    11    1
    97    15    18   am
    98    15    16    2
    99    82    83    1
   100    82    79    1
   101    83    84    1
   102   101    98    1
   103   101   102    1
   104    18    19    1
   105    98    97    1
   106    69    70    2
   107    11     9   ar
   108    11    10   ar
   109     9     7   ar
   110    81    80    2
   111    80    79    1
   112    79    78    1
   113     4     3    2
   114   103   102    1
   115    10     8   ar
   116   102   104    1
   117    85    84    1
   118    23    22    1
   119    23    24    1
   120    86    87    1
   121    19    22    1
   122    19    20    1
   123    90    91    1
   124    90    87    1
   125     7     6   ar
   126    25    24    1
   127    91    92   ar
   128    91    93   ar
   129    92    94   ar
   130     3     2    1
   131    87    88    1
   132    20    21    2
   133    93    95   ar
   134     8     6   ar
   135    94    96   ar
   136     6     5    1
   137    95    96   ar
   138     2     5    1
   139     2     1    1
   140    88    89    2
