@<TRIPOS>MOLECULE
tmp/6gmgA03.pdb
 124 122 0 0 0
SMALL
GASTEIGER

@<TRIPOS>ATOM
      1  N        -26.0630   26.3820  -17.0400 N.3    38  TRP38      -0.1241
      2  CA       -26.3930   24.9600  -17.0310 C.3    38  TRP38       0.1605
      3  C        -27.8790   24.7390  -16.7800 C.2    38  TRP38       0.2264
      4  O        -28.5060   23.8860  -17.4190 O.2    38  TRP38      -0.2867
      5  CB       -25.5540   24.2440  -15.9720 C.3    38  TRP38       0.0550
      6  CG       -25.6440   22.7450  -15.9950 C.ar   38  TRP38       0.0003
      7  CD1      -24.8160   21.8850  -16.6560 C.ar   38  TRP38       0.0946
      8  CD2      -26.5990   21.9290  -15.3030 C.ar   38  TRP38       0.0152
      9  NE1      -25.2030   20.5870  -16.4290 N.ar   38  TRP38      -0.2442
     10  CE2      -26.2930   20.5860  -15.6000 C.ar   38  TRP38       0.0810
     11  CE3      -27.6840   22.2040  -14.4650 C.ar   38  TRP38       0.0012
     12  CZ2      -27.0340   19.5210  -15.0900 C.ar   38  TRP38       0.0191
     13  CZ3      -28.4140   21.1460  -13.9560 C.ar   38  TRP38       0.0001
     14  CH2      -28.0880   19.8220  -14.2730 C.ar   38  TRP38       0.0015
     15  N        -28.9940   22.9570  -20.0090 N.3    42  TYR42      -0.1227
     16  CA       -28.5220   21.5950  -19.7920 C.3    42  TYR42       0.1736
     17  C        -29.3240   20.7980  -18.7730 C.2    42  TYR42       0.2596
     18  O        -29.1120   19.5840  -18.6670 O.2    42  TYR42      -0.2718
     19  CB       -27.0510   21.5980  -19.3420 C.3    42  TYR42       0.0548
     20  CG       -26.0850   22.2430  -20.3110 C.ar   42  TYR42      -0.0200
     21  CD1      -26.2300   22.0860  -21.6830 C.ar   42  TYR42      -0.0009
     22  CD2      -25.0200   23.0030  -19.8480 C.ar   42  TYR42      -0.0009
     23  CE1      -25.3430   22.6750  -22.5660 C.ar   42  TYR42       0.0417
     24  CE2      -24.1300   23.5940  -20.7210 C.ar   42  TYR42       0.0417
     25  CZ       -24.2950   23.4280  -22.0780 C.ar   42  TYR42       0.1957
     26  OH       -23.4060   24.0180  -22.9470 O.3    42  TYR42      -0.2866
     27  N        -30.2320   21.4260  -18.0320 N.am   43  SER43      -0.1938
     28  CA       -30.8560   20.8000  -16.8730 C.3    43  SER43       0.2055
     29  C        -32.1380   20.0430  -17.1950 C.2    43  SER43       0.2643
     30  O        -32.7430   19.4740  -16.2800 O.2    43  SER43      -0.2714
     31  CB       -31.1630   21.8590  -15.8130 C.3    43  SER43       0.2130
     32  OG       -32.2790   22.6450  -16.1920 O.3    43  SER43      -0.2179
     33  N        -32.5640   20.0150  -18.4550 N.am   44  HIS44      -0.1959
     34  CA       -33.8960   19.5240  -18.7820 C.3    44  HIS44       0.1787
     35  C        -34.0250   18.0310  -18.5020 C.2    44  HIS44       0.2620
     36  O        -33.1650   17.2330  -18.8880 O.2    44  HIS44      -0.2715
     37  CB       -34.2220   19.8100  -20.2470 C.3    44  HIS44       0.0785
     38  CG       -34.2110   21.2650  -20.5950 C.ar   44  HIS44       0.0821
     39  ND1      -33.0530   22.0090  -20.6470 N.ar   44  HIS44      -0.2267
     40  CD2      -35.2180   22.1130  -20.9090 C.ar   44  HIS44       0.1154
     41  CE1      -33.3460   23.2540  -20.9790 C.ar   44  HIS44       0.1986
     42  NE2      -34.6540   23.3430  -21.1450 N.ar   44  HIS44      -0.2212
     43  N        -35.1060   17.6620  -17.8170 N.am   45  ARG45      -0.1977
     44  CA       -35.5330   16.2750  -17.6660 C.3    45  ARG45       0.1597
     45  C        -36.8690   16.1460  -18.3830 C.2    45  ARG45       0.2287
     46  O        -37.8780   16.6900  -17.9190 O.2    45  ARG45      -0.2864
     47  CB       -35.6570   15.8820  -16.1940 C.3    45  ARG45       0.0334
     48  CG       -34.4100   16.1330  -15.3640 C.3    45  ARG45       0.0492
     49  CD       -33.3300   15.1030  -15.6470 C.3    45  ARG45       0.2205
     50  NE       -32.5150   14.8380  -14.4640 N.pl3  45  ARG45      -0.0865
     51  CZ       -32.6820   13.7940  -13.6580 C.cat  45  ARG45       0.5346
     52  NH1      -33.6350   12.9060  -13.9080 N.pl3  45  ARG45       0.1354
     53  NH2      -31.8930   13.6370  -12.6040 N.pl3  45  ARG45       0.1354
     54  N        -34.7120   22.2030  -14.6970 N.3    50  GLN50      -0.1245
     55  CA       -34.5450   21.8510  -13.2970 C.3    50  GLN50       0.1566
     56  C        -33.4840   22.7360  -12.6610 C.2    50  GLN50       0.2260
     57  O        -32.5850   23.2420  -13.3360 O.2    50  GLN50      -0.2867
     58  CB       -34.1420   20.3780  -13.1260 C.3    50  GLN50       0.0367
     59  CG       -34.9900   19.3940  -13.9140 C.3    50  GLN50       0.0905
     60  CD       -36.3920   19.2560  -13.3580 C.2    50  GLN50       0.2608
     61  OE1      -36.6050   19.3520  -12.1490 O.2    50  GLN50      -0.2717
     62  NE2      -37.3580   19.0320  -14.2410 N.am   50  GLN50      -0.0878
     63  N        -29.2580   20.4800   -8.2130 N.3    53  THR53      -0.1218
     64  CA       -29.5030   20.0610   -6.8440 C.3    53  THR53       0.1862
     65  C        -28.2980   20.3700   -5.9580 C.2    53  THR53       0.2287
     66  O        -27.2010   20.6810   -6.4290 O.2    53  THR53      -0.2866
     67  CB       -29.8260   18.5660   -6.7910 C.3    53  THR53       0.1770
     68  OG1      -28.6130   17.8120   -6.8840 O.3    53  THR53      -0.2211
     69  CG2      -30.7400   18.1800   -7.9410 C.3    53  THR53       0.0375
     70  N        -25.6000   17.8160   -6.8720 N.3    56  GLN56      -0.1245
     71  CA       -24.8980   18.1470   -8.1080 C.3    56  GLN56       0.1566
     72  C        -23.9710   19.3390   -7.9120 C.2    56  GLN56       0.2260
     73  O        -22.8340   19.3390   -8.3990 O.2    56  GLN56      -0.2867
     74  CB       -25.9010   18.4290   -9.2260 C.3    56  GLN56       0.0367
     75  CG       -26.6250   17.2030   -9.7540 C.3    56  GLN56       0.0905
     76  CD       -27.7530   17.5650  -10.7000 C.2    56  GLN56       0.2608
     77  OE1      -28.4760   18.5360  -10.4790 O.2    56  GLN56      -0.2717
     78  NE2      -27.9070   16.7850  -11.7630 N.am   56  GLN56      -0.0878
     79  N        -20.9050   18.0100   -6.2460 N.3    59  TRP59      -0.1241
     80  CA       -20.0570   17.3260   -7.2180 C.3    59  TRP59       0.1605
     81  C        -19.2960   18.3250   -8.0780 C.2    59  TRP59       0.2264
     82  O        -18.0780   18.2090   -8.2600 O.2    59  TRP59      -0.2867
     83  CB       -20.9020   16.4140   -8.1070 C.3    59  TRP59       0.0550
     84  CG       -21.5390   15.2610   -7.4050 C.ar   59  TRP59       0.0003
     85  CD1      -21.3100   14.8450   -6.1270 C.ar   59  TRP59       0.0946
     86  CD2      -22.5160   14.3670   -7.9500 C.ar   59  TRP59       0.0152
     87  NE1      -22.0860   13.7460   -5.8410 N.ar   59  TRP59      -0.2442
     88  CE2      -22.8350   13.4330   -6.9450 C.ar   59  TRP59       0.0810
     89  CE3      -23.1530   14.2670   -9.1910 C.ar   59  TRP59       0.0012
     90  CZ2      -23.7610   12.4100   -7.1440 C.ar   59  TRP59       0.0191
     91  CZ3      -24.0730   13.2520   -9.3860 C.ar   59  TRP59       0.0001
     92  CH2      -24.3690   12.3380   -8.3670 C.ar   59  TRP59       0.0015
     93  N        -21.2680   15.8140  -12.9090 N.3    70  VAL70      -0.1245
     94  CA       -22.6500   16.2830  -12.9080 C.3    70  VAL70       0.1561
     95  C        -23.3690   15.8360  -14.1760 C.2    70  VAL70       0.2260
     96  O        -24.5040   15.3470  -14.1270 O.2    70  VAL70      -0.2867
     97  CB       -22.6940   17.8130  -12.7450 C.3    70  VAL70       0.0252
     98  CG1      -24.0930   18.3410  -13.0240 C.3    70  VAL70       0.0019
     99  CG2      -22.2390   18.2080  -11.3500 C.3    70  VAL70       0.0019
    100  N        -23.8300   12.0260  -14.1280 N.3    73  GLY73      -0.1225
    101  CA       -24.4430   11.4750  -12.9360 C.3    73  GLY73       0.1811
    102  C        -23.5960   10.4820  -12.1760 C.2    73  GLY73       0.2280
    103  O        -24.0940    9.8580  -11.2350 O.2    73  GLY73      -0.2866
    104  N        -32.3520   13.0550  -20.2210 N.3   319  TRP319     -0.1241
    105  CA       -31.5210   14.1570  -19.7660 C.3   319  TRP319      0.1605
    106  C        -31.2310   15.1190  -20.9150 C.2   319  TRP319      0.2264
    107  O        -31.5320   14.8530  -22.0820 O.2   319  TRP319     -0.2867
    108  CB       -30.2100   13.6380  -19.1770 C.3   319  TRP319      0.0550
    109  CG       -30.3700   12.8360  -17.9220 C.ar  319  TRP319      0.0003
    110  CD1      -31.5360   12.5400  -17.2790 C.ar  319  TRP319      0.0946
    111  CD2      -29.3240   12.2260  -17.1570 C.ar  319  TRP319      0.0152
    112  NE1      -31.2810   11.7830  -16.1600 N.ar  319  TRP319     -0.2442
    113  CE2      -29.9300   11.5770  -16.0630 C.ar  319  TRP319      0.0810
    114  CE3      -27.9330   12.1660  -17.2910 C.ar  319  TRP319      0.0012
    115  CZ2      -29.1950   10.8770  -15.1090 C.ar  319  TRP319      0.0191
    116  CZ3      -27.2050   11.4690  -16.3440 C.ar  319  TRP319      0.0001
    117  CH2      -27.8370   10.8340  -15.2670 C.ar  319  TRP319      0.0015
    118  N        -27.9600   16.9580  -20.6410 N.3   321  THR321     -0.1218
    119  CA       -26.5780   17.3410  -20.3800 C.3   321  THR321      0.1862
    120  C        -25.6550   17.0590  -21.5580 C.2   321  THR321      0.2287
    121  O        -24.4710   17.4050  -21.4890 O.2   321  THR321     -0.2866
    122  CB       -26.0530   16.6180  -19.1340 C.3   321  THR321      0.1770
    123  OG1      -26.1030   15.2010  -19.3420 O.3   321  THR321     -0.2211
    124  CG2      -26.8920   16.9780  -17.9170 C.3   321  THR321      0.0375
@<TRIPOS>BOND
     1    26    25    1
     2    23    25   ar
     3    23    21   ar
     4   107   106    2
     5    25    24   ar
     6    21    20   ar
     7   120   121    2
     8   120   119    1
     9    42    41   ar
    10    42    40   ar
    11    41    39   ar
    12   106   105    1
    13    40    38   ar
    14    24    22   ar
    15    39    38   ar
    16   118   119    1
    17    38    37    1
    18   119   122    1
    19    20    22   ar
    20    20    19    1
    21    37    34    1
    22   104   105    1
    23    15    16    1
    24    16    19    1
    25    16    17    1
    26   105   108    1
    27   123   122    1
    28   108   109    1
    29   122   124    1
    30    36    35    2
    31    34    35    1
    32    34    33    1
    33    17    18    2
    34    17    27   am
    35    35    43   am
    36    33    29   am
    37    45    46    2
    38    45    44    1
    39    27    28    1
    40   109   110   ar
    41   109   111   ar
    42    43    44    1
    43    44    47    1
    44     4     3    2
    45   114   111   ar
    46   114   116   ar
    47   110   112   ar
    48    29    28    1
    49    29    30    2
    50   111   113   ar
    51     1     2    1
    52     2     3    1
    53     2     5    1
    54    28    31    1
    55     7     9   ar
    56     7     6   ar
    57     9    10   ar
    58   116   117   ar
    59    47    48    1
    60    32    31    1
    61   112   113   ar
    62   113   115   ar
    63     6     5    1
    64     6     8   ar
    65    49    48    1
    66    49    50    1
    67    10     8   ar
    68    10    12   ar
    69     8    11   ar
    70   117   115   ar
    71    12    14   ar
    72    54    55    1
    73    11    13   ar
    74    50    51    2
    75    14    13   ar
    76    62    60   am
    77    95    96    2
    78    95    94    1
    79   100   101    1
    80    59    60    1
    81    59    58    1
    82    52    51    1
    83    51    53    1
    84    60    61    2
    85    57    56    2
    86    55    58    1
    87    55    56    1
    88    98    97    1
    89   101   102    1
    90    93    94    1
    91    94    97    1
    92    97    99    1
    93   102   103    2
    94    78    76   am
    95    76    77    2
    96    76    75    1
    97    75    74    1
    98    91    89   ar
    99    91    92   ar
   100    74    71    1
   101    89    86   ar
   102    73    72    2
   103    92    90   ar
   104    82    81    2
   105    63    64    1
   106    71    72    1
   107    71    70    1
   108    83    84    1
   109    83    80    1
   110    81    80    1
   111    86    84   ar
   112    86    88   ar
   113    69    67    1
   114    84    85   ar
   115    80    79    1
   116    90    88   ar
   117    88    87   ar
   118    68    67    1
   119    64    67    1
   120    64    65    1
   121    66    65    2
   122    85    87   ar
