@<TRIPOS>MOLECULE
tmp/6gmgB04.pdb
 104 100 0 0 0
SMALL
GASTEIGER

@<TRIPOS>ATOM
      1  N          8.9450  -23.1040  -32.7350 N.3   106  GLU106     -0.1245
      2  CA         8.6160  -24.2940  -31.9570 C.3   106  GLU106      0.1567
      3  C          9.4240  -24.3450  -30.6660 C.2   106  GLU106      0.2260
      4  O          8.9100  -24.7580  -29.6190 O.2   106  GLU106     -0.2867
      5  CB         8.8580  -25.5460  -32.7990 C.3   106  GLU106      0.0388
      6  CG         8.4060  -26.8430  -32.1520 C.3   106  GLU106      0.1160
      7  CD         8.5800  -28.0380  -33.0690 C.2   106  GLU106      0.3649
      8  OE1        8.8960  -27.8340  -34.2610 O.co2 106  GLU106     -0.2457
      9  OE2        8.4020  -29.1810  -32.6000 O.co2 106  GLU106     -0.2457
     10  N          8.0960  -21.6610  -28.1370 N.3   109  GLY109     -0.1210
     11  CA         6.8330  -22.0700  -27.5470 C.3   109  GLY109      0.1956
     12  C          7.0140  -23.0920  -26.4400 C.2   109  GLY109      0.2611
     13  O          6.3790  -22.9970  -25.3860 O.2   109  GLY109     -0.2717
     14  N          7.8870  -24.0780  -26.6610 N.am  110  ARG110     -0.1979
     15  CA         8.1250  -25.0980  -25.6440 C.3   110  ARG110      0.1597
     16  C          8.8260  -24.5130  -24.4250 C.2   110  ARG110      0.2287
     17  O          8.4710  -24.8360  -23.2850 O.2   110  ARG110     -0.2864
     18  CB         8.9440  -26.2460  -26.2340 C.3   110  ARG110      0.0334
     19  CG         9.3760  -27.2850  -25.2110 C.3   110  ARG110      0.0492
     20  CD        10.1960  -28.3950  -25.8500 C.3   110  ARG110      0.2205
     21  NE        11.4120  -27.8890  -26.4810 N.pl3 110  ARG110     -0.0865
     22  CZ        12.5580  -27.6820  -25.8390 C.cat 110  ARG110      0.5346
     23  NH1       12.6480  -27.9360  -24.5410 N.pl3 110  ARG110      0.1354
     24  NH2       13.6140  -27.2210  -26.4950 N.pl3 110  ARG110      0.1354
     25  N          6.4550  -22.8070  -22.3530 N.3   113  LYS113     -0.1231
     26  CA         5.6020  -23.7810  -21.6790 C.3   113  LYS113      0.1693
     27  C          6.2990  -24.3720  -20.4600 C.2   113  LYS113      0.2591
     28  O          5.7050  -24.4780  -19.3810 O.2   113  LYS113     -0.2718
     29  CB         5.1980  -24.8800  -22.6620 C.3   113  LYS113      0.0285
     30  CG         4.4760  -26.0640  -22.0380 C.3   113  LYS113      0.0035
     31  CD         4.2910  -27.1720  -23.0640 C.3   113  LYS113      0.0206
     32  CE         4.0700  -28.5250  -22.4090 C.3   113  LYS113      0.1093
     33  NZ         2.6530  -28.7230  -21.9980 N.3   113  LYS113     -0.1314
     34  N          7.5690  -24.7550  -20.6100 N.am  114  GLU114     -0.1979
     35  CA         8.3060  -25.3780  -19.5170 C.3   114  GLU114      0.1602
     36  C          8.7050  -24.3940  -18.4250 C.2   114  GLU114      0.2287
     37  O          9.1120  -24.8320  -17.3440 O.2   114  GLU114     -0.2864
     38  CB         9.5530  -26.0790  -20.0600 C.3   114  GLU114      0.0415
     39  CG         9.2480  -27.2490  -20.9830 C.3   114  GLU114      0.1163
     40  CD        10.4310  -27.6310  -21.8500 C.2   114  GLU114      0.3649
     41  OE1       10.4590  -28.7790  -22.3440 O.co2 114  GLU114     -0.2457
     42  OE2       11.3310  -26.7850  -22.0380 O.co2 114  GLU114     -0.2457
     43  N         -4.6150  -23.5360  -24.4710 N.3   202  TRP202     -0.1241
     44  CA        -3.5750  -23.2770  -25.4570 C.3   202  TRP202      0.1605
     45  C         -3.2910  -21.7820  -25.5320 C.2   202  TRP202      0.2264
     46  O         -4.2030  -20.9590  -25.3980 O.2   202  TRP202     -0.2867
     47  CB        -3.9910  -23.8130  -26.8300 C.3   202  TRP202      0.0550
     48  CG        -2.9720  -23.6050  -27.9060 C.ar  202  TRP202      0.0003
     49  CD1       -3.0880  -22.7950  -28.9980 C.ar  202  TRP202      0.0946
     50  CD2       -1.6820  -24.2210  -28.0000 C.ar  202  TRP202      0.0152
     51  NE1       -1.9510  -22.8670  -29.7640 N.ar  202  TRP202     -0.2442
     52  CE2       -1.0720  -23.7370  -29.1730 C.ar  202  TRP202      0.0810
     53  CE3       -0.9840  -25.1370  -27.2060 C.ar  202  TRP202      0.0012
     54  CZ2        0.2020  -24.1350  -29.5720 C.ar  202  TRP202      0.0191
     55  CZ3        0.2820  -25.5300  -27.6030 C.ar  202  TRP202      0.0001
     56  CH2        0.8620  -25.0290  -28.7750 C.ar  202  TRP202      0.0015
     57  N          2.5220  -23.8190  -32.5380 N.3   216  TYR216     -0.1241
     58  CA         3.6000  -24.0260  -31.5800 C.3   216  TYR216      0.1605
     59  C          3.5280  -23.1330  -30.3490 C.2   216  TYR216      0.2264
     60  O          4.3320  -23.3250  -29.4300 O.2   216  TYR216     -0.2867
     61  CB         4.9650  -23.8310  -32.2600 C.3   216  TYR216      0.0534
     62  CG         5.1190  -24.6280  -33.5370 C.ar  216  TYR216     -0.0201
     63  CD1        5.0100  -26.0130  -33.5310 C.ar  216  TYR216     -0.0009
     64  CD2        5.3680  -23.9960  -34.7490 C.ar  216  TYR216     -0.0009
     65  CE1        5.1470  -26.7460  -34.6950 C.ar  216  TYR216      0.0417
     66  CE2        5.5060  -24.7210  -35.9180 C.ar  216  TYR216      0.0417
     67  CZ         5.3950  -26.0950  -35.8850 C.ar  216  TYR216      0.1957
     68  OH         5.5320  -26.8200  -37.0460 O.3   216  TYR216     -0.2866
     69  N         -5.2950  -25.7660  -29.9190 N.3   241  ARG241     -0.1245
     70  CA        -4.0320  -25.8060  -30.6400 C.3   241  ARG241      0.1563
     71  C         -4.2670  -26.2620  -32.0740 C.2   241  ARG241      0.2260
     72  O         -5.0230  -27.2030  -32.3280 O.2   241  ARG241     -0.2867
     73  CB        -3.0490  -26.7470  -29.9410 C.3   241  ARG241      0.0307
     74  CG        -1.8260  -27.0870  -30.7750 C.3   241  ARG241      0.0489
     75  CD        -0.8330  -27.9440  -30.0090 C.3   241  ARG241      0.2205
     76  NE         0.4780  -27.9400  -30.6520 N.pl3 241  ARG241     -0.0865
     77  CZ         1.5910  -28.3930  -30.0870 C.cat 241  ARG241      0.5346
     78  NH1        1.5580  -28.8930  -28.8600 N.pl3 241  ARG241      0.1354
     79  NH2        2.7390  -28.3450  -30.7500 N.pl3 241  ARG241      0.1354
     80  N          0.0450  -32.4340  -24.5180 N.3   302  SER302     -0.1217
     81  CA         0.5750  -31.5760  -25.5700 C.3   302  SER302      0.1889
     82  C         -0.4880  -30.6600  -26.1640 C.2   302  SER302      0.2288
     83  O         -0.1370  -29.7070  -26.8670 O.2   302  SER302     -0.2866
     84  CB         1.2070  -32.4250  -26.6760 C.3   302  SER302      0.2089
     85  OG         0.2490  -33.2770  -27.2790 O.3   302  SER302     -0.2183
     86  N         -2.2390  -28.6320  -24.4410 N.3   304  PHE304     -0.1227
     87  CA        -2.2120  -27.4170  -23.6420 C.3   304  PHE304      0.1736
     88  C         -0.7790  -27.0480  -23.2890 C.2   304  PHE304      0.2595
     89  O          0.0180  -27.9070  -22.8980 O.2   304  PHE304     -0.2718
     90  CB        -3.0290  -27.5830  -22.3560 C.3   304  PHE304      0.0547
     91  CG        -4.1980  -28.5120  -22.4950 C.ar  304  PHE304     -0.0202
     92  CD1       -5.2600  -28.1920  -23.3240 C.ar  304  PHE304     -0.0042
     93  CD2       -4.2370  -29.7050  -21.7930 C.ar  304  PHE304     -0.0042
     94  CE1       -6.3370  -29.0450  -23.4500 C.ar  304  PHE304     -0.0003
     95  CE2       -5.3120  -30.5610  -21.9140 C.ar  304  PHE304     -0.0003
     96  CZ        -6.3630  -30.2310  -22.7420 C.ar  304  PHE304     -0.0000
     97  N         -0.4580  -25.7610  -23.4280 N.am  305  ASP305     -0.1974
     98  CA         0.8200  -25.2220  -22.9810 C.3   305  ASP305      0.1709
     99  C          0.6420  -24.1310  -21.9340 C.2   305  ASP305      0.2293
    100  O          1.6060  -23.4240  -21.6180 O.2   305  ASP305     -0.2864
    101  CB         1.6260  -24.6910  -24.1720 C.3   305  ASP305      0.1436
    102  CG         0.9360  -23.5380  -24.8830 C.2   305  ASP305      0.3671
    103  OD1       -0.2830  -23.3520  -24.6880 O.co2 305  ASP305     -0.2456
    104  OD2        1.6150  -22.8190  -25.6460 O.co2 305  ASP305     -0.2456
@<TRIPOS>BOND
     1    68    67    1
     2    66    67   ar
     3    66    64   ar
     4    67    65   ar
     5    64    62   ar
     6    65    63   ar
     7     8     7   ar
     8    62    63   ar
     9    62    61    1
    10     7     9   ar
    11     7     6    1
    12     5     6    1
    13     5     2    1
    14     1     2    1
    15    57    58    1
    16    72    71    2
    17    61    58    1
    18    71    70    1
    19     2     3    1
    20    58    59    1
    21    74    75    1
    22    74    73    1
    23    79    77    1
    24     3     4    2
    25    76    77    2
    26    76    75    1
    27    70    73    1
    28    70    69    1
    29    59    60    2
    30    77    78    1
    31    51    52   ar
    32    51    49   ar
    33    54    52   ar
    34    54    56   ar
    35    52    50   ar
    36    49    48   ar
    37    56    55   ar
    38    10    11    1
    39    50    48   ar
    40    50    53   ar
    41    48    47    1
    42    55    53   ar
    43    11    12    1
    44    85    84    1
    45    83    82    2
    46    47    44    1
    47    84    81    1
    48    14    12   am
    49    14    15    1
    50    24    22    1
    51    21    20    1
    52    21    22    2
    53    12    13    2
    54    18    15    1
    55    18    19    1
    56    82    81    1
    57    20    19    1
    58    22    23    1
    59   104   102   ar
    60    15    16    1
    61    81    80    1
    62    45    44    1
    63    45    46    2
    64    44    43    1
    65   102   103   ar
    66   102   101    1
    67    86    87    1
    68    16    17    2
    69   101    98    1
    70    87    88    1
    71    87    90    1
    72    94    92   ar
    73    94    96   ar
    74    97    88   am
    75    97    98    1
    76    92    91   ar
    77    88    89    2
    78    31    32    1
    79    31    30    1
    80    98    99    1
    81    96    95   ar
    82    29    30    1
    83    29    26    1
    84    91    90    1
    85    91    93   ar
    86    32    33    1
    87    25    26    1
    88    41    40   ar
    89    42    40   ar
    90    99   100    2
    91    95    93   ar
    92    40    39    1
    93    26    27    1
    94    39    38    1
    95    34    27   am
    96    34    35    1
    97    27    28    2
    98    38    35    1
    99    35    36    1
   100    36    37    2
