@<TRIPOS>MOLECULE
tmp/6gmhP00.pdb
 84 76 0 0 0
SMALL
GASTEIGER

@<TRIPOS>ATOM
      1  N        190.7990  264.2180  119.2510 N.3   337  LYS337     -0.1245
      2  CA       189.6800  263.3150  118.9920 C.3   337  LYS337      0.1561
      3  C        189.7310  262.7590  117.5730 C.2   337  LYS337      0.2260
      4  O        189.4840  261.5650  117.3580 O.2   337  LYS337     -0.2867
      5  CB       188.3460  264.0720  119.2340 C.3   337  LYS337      0.0271
      6  CG       188.0720  264.2490  120.6970 C.3   337  LYS337      0.0035
      7  CD       186.6440  264.7230  120.6510 C.3   337  LYS337      0.0206
      8  CE       186.3310  265.7750  121.6620 C.3   337  LYS337      0.1093
      9  NZ       186.6140  265.3630  123.0190 N.3   337  LYS337     -0.1314
     10  N        192.5660  260.2270  117.5590 N.3   340  LEU340     -0.1245
     11  CA       192.2340  259.0230  118.3120 C.3   340  LEU340      0.1561
     12  C        191.1480  258.2010  117.6320 C.2   340  LEU340      0.2260
     13  O        191.0270  257.0010  117.9010 O.2   340  LEU340     -0.2867
     14  CB       191.7290  259.3800  119.7340 C.3   340  LEU340      0.0270
     15  CG       191.7860  258.3540  120.8470 C.3   340  LEU340      0.0019
     16  CD1      193.2160  257.9440  121.1730 C.3   340  LEU340      0.0001
     17  CD2      191.1050  258.9240  122.0940 C.3   340  LEU340      0.0001
     18  N        193.5130  255.8590  115.2840 N.3   343  ASP343     -0.1225
     19  CA       194.5440  255.0010  115.8470 C.3   343  ASP343      0.1805
     20  C        193.9960  254.1320  116.9770 C.2   343  ASP343      0.2597
     21  O        192.9960  254.4560  117.6210 O.2   343  ASP343     -0.2718
     22  CB       195.7450  255.8400  116.3810 C.3   343  ASP343      0.1424
     23  CG       196.5400  256.5200  115.3320 C.2   343  ASP343      0.3668
     24  OD1      196.4860  256.1100  114.1320 O.co2 343  ASP343     -0.2456
     25  OD2      197.3250  257.4600  115.6890 O.co2 343  ASP343     -0.2456
     26  N        194.6790  253.0080  117.2090 N.am  344  ALA344     -0.1979
     27  CA       194.3530  252.1220  118.3170 C.3   344  ALA344      0.1597
     28  C        195.5750  251.5700  119.0350 C.2   344  ALA344      0.2287
     29  O        195.4130  250.7650  119.9580 O.2   344  ALA344     -0.2864
     30  CB       193.4940  250.9310  117.8390 C.3   344  ALA344      0.0319
     31  N        195.5190  263.8090  124.6620 N.3   353  ILE353     -0.1245
     32  CA       194.1330  264.0630  125.0590 C.3   353  ILE353      0.1561
     33  C        193.9980  264.0960  126.5790 C.2   353  ILE353      0.2260
     34  O        193.2430  264.9070  127.1330 O.2   353  ILE353     -0.2867
     35  CB       193.1630  263.0180  124.4740 C.3   353  ILE353      0.0252
     36  CG1      191.6740  263.4600  124.4490 C.3   353  ILE353      0.0019
     37  CG2      193.3580  261.6340  125.1010 C.3   353  ILE353      0.0019
     38  CD1      190.6440  262.5400  123.7290 C.3   353  ILE353      0.0001
     39  N        192.4620  271.6160  131.7020 N.3   360  LYS360     -0.1245
     40  CA       191.1940  272.2220  132.0710 C.3   360  LYS360      0.1561
     41  C        190.7140  271.6250  133.3930 C.2   360  LYS360      0.2260
     42  O        191.4610  270.9440  134.1020 O.2   360  LYS360     -0.2867
     43  CB       190.1660  271.9900  130.9310 C.3   360  LYS360      0.0271
     44  CG       189.9390  270.5370  130.5950 C.3   360  LYS360      0.0035
     45  CD       189.0890  270.3740  129.3590 C.3   360  LYS360      0.0206
     46  CE       187.6290  270.6030  129.6640 C.3   360  LYS360      0.1093
     47  NZ       186.7960  269.9660  128.6080 N.3   360  LYS360     -0.1314
     48  N        188.6270  269.2240  133.6650 N.3   362  TYR362     -0.1241
     49  CA       188.2820  267.8230  133.4570 C.3   362  TYR362      0.1605
     50  C        189.3880  266.8560  133.8720 C.2   362  TYR362      0.2264
     51  O        189.3200  265.6780  133.4970 O.2   362  TYR362     -0.2867
     52  CB       187.9500  267.5320  131.9580 C.3   362  TYR362      0.0534
     53  CG       187.2400  266.2290  131.6640 C.ar  362  TYR362     -0.0201
     54  CD1      187.8650  264.9940  131.7780 C.ar  362  TYR362     -0.0009
     55  CD2      185.9100  266.2580  131.2500 C.ar  362  TYR362     -0.0009
     56  CE1      187.1870  263.8170  131.4870 C.ar  362  TYR362      0.0417
     57  CE2      185.2280  265.0940  130.9540 C.ar  362  TYR362      0.0417
     58  CZ       185.8720  263.8770  131.0750 C.ar  362  TYR362      0.1957
     59  OH       185.1670  262.7310  130.7760 O.3   362  TYR362     -0.2866
     60  N        188.8680  263.3310  135.2230 N.3   365  GLU365     -0.1245
     61  CA       188.6850  262.2560  134.2590 C.3   365  GLU365      0.1567
     62  C        189.9580  261.9480  133.4830 C.2   365  GLU365      0.2260
     63  O        190.1480  260.7990  133.0630 O.2   365  GLU365     -0.2867
     64  CB       187.5600  262.5780  133.2330 C.3   365  GLU365      0.0388
     65  CG       186.1230  262.4320  133.8470 C.3   365  GLU365      0.1160
     66  CD       185.7990  263.3940  134.9390 C.2   365  GLU365      0.3649
     67  OE1      185.9830  264.5960  134.6380 O.co2 365  GLU365     -0.2457
     68  OE2      185.3850  263.0780  136.0560 O.co2 365  GLU365     -0.2457
     69  N        191.9750  258.6170  132.0370 N.3   369  VAL369     -0.1245
     70  CA       192.6500  258.4150  130.7560 C.3   369  VAL369      0.1561
     71  C        194.1100  258.0560  130.9930 C.2   369  VAL369      0.2260
     72  O        194.6730  257.1800  130.3250 O.2   369  VAL369     -0.2867
     73  CB       192.6130  259.6580  129.8370 C.3   369  VAL369      0.0252
     74  CG1      193.3350  259.4100  128.5180 C.3   369  VAL369      0.0019
     75  CG2      191.1510  259.9940  129.5280 C.3   369  VAL369      0.0019
     76  N        194.1420  254.5520  131.5330 N.3   372  GLN372     -0.1245
     77  CA       194.0040  253.7010  130.3520 C.3   372  GLN372      0.1566
     78  C        195.3220  253.5600  129.6020 C.2   372  GLN372      0.2260
     79  O        195.7220  252.4450  129.2450 O.2   372  GLN372     -0.2867
     80  CB       192.9410  254.2710  129.3610 C.3   372  GLN372      0.0367
     81  CG       191.5610  254.3450  129.9620 C.3   372  GLN372      0.0905
     82  CD       190.5320  254.8820  129.0040 C.2   372  GLN372      0.2608
     83  OE1      190.7720  255.0050  127.8400 O.2   372  GLN372     -0.2717
     84  NE2      189.3750  255.2550  129.5260 N.am  372  GLN372     -0.0878
@<TRIPOS>BOND
     1    24    23   ar
     2    18    19    1
     3    23    25   ar
     4    23    22    1
     5    19    22    1
     6    19    20    1
     7    20    26   am
     8    20    21    2
     9    26    27    1
    10     4     3    2
    11    10    11    1
    12     3     2    1
    13    12    13    2
    14    12    11    1
    15    30    27    1
    16    11    14    1
    17    27    28    1
    18     2     5    1
    19     2     1    1
    20    28    29    2
    21     5     6    1
    22    14    15    1
    23     7     6    1
    24     7     8    1
    25    15    16    1
    26    15    17    1
    27     8     9    1
    28    38    36    1
    29    36    35    1
    30    35    32    1
    31    35    37    1
    32    31    32    1
    33    32    33    1
    34    33    34    2
    35    83    82    2
    36    74    73    1
    37    47    46    1
    38    82    84   am
    39    82    81    1
    40    79    78    2
    41    45    46    1
    42    45    44    1
    43    80    81    1
    44    80    77    1
    45    75    73    1
    46    78    77    1
    47    73    70    1
    48    72    71    2
    49    77    76    1
    50    44    43    1
    51    70    71    1
    52    70    69    1
    53    59    58    1
    54    43    40    1
    55    57    58   ar
    56    57    55   ar
    57    58    56   ar
    58    55    53   ar
    59    56    54   ar
    60    53    54   ar
    61    53    52    1
    62    39    40    1
    63    52    49    1
    64    40    41    1
    65    63    62    2
    66    64    65    1
    67    64    61    1
    68    41    42    2
    69    49    48    1
    70    49    50    1
    71    62    61    1
    72    51    50    2
    73    65    66    1
    74    61    60    1
    75    67    66   ar
    76    66    68   ar
