@<TRIPOS>MOLECULE
tmp/6gmqL00.pdb
 137 131 0 0 0
SMALL
GASTEIGER

@<TRIPOS>ATOM
      1  N        -10.0460   69.5870    5.4000 N.3    56  LEU56      -0.1231
      2  CA        -9.9360   68.4160    6.2440 C.3    56  LEU56       0.1693
      3  C         -8.7940   68.6760    7.2100 C.2    56  LEU56       0.2592
      4  O         -8.0520   69.6430    7.0430 O.2    56  LEU56      -0.2718
      5  CB        -9.7450   67.1350    5.4180 C.3    56  LEU56       0.0284
      6  CG        -8.4580   66.9460    4.6370 C.3    56  LEU56       0.0019
      7  CD1       -7.5140   66.1320    5.4400 C.3    56  LEU56       0.0001
      8  CD2       -8.7710   66.2600    3.3680 C.3    56  LEU56       0.0001
      9  N         -8.6820   67.8520    8.2640 N.am   57  PHE57      -0.1962
     10  CA        -7.7290   68.1480    9.3220 C.3    57  PHE57       0.1771
     11  C         -7.0540   66.8660    9.7740 C.2    57  PHE57       0.2619
     12  O         -7.7160   65.8390    9.9170 O.2    57  PHE57      -0.2715
     13  CB        -8.4100   68.8480   10.5150 C.3    57  PHE57       0.0574
     14  CG        -9.2220   70.0360   10.1230 C.ar   57  PHE57      -0.0200
     15  CD1      -10.4760   69.8830    9.5780 C.ar   57  PHE57      -0.0042
     16  CD2       -8.7250   71.3130   10.2890 C.ar   57  PHE57      -0.0042
     17  CE1      -11.2160   70.9680    9.2050 C.ar   57  PHE57      -0.0003
     18  CE2       -9.4620   72.4130    9.9110 C.ar   57  PHE57      -0.0003
     19  CZ       -10.7070   72.2390    9.3680 C.ar   57  PHE57      -0.0000
     20  N         -5.7350   66.9280    9.9920 N.am   58  ARG58      -0.1977
     21  CA        -4.9270   65.7610   10.3430 C.3    58  ARG58       0.1597
     22  C         -3.9280   66.1410   11.4260 C.2    58  ARG58       0.2287
     23  O         -3.6000   67.3100   11.6020 O.2    58  ARG58      -0.2864
     24  CB        -4.1450   65.1700    9.1570 C.3    58  ARG58       0.0334
     25  CG        -4.8740   65.1340    7.8220 C.3    58  ARG58       0.0492
     26  CD        -5.7840   63.9540    7.6930 C.3    58  ARG58       0.2205
     27  NE        -5.0550   62.7060    7.6010 N.pl3  58  ARG58      -0.0865
     28  CZ        -5.5090   61.6360    6.9580 C.cat  58  ARG58       0.5346
     29  NH1       -6.6730   61.6900    6.3270 N.pl3  58  ARG58       0.1354
     30  NH2       -4.7910   60.5240    6.9150 N.pl3  58  ARG58       0.1354
     31  N         -5.8800   60.6590   10.9580 N.3    65  GLY65      -0.1210
     32  CA        -7.0890   61.3700   10.5760 C.3    65  GLY65       0.1956
     33  C         -7.7920   61.9220   11.8060 C.2    65  GLY65       0.2612
     34  O         -7.7920   61.3130   12.8770 O.2    65  GLY65      -0.2717
     35  N         -8.3520   63.1190   11.6490 N.am   66  LEU66      -0.1965
     36  CA        -9.1180   63.7810   12.6900 C.3    66  LEU66       0.1728
     37  C        -10.4910   64.1070   12.1280 C.2    66  LEU66       0.2616
     38  O        -10.6770   64.1600   10.9100 O.2    66  LEU66      -0.2715
     39  CB        -8.4130   65.0470   13.1740 C.3    66  LEU66       0.0311
     40  CG        -7.0550   64.7460   13.7960 C.3    66  LEU66       0.0022
     41  CD1       -6.3010   66.0090   14.1020 C.3    66  LEU66       0.0001
     42  CD2       -7.2400   63.9110   15.0420 C.3    66  LEU66       0.0001
     43  N        -11.4690   64.2980   13.0120 N.am   67  LEU67      -0.1977
     44  CA       -12.8070   64.6810   12.5770 C.3    67  LEU67       0.1596
     45  C        -12.9950   66.1820   12.7020 C.2    67  LEU67       0.2287
     46  O        -12.4000   66.8410   13.5720 O.2    67  LEU67      -0.2864
     47  CB       -13.8760   63.9590   13.3950 C.3    67  LEU67       0.0297
     48  CG       -13.8260   62.4150   13.3360 C.3    67  LEU67       0.0022
     49  CD1      -14.8110   61.8260   14.2970 C.3    67  LEU67       0.0001
     50  CD2      -14.0570   61.8940   11.9720 C.3    67  LEU67       0.0001
     51  N        -15.4760   63.8740    8.1170 N.3    72  GLU72      -0.1231
     52  CA       -14.1170   64.0430    7.6150 C.3    72  GLU72       0.1699
     53  C        -13.8910   65.3560    6.8740 C.2    72  GLU72       0.2592
     54  O        -12.7420   65.8210    6.8040 O.2    72  GLU72      -0.2718
     55  CB       -13.7450   62.8880    6.6840 C.3    72  GLU72       0.0402
     56  CG       -13.7300   61.5120    7.3190 C.3    72  GLU72       0.1161
     57  CD       -14.9280   60.6610    6.9180 C.2    72  GLU72       0.3649
     58  OE1      -15.8970   61.2150    6.3880 O.co2  72  GLU72      -0.2457
     59  OE2      -14.8940   59.4260    7.1060 O.co2  72  GLU72      -0.2457
     60  N        -14.9360   65.9930    6.3560 N.am   73  LEU73      -0.1980
     61  CA       -14.7740   67.1830    5.5330 C.3    73  LEU73       0.1596
     62  C        -15.6230   68.3250    6.0670 C.2    73  LEU73       0.2287
     63  O        -16.7620   68.1240    6.4930 O.2    73  LEU73      -0.2864
     64  CB       -15.1690   66.8730    4.0880 C.3    73  LEU73       0.0297
     65  CG       -14.4020   65.7610    3.3790 C.3    73  LEU73       0.0022
     66  CD1      -15.0430   65.4250    2.0220 C.3    73  LEU73       0.0001
     67  CD2      -12.9340   66.1710    3.2180 C.3    73  LEU73       0.0001
     68  N        -11.0450   61.2230   16.7970 N.3    92  PRO92      -0.2116
     69  CA       -12.0120   60.1330   16.6720 C.3    92  PRO92       0.1372
     70  C        -11.7950   59.0880   17.7490 C.2    92  PRO92       0.2244
     71  O        -10.7290   58.9740   18.3510 O.2    92  PRO92      -0.2868
     72  CB       -11.7180   59.5230   15.2910 C.3    92  PRO92       0.0268
     73  CG       -10.6580   60.3570   14.6970 C.3    92  PRO92       0.0207
     74  CD        -9.9840   61.1280   15.7950 C.3    92  PRO92       0.0892
     75  N        -10.5970   56.0610   17.6290 N.3    94  TYR94      -0.1241
     76  CA        -9.8590   55.0770   16.8510 C.3    94  TYR94       0.1605
     77  C        -10.2050   53.6500   17.2720 C.2    94  TYR94       0.2264
     78  O        -10.5220   53.3680   18.4310 O.2    94  TYR94      -0.2867
     79  CB        -8.3660   55.3060   17.0200 C.3    94  TYR94       0.0534
     80  CG        -7.8580   56.6110   16.4670 C.ar   94  TYR94      -0.0201
     81  CD1       -7.8940   56.8840   15.0900 C.ar   94  TYR94      -0.0009
     82  CD2       -7.3030   57.5630   17.3040 C.ar   94  TYR94      -0.0009
     83  CE1       -7.4080   58.0870   14.5870 C.ar   94  TYR94       0.0417
     84  CE2       -6.7970   58.7720   16.7990 C.ar   94  TYR94       0.0417
     85  CZ        -6.8460   59.0170   15.4530 C.ar   94  TYR94       0.1957
     86  OH        -6.3510   60.2060   14.9930 O.3    94  TYR94      -0.2866
     87  N         -5.7920   50.3950   15.4250 N.3    98  GLU98      -0.1245
     88  CA        -5.2140   51.6050   14.8550 C.3    98  GLU98       0.1567
     89  C         -4.5230   52.4300   15.9290 C.2    98  GLU98       0.2260
     90  O         -3.4680   53.0310   15.6870 O.2    98  GLU98      -0.2867
     91  CB        -6.3030   52.4130   14.1530 C.3    98  GLU98       0.0388
     92  CG        -5.7930   53.5700   13.3080 C.3    98  GLU98       0.1160
     93  CD        -4.7240   53.1630   12.2980 C.2    98  GLU98       0.3649
     94  OE1       -5.0290   52.3160   11.4310 O.co2  98  GLU98      -0.2457
     95  OE2       -3.5890   53.6970   12.3640 O.co2  98  GLU98      -0.2457
     96  N         -3.0680   61.1460    3.2970 N.3   132  VAL132     -0.1245
     97  CA        -4.2060   61.9820    2.9170 C.3   132  VAL132      0.1561
     98  C         -4.6740   61.6380    1.5110 C.2   132  VAL132      0.2260
     99  O         -5.8740   61.4600    1.2660 O.2   132  VAL132     -0.2867
    100  CB        -3.8360   63.4760    3.0300 C.3   132  VAL132      0.0252
    101  CG1       -5.0130   64.3770    2.6390 C.3   132  VAL132      0.0019
    102  CG2       -3.3880   63.8240    4.4490 C.3   132  VAL132      0.0019
    103  N         -6.6440   58.3280    1.6900 N.3   135  ASP135     -0.1225
    104  CA        -7.9490   58.5650    2.3150 C.3   135  ASP135      0.1805
    105  C         -8.8630   59.3580    1.3930 C.2   135  ASP135      0.2597
    106  O        -10.0620   59.0870    1.3280 O.2   135  ASP135     -0.2718
    107  CB        -7.7950   59.3080    3.6380 C.3   135  ASP135      0.1424
    108  CG        -7.0010   58.5440    4.6540 C.2   135  ASP135      0.3668
    109  OD1       -6.5840   57.4040    4.3970 O.co2 135  ASP135     -0.2456
    110  OD2       -6.7710   59.1020    5.7320 O.co2 135  ASP135     -0.2456
    111  N         -8.3110   60.3330    0.6630 N.am  136  LEU136     -0.1979
    112  CA        -9.0920   61.0520   -0.3360 C.3   136  LEU136      0.1596
    113  C         -9.5420   60.1230   -1.4520 C.2   136  LEU136      0.2287
    114  O        -10.6690   60.2490   -1.9480 O.2   136  LEU136     -0.2864
    115  CB        -8.3030   62.2340   -0.9020 C.3   136  LEU136      0.0297
    116  CG        -8.3380   63.4710    0.0120 C.3   136  LEU136      0.0022
    117  CD1       -7.5570   64.6300   -0.5720 C.3   136  LEU136      0.0001
    118  CD2       -9.7610   63.8810    0.3210 C.3   136  LEU136      0.0001
    119  N        -10.1110   56.9190   -1.0900 N.3   138  ARG138     -0.1231
    120  CA       -11.1400   56.0880   -0.4780 C.3   138  ARG138      0.1694
    121  C        -12.4730   56.8200   -0.3910 C.2   138  ARG138      0.2591
    122  O        -13.5170   56.2690   -0.7700 O.2   138  ARG138     -0.2718
    123  CB       -10.6780   55.6190    0.8980 C.3   138  ARG138      0.0321
    124  CG       -11.8140   55.1840    1.7870 C.3   138  ARG138      0.0489
    125  CD       -11.3310   54.4050    2.9810 C.3   138  ARG138      0.2205
    126  NE       -10.6760   55.1920    4.0300 N.pl3 138  ARG138     -0.0865
    127  CZ       -11.2270   56.1910    4.7230 C.cat 138  ARG138      0.5346
    128  NH1      -12.4610   56.6040    4.4550 N.pl3 138  ARG138      0.1354
    129  NH2      -10.5310   56.7820    5.6930 N.pl3 138  ARG138      0.1354
    130  N        -12.4550   58.0780    0.0820 N.am  139  LEU139     -0.1980
    131  CA       -13.7040   58.8130    0.2450 C.3   139  LEU139      0.1596
    132  C        -14.3580   59.0740   -1.1030 C.2   139  LEU139      0.2287
    133  O        -15.5910   59.1040   -1.2000 O.2   139  LEU139     -0.2864
    134  CB       -13.4690   60.1400    0.9620 C.3   139  LEU139      0.0297
    135  CG       -13.2010   60.1510    2.4720 C.3   139  LEU139      0.0022
    136  CD1      -12.9910   61.5790    2.9790 C.3   139  LEU139      0.0001
    137  CD2      -14.3090   59.4590    3.2350 C.3   139  LEU139      0.0001
@<TRIPOS>BOND
     1   114   113    2
     2   113   112    1
     3   133   132    2
     4   132   131    1
     5   119   120    1
     6   115   112    1
     7   115   116    1
     8   122   121    2
     9   117   116    1
    10   120   121    1
    11   120   123    1
    12   121   130   am
    13   112   111    1
    14   116   118    1
    15   130   131    1
    16   131   134    1
    17   111   105   am
    18   123   124    1
    19   134   135    1
    20    99    98    2
    21   106   105    2
    22   105   104    1
    23    98    97    1
    24   103   104    1
    25   124   125    1
    26    66    65    1
    27   104   107    1
    28   135   136    1
    29   135   137    1
    30   101   100    1
    31    97   100    1
    32    97    96    1
    33   125   126    1
    34   100   102    1
    35    67    65    1
    36     8     6    1
    37    65    64    1
    38   107   108    1
    39   126   127    2
    40    64    61    1
    41   109   108   ar
    42   128   127    1
    43     6     5    1
    44     6     7    1
    45   108   110   ar
    46   127   129    1
    47     1     2    1
    48     5     2    1
    49    61    62    1
    50    61    60    1
    51    62    63    2
    52     2     3    1
    53    29    28    1
    54    60    53   am
    55    58    57   ar
    56    55    56    1
    57    55    52    1
    58    54    53    2
    59    53    52    1
    60    30    28    1
    61    57    59   ar
    62    57    56    1
    63    28    27    2
    64     4     3    2
    65     3     9   am
    66    27    26    1
    67    52    51    1
    68    26    25    1
    69    25    24    1
    70     9    10    1
    71    24    21    1
    72    17    19   ar
    73    17    15   ar
    74    10    11    1
    75    10    13    1
    76    19    18   ar
    77    15    14   ar
    78    11    12    2
    79    11    20   am
    80    18    16   ar
    81    20    21    1
    82    14    16   ar
    83    14    13    1
    84    21    22    1
    85    32    31    1
    86    32    33    1
    87    38    37    2
    88    22    23    2
    89    94    93   ar
    90    35    33   am
    91    35    36    1
    92    33    34    2
    93    50    48    1
    94    37    36    1
    95    37    43   am
    96    93    95   ar
    97    93    92    1
    98    44    45    1
    99    44    43    1
   100    44    47    1
   101    36    39    1
   102    45    46    2
   103    39    40    1
   104    92    91    1
   105    48    47    1
   106    48    49    1
   107    40    41    1
   108    40    42    1
   109    91    88    1
   110    83    81   ar
   111    83    85   ar
   112    73    72    1
   113    73    74    1
   114    88    87    1
   115    88    89    1
   116    86    85    1
   117    81    80   ar
   118    72    69    1
   119    85    84   ar
   120    90    89    2
   121    74    68    1
   122    80    79    1
   123    80    82   ar
   124    69    68    1
   125    69    70    1
   126    84    82   ar
   127    76    79    1
   128    76    77    1
   129    76    75    1
   130    77    78    2
   131    70    71    2
