@<TRIPOS>MOLECULE
tmp/6gn1B00.pdb
 132 123 0 0 0
SMALL
GASTEIGER

@<TRIPOS>ATOM
      1  N         12.9150    8.5730  -48.8140 N.3    27  ILE27      -0.1231
      2  CA        12.0930    7.6790  -49.6270 C.3    27  ILE27       0.1692
      3  C         11.1910    6.7860  -48.7970 C.2    27  ILE27       0.2592
      4  O         10.3680    6.0520  -49.3820 O.2    27  ILE27      -0.2718
      5  CB        12.9490    6.8120  -50.5810 C.3    27  ILE27       0.0266
      6  CG1       13.8420    5.8420  -49.8080 C.3    27  ILE27       0.0019
      7  CG2       13.7610    7.6790  -51.5180 C.3    27  ILE27       0.0020
      8  CD1       14.6350    4.9230  -50.7190 C.3    27  ILE27       0.0001
      9  N         11.3090    6.8000  -47.4740 N.am   28  GLY28      -0.1957
     10  CA        10.5180    5.9580  -46.6010 C.3    28  GLY28       0.1869
     11  C         10.5110    6.4740  -45.1750 C.2    28  GLY28       0.2309
     12  O         11.5520    6.8900  -44.6610 O.2    28  GLY28      -0.2863
     13  N          9.5410    0.5700  -39.7580 N.3    32  PHE32      -0.1241
     14  CA        10.9300    0.2080  -40.0120 C.3    32  PHE32       0.1605
     15  C         11.9170    1.3070  -39.6360 C.2    32  PHE32       0.2264
     16  O         13.1070    1.0070  -39.4660 O.2    32  PHE32      -0.2867
     17  CB        11.0720   -0.2140  -41.4840 C.3    32  PHE32       0.0534
     18  CG        10.4200    0.7280  -42.4880 C.ar   32  PHE32      -0.0203
     19  CD1       10.9620    1.9780  -42.7620 C.ar   32  PHE32      -0.0042
     20  CD2        9.2920    0.3300  -43.2020 C.ar   32  PHE32      -0.0042
     21  CE1       10.3750    2.8250  -43.7020 C.ar   32  PHE32      -0.0003
     22  CE2        8.7000    1.1690  -44.1420 C.ar   32  PHE32      -0.0003
     23  CZ         9.2420    2.4180  -44.3930 C.ar   32  PHE32      -0.0000
     24  N         13.9730    6.0860  -43.8940 N.3    35  VAL35      -0.1245
     25  CA        14.8710    5.6330  -44.9560 C.3    35  VAL35       0.1561
     26  C         15.0530    6.7210  -46.0070 C.2    35  VAL35       0.2260
     27  O         14.0750    7.2780  -46.5200 O.2    35  VAL35      -0.2867
     28  CB        14.3850    4.3280  -45.6120 C.3    35  VAL35       0.0252
     29  CG1       15.4040    3.8620  -46.6360 C.3    35  VAL35       0.0019
     30  CG2       14.2010    3.2540  -44.5580 C.3    35  VAL35       0.0019
     31  N         20.6110    3.1920  -50.3120 N.3    48  ALA48      -0.1245
     32  CA        19.5670    3.5190  -49.3520 C.3    48  ALA48       0.1562
     33  C         20.1770    3.5320  -47.9560 C.2    48  ALA48       0.2260
     34  O         21.0020    2.6750  -47.6230 O.2    48  ALA48      -0.2867
     35  CB        18.4090    2.5170  -49.4080 C.3    48  ALA48       0.0290
     36  N         19.0920    3.4340  -44.0040 N.3    50  LYS50      -0.1245
     37  CA        18.0530    3.1350  -43.0230 C.3    50  LYS50       0.1561
     38  C         18.4950    3.5910  -41.6350 C.2    50  LYS50       0.2260
     39  O         19.5420    3.1540  -41.1380 O.2    50  LYS50      -0.2867
     40  CB        17.7390    1.6390  -43.0300 C.3    50  LYS50       0.0271
     41  CG        16.7690    1.1770  -41.9700 C.3    50  LYS50       0.0035
     42  CD        16.3620   -0.2600  -42.2280 C.3    50  LYS50       0.0206
     43  CE        15.3610   -0.7160  -41.1890 C.3    50  LYS50       0.1093
     44  NZ        14.9160   -2.1220  -41.3820 N.3    50  LYS50      -0.1314
     45  N         19.8910   -7.8350  -49.6080 N.3    75  VAL75      -0.1245
     46  CA        20.4650   -6.4950  -49.6970 C.3    75  VAL75       0.1561
     47  C         21.6970   -6.4210  -48.8100 C.2    75  VAL75       0.2260
     48  O         21.6680   -6.8100  -47.6360 O.2    75  VAL75      -0.2867
     49  CB        19.4420   -5.4240  -49.2820 C.3    75  VAL75       0.0252
     50  CG1       20.1140   -4.0530  -49.2170 C.3    75  VAL75       0.0019
     51  CG2       18.2810   -5.4120  -50.2280 C.3    75  VAL75       0.0019
     52  N         22.9610    0.8440  -47.3440 N.3    92  LEU92      -0.1231
     53  CA        22.5950   -0.3970  -48.0010 C.3    92  LEU92       0.1693
     54  C         22.5550   -0.1960  -49.5090 C.2    92  LEU92       0.2592
     55  O         22.4030    0.9220  -50.0080 O.2    92  LEU92      -0.2718
     56  CB        21.2240   -0.8940  -47.5040 C.3    92  LEU92       0.0284
     57  CG        21.0610   -1.1250  -45.9970 C.3    92  LEU92       0.0019
     58  CD1       19.6430   -0.7930  -45.5470 C.3    92  LEU92       0.0001
     59  CD2       21.3990   -2.5550  -45.6180 C.3    92  LEU92       0.0001
     60  N         22.6800   -1.3040  -50.2310 N.am   93  ASP93      -0.1960
     61  CA        22.5430   -1.2390  -51.6750 C.3    93  ASP93       0.1840
     62  C         21.1280   -0.8090  -52.0240 C.2    93  ASP93       0.2622
     63  O         20.1500   -1.2930  -51.4470 O.2    93  ASP93      -0.2715
     64  CB        22.8710   -2.5860  -52.3180 C.3    93  ASP93       0.1450
     65  CG        24.3650   -2.8310  -52.4580 C.2    93  ASP93       0.3671
     66  OD1       25.1420   -1.8540  -52.5160 O.co2  93  ASP93      -0.2456
     67  OD2       24.7600   -4.0140  -52.5340 O.co2  93  ASP93      -0.2456
     68  N         21.0290    0.1500  -52.9350 N.am   94  TYR94      -0.1960
     69  CA        19.7330    0.6160  -53.3940 C.3    94  TYR94       0.1771
     70  C         19.1200   -0.3750  -54.3680 C.2    94  TYR94       0.2619
     71  O         19.8010   -0.9010  -55.2510 O.2    94  TYR94      -0.2715
     72  CB        19.8620    1.9700  -54.0720 C.3    94  TYR94       0.0574
     73  CG        18.5300    2.5140  -54.4930 C.ar   94  TYR94      -0.0198
     74  CD1       17.6490    3.0200  -53.5540 C.ar   94  TYR94      -0.0009
     75  CD2       18.1420    2.5040  -55.8260 C.ar   94  TYR94      -0.0009
     76  CE1       16.4230    3.5210  -53.9270 C.ar   94  TYR94       0.0417
     77  CE2       16.9220    3.0010  -56.2110 C.ar   94  TYR94       0.0417
     78  CZ        16.0620    3.5080  -55.2610 C.ar   94  TYR94       0.1957
     79  OH        14.8410    4.0070  -55.6570 O.3    94  TYR94      -0.2866
     80  N         17.8220   -0.6070  -54.2190 N.am   95  VAL95      -0.1977
     81  CA        17.0790   -1.4650  -55.1360 C.3    95  VAL95       0.1596
     82  C         15.8170   -0.7020  -55.5220 C.2    95  VAL95       0.2287
     83  O         15.1160   -0.1940  -54.6370 O.2    95  VAL95      -0.2864
     84  CB        16.7750   -2.8360  -54.5120 C.3    95  VAL95       0.0276
     85  CG1       16.2450   -3.7940  -55.5680 C.3    95  VAL95       0.0022
     86  CG2       18.0160   -3.4190  -53.8440 C.3    95  VAL95       0.0022
     87  N          9.7560   -3.0390  -55.6290 N.3    98  THR98      -0.1218
     88  CA         9.3450   -4.0830  -54.6940 C.3    98  THR98       0.1862
     89  C          8.3280   -4.9970  -55.3720 C.2    98  THR98       0.2287
     90  O          7.6720   -4.6170  -56.3440 O.2    98  THR98      -0.2866
     91  CB         8.7240   -3.5060  -53.3990 C.3    98  THR98       0.1770
     92  OG1        7.4180   -2.9950  -53.6760 O.3    98  THR98      -0.2211
     93  CG2        9.5810   -2.3870  -52.8130 C.3    98  THR98       0.0375
     94  N          6.3680   -6.2430  -49.4090 N.3   145  GLN145     -0.1231
     95  CA         7.1100   -4.9800  -49.3770 C.3   145  GLN145      0.1698
     96  C          8.5830   -5.1840  -49.0360 C.2   145  GLN145      0.2592
     97  O          9.4000   -4.2990  -49.3250 O.2   145  GLN145     -0.2718
     98  CB         6.4640   -3.9660  -48.4200 C.3   145  GLN145      0.0381
     99  CG         5.4970   -2.8990  -49.0860 C.3   145  GLN145      0.0905
    100  CD         6.2000   -1.6540  -49.6850 C.2   145  GLN145      0.2608
    101  OE1        6.2830   -1.4970  -50.9060 O.2   145  GLN145     -0.2717
    102  NE2        6.6650   -0.7560  -48.8210 N.am  145  GLN145     -0.0878
    103  N          8.9570   -6.3400  -48.4880 N.am  146  ASN146     -0.1974
    104  CA        10.3350   -6.6320  -48.1100 C.3   146  ASN146      0.1688
    105  C         11.1030   -7.3860  -49.1860 C.2   146  ASN146      0.2292
    106  O         12.2590   -7.7640  -48.9550 O.2   146  ASN146     -0.2864
    107  CB        10.3600   -7.4160  -46.7960 C.3   146  ASN146      0.1181
    108  CG         9.9820   -6.5590  -45.6110 C.2   146  ASN146      0.2629
    109  OD1       10.1220   -5.3380  -45.6480 O.2   146  ASN146     -0.2716
    110  ND2        9.4970   -7.1920  -44.5510 N.am  146  ASN146     -0.0877
    111  N         12.6400   -6.7480  -52.6140 N.3   148  LEU148     -0.1245
    112  CA        13.0430   -5.6910  -53.5410 C.3   148  LEU148      0.1561
    113  C         13.4430   -6.2630  -54.9000 C.2   148  LEU148      0.2260
    114  O         14.0330   -7.3460  -54.9780 O.2   148  LEU148     -0.2867
    115  CB        14.1940   -4.8740  -52.9470 C.3   148  LEU148      0.0270
    116  CG        14.0480   -4.3730  -51.5040 C.3   148  LEU148      0.0019
    117  CD1       15.2400   -3.5370  -51.0840 C.3   148  LEU148      0.0001
    118  CD2       12.7640   -3.5850  -51.3150 C.3   148  LEU148      0.0001
    119  N         15.0140   -7.8550  -47.8470 N.3   159  CYS159     -0.1221
    120  CA        15.4860   -6.7370  -47.0320 C.3   159  CYS159      0.1808
    121  C         14.7830   -6.7350  -45.6800 C.2   159  CYS159      0.2601
    122  O         13.9320   -7.5800  -45.3950 O.2   159  CYS159     -0.2717
    123  CB        15.2890   -5.3880  -47.7440 C.3   159  CYS159      0.0970
    124  SG        13.5650   -4.8680  -47.8540 S.3   159  CYS159     -0.0800
    125  N         15.1620   -5.7550  -44.8480 N.am  160  ASP160     -0.1973
    126  CA        14.6230   -5.5440  -43.5030 C.3   160  ASP160      0.1709
    127  C         14.8380   -6.7420  -42.5970 C.2   160  ASP160      0.2293
    128  O         13.9890   -7.6310  -42.5150 O.2   160  ASP160     -0.2864
    129  CB        13.1320   -5.1860  -43.5160 C.3   160  ASP160      0.1436
    130  CG        12.6210   -4.7700  -42.1270 C.2   160  ASP160      0.3671
    131  OD1       13.4330   -4.7280  -41.1780 O.co2 160  ASP160     -0.2456
    132  OD2       11.4140   -4.4660  -41.9800 O.co2 160  ASP160     -0.2456
@<TRIPOS>BOND
     1    90    89    2
     2    77    75   ar
     3    77    78   ar
     4    75    73   ar
     5    79    78    1
     6    87    88    1
     7    85    84    1
     8    82    81    1
     9    82    83    2
    10    89    88    1
    11    78    76   ar
    12    71    70    2
    13    81    84    1
    14    81    80    1
    15   114   113    2
    16   113   112    1
    17    88    91    1
    18    84    86    1
    19    73    72    1
    20    73    74   ar
    21    70    80   am
    22    70    69    1
    23    72    69    1
    24    76    74   ar
    25    92    91    1
    26   112   115    1
    27   112   111    1
    28    91    93    1
    29    69    68    1
    30   115   116    1
    31    68    62   am
    32    67    65   ar
    33    66    65   ar
    34    65    64    1
    35    64    61    1
    36    62    61    1
    37    62    63    2
    38    61    60    1
    39     7     5    1
    40   116   118    1
    41   116   117    1
    42   101   100    2
    43     8     6    1
    44     5     6    1
    45     5     2    1
    46    31    32    1
    47    60    54   am
    48    51    49    1
    49    55    54    2
    50    46    45    1
    51    46    49    1
    52    46    47    1
    53   100    99    1
    54   100   102   am
    55     2     1    1
    56     2     3    1
    57    54    53    1
    58    94    95    1
    59    35    32    1
    60     4     3    2
    61    95    96    1
    62    95    98    1
    63    32    33    1
    64    97    96    2
    65    49    50    1
    66   105   106    2
    67   105   104    1
    68    99    98    1
    69    96   103   am
    70    47    48    2
    71     3     9   am
    72   103   104    1
    73   104   107    1
    74    53    56    1
    75    53    52    1
    76    33    34    2
    77   124   123    1
    78   119   120    1
    79   123   120    1
    80    56    57    1
    81     9    10    1
    82   120   121    1
    83   107   108    1
    84    29    28    1
    85    10    11    1
    86    27    26    2
    87    26    25    1
    88    57    59    1
    89    57    58    1
    90   121   122    2
    91   121   125   am
    92   109   108    2
    93    28    25    1
    94    28    30    1
    95   108   110   am
    96    11    12    2
    97    25    24    1
    98   125   126    1
    99    23    22   ar
   100    23    21   ar
   101    22    20   ar
   102    36    37    1
   103    21    19   ar
   104   129   126    1
   105   129   130    1
   106   126   127    1
   107    20    18   ar
   108    40    37    1
   109    40    41    1
   110    37    38    1
   111    19    18   ar
   112   127   128    2
   113    18    17    1
   114    42    41    1
   115    42    43    1
   116   130   132   ar
   117   130   131   ar
   118    38    39    2
   119    17    14    1
   120    44    43    1
   121    14    13    1
   122    14    15    1
   123    15    16    2
