@<TRIPOS>MOLECULE
tmp/6gn6F00.pdb
 149 150 0 0 0
SMALL
GASTEIGER

@<TRIPOS>ATOM
      1  N        -16.7640   59.3180   68.3400 N.3    25  PHE25      -0.1241
      2  CA       -15.3170   59.5510   68.5600 C.3    25  PHE25       0.1605
      3  C        -14.7070   59.7270   67.1790 C.2    25  PHE25       0.2264
      4  O        -15.0440   59.0260   66.2550 O.2    25  PHE25      -0.2867
      5  CB       -14.6640   58.3190   69.2170 C.3    25  PHE25       0.0534
      6  CG       -13.7250   58.5850   70.3730 C.ar   25  PHE25      -0.0203
      7  CD1      -12.9080   59.6760   70.4060 C.ar   25  PHE25      -0.0042
      8  CD2      -13.6220   57.6640   71.4140 C.ar   25  PHE25      -0.0042
      9  CE1      -12.0000   59.8560   71.4510 C.ar   25  PHE25      -0.0003
     10  CE2      -12.7240   57.8480   72.4610 C.ar   25  PHE25      -0.0003
     11  CZ       -11.9510   58.9720   72.5130 C.ar   25  PHE25      -0.0000
     12  N        -10.8970   59.8870   65.5780 N.3    27  HIS27      -0.1241
     13  CA        -9.4520   59.8100   65.5700 C.3    27  HIS27       0.1621
     14  C         -8.9400   60.0950   64.1830 C.2    27  HIS27       0.2264
     15  O         -9.0470   59.2580   63.2740 O.2    27  HIS27      -0.2867
     16  CB        -8.9690   58.4280   65.9850 C.3    27  HIS27       0.0745
     17  CG        -9.1060   58.2030   67.4340 C.ar   27  HIS27       0.0817
     18  ND1      -10.3240   58.0610   68.0230 N.ar   27  HIS27      -0.2268
     19  CD2       -8.1820   58.1120   68.4200 C.ar   27  HIS27       0.1154
     20  CE1      -10.1440   57.8450   69.3140 C.ar   27  HIS27       0.1986
     21  NE2       -8.8600   57.8970   69.5820 N.ar   27  HIS27      -0.2212
     22  N         -2.8410   54.5410   65.3200 N.3    38  GLU38      -0.1231
     23  CA        -2.3130   55.8350   65.8230 C.3    38  GLU38       0.1699
     24  C         -1.0730   55.6150   66.7010 C.2    38  GLU38       0.2592
     25  O         -0.2810   56.5330   66.9770 O.2    38  GLU38      -0.2718
     26  CB        -3.3990   56.6340   66.5660 C.3    38  GLU38       0.0402
     27  CG        -3.9730   55.9990   67.8470 C.3    38  GLU38       0.1161
     28  CD        -4.6400   54.6340   67.6620 C.2    38  GLU38       0.3649
     29  OE1       -5.0830   54.2950   66.5210 O.co2  38  GLU38      -0.2457
     30  OE2       -4.7480   53.8700   68.6650 O.co2  38  GLU38      -0.2457
     31  N         -0.8580   54.3620   67.0950 N.am   39  TRP39      -0.1976
     32  CA         0.3470   54.0050   67.8830 C.3    39  TRP39       0.1640
     33  C          1.5590   53.6790   67.0110 C.2    39  TRP39       0.2290
     34  O          2.5490   53.2030   67.5600 O.2    39  TRP39      -0.2864
     35  CB         0.0960   52.8080   68.8110 C.3    39  TRP39       0.0576
     36  CG        -0.5670   53.1970   70.0550 C.ar   39  TRP39       0.0006
     37  CD1       -1.7860   53.7380   70.1620 C.ar   39  TRP39       0.0946
     38  CD2       -0.0510   53.0640   71.4010 C.ar   39  TRP39       0.0152
     39  NE1       -2.1060   53.9120   71.4860 N.ar   39  TRP39      -0.2442
     40  CE2       -1.0560   53.5280   72.2700 C.ar   39  TRP39       0.0810
     41  CE3        1.1070   52.5180   71.9550 C.ar   39  TRP39       0.0012
     42  CZ2       -0.9330   53.4860   73.6700 C.ar   39  TRP39       0.0191
     43  CZ3        1.2460   52.5120   73.3410 C.ar   39  TRP39       0.0001
     44  CH2        0.2260   52.9760   74.1850 C.ar   39  TRP39       0.0015
     45  N         -2.9950   63.8860   69.3940 N.3    86  HIS86      -0.1226
     46  CA        -2.8510   62.5400   69.8550 C.3    86  HIS86       0.1752
     47  C         -1.3970   62.3470   70.3910 C.2    86  HIS86       0.2596
     48  O         -0.6220   63.3280   70.5410 O.2    86  HIS86      -0.2718
     49  CB        -3.3470   61.5580   68.7450 C.3    86  HIS86       0.0759
     50  CG        -3.7800   60.2410   69.3120 C.ar   86  HIS86       0.0818
     51  ND1       -2.8850   59.2370   69.5740 N.ar   86  HIS86      -0.2268
     52  CD2       -4.9610   59.8280   69.8540 C.ar   86  HIS86       0.1154
     53  CE1       -3.5110   58.2550   70.2320 C.ar   86  HIS86       0.1986
     54  NE2       -4.7710   58.5730   70.3970 N.ar   86  HIS86      -0.2212
     55  N         -1.0330   61.0950   70.7230 N.am   87  HIS87      -0.1975
     56  CA         0.2580   60.7580   71.3180 C.3    87  HIS87       0.1656
     57  C          1.4350   61.2270   70.4540 C.2    87  HIS87       0.2291
     58  O          2.4170   61.6840   70.9830 O.2    87  HIS87      -0.2864
     59  CB         0.3680   59.2600   71.5990 C.3    87  HIS87       0.0771
     60  CG        -0.7340   58.6900   72.4360 C.ar   87  HIS87       0.0820
     61  ND1       -1.5100   59.4800   73.2730 N.ar   87  HIS87      -0.2267
     62  CD2       -1.2050   57.4180   72.5370 C.ar   87  HIS87       0.1154
     63  CE1       -2.3750   58.6990   73.9100 C.ar   87  HIS87       0.1986
     64  NE2       -2.2240   57.4340   73.4730 N.ar   87  HIS87      -0.2212
     65  N        -10.6050   65.8320   72.2660 N.3   129  TYR129     -0.1298
     66  CA        -9.7170   64.8850   72.8550 C.3   129  TYR129      0.1290
     67  C         -8.3240   65.5250   72.8420 C.3   129  TYR129      0.2013
     68  O         -7.9220   66.2290   71.8370 O.3   129  TYR129     -0.2188
     69  CB        -9.7990   63.5800   72.0700 C.3   129  TYR129      0.0480
     70  CG        -8.7190   62.6010   72.3950 C.ar  129  TYR129     -0.0204
     71  CD1       -7.4200   62.8400   71.9590 C.ar  129  TYR129     -0.0009
     72  CD2       -8.9750   61.4560   73.1300 C.ar  129  TYR129     -0.0009
     73  CE1       -6.3970   61.9660   72.2150 C.ar  129  TYR129      0.0417
     74  CE2       -7.9540   60.5370   73.3530 C.ar  129  TYR129      0.0417
     75  CZ        -6.6630   60.7850   72.8900 C.ar  129  TYR129      0.1957
     76  OH        -5.5920   59.9500   73.1380 O.3   129  TYR129     -0.2866
     77  N        -11.4870   65.3450   76.7090 N.3   188  TRP188     -0.1241
     78  CA       -11.2020   63.9320   76.8710 C.3   188  TRP188      0.1605
     79  C         -9.6590   63.7110   76.8780 C.2   188  TRP188      0.2264
     80  O         -8.9960   63.6370   75.8240 O.2   188  TRP188     -0.2867
     81  CB       -11.9430   63.2240   75.7140 C.3   188  TRP188      0.0550
     82  CG       -12.5370   61.8680   75.9750 C.ar  188  TRP188      0.0003
     83  CD1      -13.8640   61.5460   76.0820 C.ar  188  TRP188      0.0946
     84  CD2      -11.8160   60.6330   76.0600 C.ar  188  TRP188      0.0152
     85  NE1      -14.0040   60.1780   76.2340 N.ar  188  TRP188     -0.2442
     86  CE2      -12.7640   59.6010   76.2150 C.ar  188  TRP188      0.0810
     87  CE3      -10.4540   60.3040   76.0320 C.ar  188  TRP188      0.0012
     88  CZ2      -12.3920   58.2700   76.3570 C.ar  188  TRP188      0.0191
     89  CZ3      -10.0850   58.9720   76.1620 C.ar  188  TRP188      0.0001
     90  CH2      -11.0460   57.9780   76.3370 C.ar  188  TRP188      0.0015
     91  N         -6.0580   61.7710   77.7380 N.3   190  ASP190     -0.1225
     92  CA        -5.5900   60.4230   77.5350 C.3   190  ASP190      0.1805
     93  C         -4.0430   60.4130   77.5540 C.2   190  ASP190      0.2597
     94  O         -3.4230   61.1850   76.8040 O.2   190  ASP190     -0.2718
     95  CB        -6.1600   59.9970   76.1920 C.3   190  ASP190      0.1424
     96  CG        -6.3020   58.5260   76.0230 C.2   190  ASP190      0.3668
     97  OD1       -6.5250   57.8420   77.0230 O.co2 190  ASP190     -0.2456
     98  OD2       -6.2110   58.0570   74.8660 O.co2 190  ASP190     -0.2456
     99  N         -3.3830   59.5830   78.3720 N.am  191  PHE191     -0.1976
    100  CA        -3.8820   58.9150   79.5460 C.3   191  PHE191      0.1639
    101  C         -2.7590   58.9120   80.5950 C.2   191  PHE191      0.2290
    102  O         -1.6270   59.1340   80.2740 O.2   191  PHE191     -0.2864
    103  CB        -4.2520   57.4580   79.2260 C.3   191  PHE191      0.0560
    104  CG        -3.1560   56.6280   78.6020 C.ar  191  PHE191     -0.0200
    105  CD1       -3.0040   56.5550   77.2180 C.ar  191  PHE191     -0.0042
    106  CD2       -2.2970   55.8640   79.3890 C.ar  191  PHE191     -0.0042
    107  CE1       -2.0280   55.7550   76.6250 C.ar  191  PHE191     -0.0003
    108  CE2       -1.3490   55.0340   78.7910 C.ar  191  PHE191     -0.0003
    109  CZ        -1.2090   54.9890   77.4060 C.ar  191  PHE191     -0.0000
    110  N         -9.0200   60.1990   83.2160 N.3   222  ARG222     -0.1245
    111  CA        -7.7380   59.6480   82.8160 C.3   222  ARG222      0.1563
    112  C         -6.5480   60.5210   83.2600 C.2   222  ARG222      0.2260
    113  O         -5.4200   60.2850   82.7780 O.2   222  ARG222     -0.2867
    114  CB        -7.7520   59.3510   81.3060 C.3   222  ARG222      0.0307
    115  CG        -8.6210   58.1470   80.9900 C.3   222  ARG222      0.0489
    116  CD        -8.4870   57.6950   79.5540 C.3   222  ARG222      0.2205
    117  NE        -9.5280   56.7100   79.2650 N.pl3 222  ARG222     -0.0865
    118  CZ        -9.4370   55.7670   78.3190 C.cat 222  ARG222      0.5346
    119  NH1       -8.3800   55.7110   77.5220 N.pl3 222  ARG222      0.1354
    120  NH2      -10.3970   54.8700   78.1880 N.pl3 222  ARG222      0.1354
    121  N        -13.1110   50.7610   78.0580 N.3   243  GLU243     -0.1245
    122  CA       -12.5890   50.8560   76.7080 C.3   243  GLU243      0.1567
    123  C        -12.6900   49.4790   76.0500 C.2   243  GLU243      0.2260
    124  O        -12.2430   48.5000   76.6020 O.2   243  GLU243     -0.2867
    125  CB       -11.1450   51.3740   76.7490 C.3   243  GLU243      0.0388
    126  CG       -10.4350   51.3820   75.3870 C.3   243  GLU243      0.1160
    127  CD        -9.1900   52.2710   75.2800 C.2   243  GLU243      0.3649
    128  OE1       -8.3110   51.9130   74.4600 O.co2 243  GLU243     -0.2457
    129  OE2       -9.0820   53.3310   75.9970 O.co2 243  GLU243     -0.2457
    130  N        -16.0490   53.5690   75.1910 N.3   264  CYS264     -0.1235
    131  CA       -15.4930   53.9770   73.9120 C.3   264  CYS264      0.1677
    132  C        -15.2530   52.7030   73.1000 C.2   264  CYS264      0.2270
    133  O        -14.6620   51.7900   73.6040 O.2   264  CYS264     -0.2867
    134  CB       -14.2910   54.9000   74.1130 C.3   264  CYS264      0.0956
    135  SG       -12.9520   54.4380   75.2610 S.3   264  CYS264     -0.0801
    136  N         -8.7140   52.6930   66.0700 N.3   271  TRP271     -0.1241
    137  CA        -9.1400   54.0320   66.3100 C.3   271  TRP271      0.1605
    138  C         -8.7810   54.8750   65.1000 C.2   271  TRP271      0.2264
    139  O         -9.6720   55.3340   64.4150 O.2   271  TRP271     -0.2867
    140  CB        -8.5360   54.5730   67.5930 C.3   271  TRP271      0.0550
    141  CG        -8.8150   53.6690   68.7880 C.ar  271  TRP271      0.0003
    142  CD1       -8.0070   52.6980   69.3120 C.ar  271  TRP271      0.0946
    143  CD2       -9.9820   53.6850   69.6180 C.ar  271  TRP271      0.0152
    144  NE1       -8.6150   52.1020   70.4080 N.ar  271  TRP271     -0.2442
    145  CE2       -9.8210   52.6970   70.6040 C.ar  271  TRP271      0.0810
    146  CE3      -11.1960   54.3400   69.5370 C.ar  271  TRP271      0.0012
    147  CZ2      -10.8000   52.4250   71.5400 C.ar  271  TRP271      0.0191
    148  CZ3      -12.1700   54.0630   70.4780 C.ar  271  TRP271      0.0001
    149  CH2      -11.9650   53.1440   71.4770 C.ar  271  TRP271      0.0015
@<TRIPOS>BOND
     1    15    14    2
     2    14    13    1
     3   139   138    2
     4   138   137    1
     5    22    23    1
     6    13    12    1
     7    13    16    1
     8    23    26    1
     9    23    24    1
    10    16    17    1
    11   136   137    1
    12     4     3    2
    13   137   140    1
    14    29    28   ar
    15    26    27    1
    16    24    25    2
    17    24    31   am
    18    33    34    2
    19    33    32    1
    20    31    32    1
    21     3     2    1
    22    17    18   ar
    23    17    19   ar
    24   140   141    1
    25    28    27    1
    26    28    30   ar
    27    32    35    1
    28    18    20   ar
    29     1     2    1
    30    19    21   ar
    31     2     5    1
    32    49    50    1
    33    49    46    1
    34   141   142   ar
    35   141   143   ar
    36    35    36    1
    37     5     6    1
    38    50    51   ar
    39    50    52   ar
    40   142   144   ar
    41    20    21   ar
    42    45    46    1
    43   146   143   ar
    44   146   148   ar
    45    51    53   ar
    46   143   145   ar
    47    52    54   ar
    48    46    47    1
    49    36    37   ar
    50    36    38   ar
    51    37    39   ar
    52    53    54   ar
    53     6     7   ar
    54     6     8   ar
    55    47    48    2
    56    47    55   am
    57     7     9   ar
    58   144   145   ar
    59    57    58    2
    60    57    56    1
    61   148   149   ar
    62   145   147   ar
    63    55    56    1
    64    56    59    1
    65    38    41   ar
    66    38    40   ar
    67     8    10   ar
    68     9    11   ar
    69   149   147   ar
    70    39    40   ar
    71    59    60    1
    72    68    67    1
    73    41    43   ar
    74    71    73   ar
    75    71    70   ar
    76    69    70    1
    77    69    66    1
    78    73    75   ar
    79    65    66    1
    80    40    42   ar
    81    70    72   ar
    82    60    62   ar
    83    60    61   ar
    84    10    11   ar
    85    62    64   ar
    86    67    66    1
    87    75    76    1
    88    75    74   ar
    89   132   133    2
    90   132   131    1
    91    72    74   ar
    92    61    63   ar
    93    43    44   ar
    94    64    63   ar
    95    42    44   ar
    96   131   134    1
    97   131   130    1
    98   134   135    1
    99   128   127   ar
   100    98    96   ar
   101   127   126    1
   102   127   129   ar
   103   126   125    1
   104    81    82    1
   105    81    78    1
   106    80    79    2
   107    82    84   ar
   108    82    83   ar
   109    96    95    1
   110    96    97   ar
   111    87    84   ar
   112    87    89   ar
   113   123   124    2
   114   123   122    1
   115    84    86   ar
   116    83    85   ar
   117    89    90   ar
   118    95    92    1
   119    86    85   ar
   120    86    88   ar
   121    90    88   ar
   122   107   105   ar
   123   107   109   ar
   124   122   125    1
   125   122   121    1
   126    77    78    1
   127    94    93    2
   128    78    79    1
   129   105   104   ar
   130   109   108   ar
   131   119   118    1
   132    92    93    1
   133    92    91    1
   134    93    99   am
   135   120   118    1
   136   118   117    2
   137    99   100    1
   138   104   103    1
   139   104   106   ar
   140   108   106   ar
   141   103   100    1
   142   117   116    1
   143   100   101    1
   144   116   115    1
   145   102   101    2
   146   115   114    1
   147   114   111    1
   148   113   112    2
   149   111   110    1
   150   111   112    1
