@<TRIPOS>MOLECULE
tmp/6gn6B03.pdb
 92 88 0 0 0
SMALL
GASTEIGER

@<TRIPOS>ATOM
      1  N         -5.4130   66.6070   28.3210 N.3    12  HIS12      -0.1241
      2  CA        -5.5960   66.6660   29.7600 C.3    12  HIS12       0.1621
      3  C         -6.8740   65.9380   30.1880 C.2    12  HIS12       0.2264
      4  O         -6.8340   65.1510   31.0990 O.2    12  HIS12      -0.2867
      5  CB        -5.6230   68.1310   30.2590 C.3    12  HIS12       0.0745
      6  CG        -5.9460   68.2140   31.7010 C.ar   12  HIS12       0.0817
      7  ND1       -7.2550   68.0900   32.1750 N.ar   12  HIS12      -0.2268
      8  CD2       -5.1510   68.2940   32.7970 C.ar   12  HIS12       0.1154
      9  CE1       -7.2570   68.1960   33.4930 C.ar   12  HIS12       0.1986
     10  NE2       -5.9820   68.3170   33.9090 N.ar   12  HIS12      -0.2212
     11  N        -21.0630   64.3620   33.7290 N.3    66  LYS66      -0.1245
     12  CA       -20.1970   64.9960   34.7090 C.3    66  LYS66       0.1561
     13  C        -19.9360   64.1060   35.9320 C.2    66  LYS66       0.2260
     14  O        -18.8340   64.0480   36.4760 O.2    66  LYS66      -0.2867
     15  CB       -20.8490   66.2890   35.2180 C.3    66  LYS66       0.0271
     16  CG       -19.9890   67.0270   36.2330 C.3    66  LYS66       0.0035
     17  CD       -20.3910   68.4710   36.4430 C.3    66  LYS66       0.0206
     18  CE       -19.3300   69.2380   37.1890 C.3    66  LYS66       0.1093
     19  NZ       -19.5220   70.6920   36.9640 N.3    66  LYS66      -0.1314
     20  N        -17.4290   61.4630   35.4420 N.3    69  GLY69      -0.1210
     21  CA       -16.0760   61.8870   35.2840 C.3    69  GLY69       0.1956
     22  C        -15.7680   62.3010   33.8510 C.2    69  GLY69       0.2612
     23  O        -14.6080   62.4960   33.4850 O.2    69  GLY69      -0.2717
     24  N        -16.7830   62.4710   33.0260 N.am   70  MET70      -0.1965
     25  CA       -16.5120   62.8860   31.6620 C.3    70  MET70       0.1736
     26  C        -16.3630   64.3960   31.6160 C.2    70  MET70       0.2616
     27  O        -17.0370   65.0870   32.3760 O.2    70  MET70      -0.2715
     28  CB       -17.6500   62.4560   30.7510 C.3    70  MET70       0.0427
     29  CG       -17.6700   60.9530   30.5170 C.3    70  MET70       0.0599
     30  SD       -19.3090   60.4120   30.0860 S.3    70  MET70      -0.1393
     31  CE       -18.9510   58.8580   29.2670 C.3    70  MET70       0.0692
     32  N        -15.4860   64.8810   30.7380 N.am   71  LYS71      -0.1977
     33  CA       -15.1190   66.2930   30.6340 C.3    71  LYS71       0.1596
     34  C        -15.5510   66.9780   29.3370 C.2    71  LYS71       0.2287
     35  O        -15.3730   68.2120   29.2040 O.2    71  LYS71      -0.2864
     36  CB       -13.5940   66.4590   30.6890 C.3    71  LYS71       0.0298
     37  CG       -12.9160   65.9120   31.9170 C.3    71  LYS71       0.0038
     38  CD       -13.2890   66.6460   33.1700 C.3    71  LYS71       0.0206
     39  CE       -12.0980   67.3950   33.7360 C.3    71  LYS71       0.1093
     40  NZ       -12.4580   68.3710   34.8100 N.3    71  LYS71      -0.1314
     41  N        -22.7920   72.7550   32.7010 N.3   115  GLU115     -0.1231
     42  CA       -22.0870   71.8230   33.6250 C.3   115  GLU115      0.1699
     43  C        -20.5370   71.9230   33.5700 C.2   115  GLU115      0.2593
     44  O        -19.8340   71.1980   34.2430 O.2   115  GLU115     -0.2718
     45  CB       -22.4870   70.3670   33.3680 C.3   115  GLU115      0.0402
     46  CG       -23.8770   70.0080   33.8490 C.3   115  GLU115      0.1161
     47  CD       -24.1460   70.1470   35.3520 C.2   115  GLU115      0.3649
     48  OE1      -23.2170   69.9970   36.1550 O.co2 115  GLU115     -0.2457
     49  OE2      -25.3150   70.3790   35.7110 O.co2 115  GLU115     -0.2457
     50  N        -19.9830   72.8150   32.7580 N.am  116  GLY116     -0.1942
     51  CA       -18.5570   72.8900   32.6500 C.3   116  GLY116      0.2014
     52  C        -17.9900   71.8790   31.6500 C.2   116  GLY116      0.2638
     53  O        -16.7640   71.7560   31.5780 O.2   116  GLY116     -0.2714
     54  N        -18.8220   71.1790   30.8640 N.am  117  LEU117     -0.1977
     55  CA       -18.3230   70.2640   29.8720 C.3   117  LEU117      0.1596
     56  C        -18.0180   70.9860   28.5560 C.2   117  LEU117      0.2287
     57  O        -18.7260   71.8750   28.2060 O.2   117  LEU117     -0.2864
     58  CB       -19.2690   69.0910   29.6710 C.3   117  LEU117      0.0297
     59  CG       -18.9400   67.9340   30.6170 C.3   117  LEU117      0.0022
     60  CD1      -19.0280   68.3280   32.0570 C.3   117  LEU117      0.0001
     61  CD2      -19.8300   66.7550   30.3790 C.3   117  LEU117      0.0001
     62  N        -14.0710   57.1340   39.3990 N.3   320  MET320     -0.1230
     63  CA       -13.3570   58.3630   39.0080 C.3   320  MET320      0.1702
     64  C        -13.2950   59.3650   40.1490 C.2   320  MET320      0.2592
     65  O        -12.3040   59.9770   40.3030 O.2   320  MET320     -0.2718
     66  CB       -13.9640   59.0600   37.7830 C.3   320  MET320      0.0401
     67  CG       -13.8570   58.2050   36.5290 C.3   320  MET320      0.0596
     68  SD       -12.1720   58.1450   35.8660 S.3   320  MET320     -0.1393
     69  CE       -12.0210   59.8690   35.3310 C.3   320  MET320      0.0692
     70  N        -14.3030   59.4930   40.9710 N.am  321  ARG321     -0.1980
     71  CA       -14.2000   60.4120   42.1630 C.3   321  ARG321      0.1597
     72  C        -12.9840   60.0880   43.0060 C.2   321  ARG321      0.2287
     73  O        -12.3430   60.9930   43.4340 O.2   321  ARG321     -0.2864
     74  CB       -15.4070   60.3180   43.1120 C.3   321  ARG321      0.0334
     75  CG       -16.4970   61.3430   42.7980 C.3   321  ARG321      0.0492
     76  CD       -17.6680   61.4340   43.8020 C.3   321  ARG321      0.2205
     77  NE       -18.4860   60.2240   43.9640 N.pl3 321  ARG321     -0.0865
     78  CZ       -19.3390   59.7310   43.0480 C.cat 321  ARG321      0.5346
     79  NH1      -20.0070   58.6200   43.3390 N.pl3 321  ARG321      0.1354
     80  NH2      -19.5140   60.3210   41.8560 N.pl3 321  ARG321      0.1354
     81  N         -6.7520   62.1580   34.6180 N.3   328  TYR328     -0.1241
     82  CA        -6.7250   63.5480   34.1490 C.3   328  TYR328      0.1605
     83  C         -5.2840   64.0760   34.1520 C.2   328  TYR328      0.2264
     84  O         -4.5220   63.8910   35.1470 O.2   328  TYR328     -0.2867
     85  CB        -7.5820   64.4390   35.0410 C.3   328  TYR328      0.0534
     86  CG        -9.0460   64.0480   35.1640 C.ar  328  TYR328     -0.0201
     87  CD1       -9.8170   63.7600   34.0350 C.ar  328  TYR328     -0.0009
     88  CD2       -9.6560   63.9070   36.4180 C.ar  328  TYR328     -0.0009
     89  CE1      -11.1450   63.3930   34.1420 C.ar  328  TYR328      0.0417
     90  CE2      -10.9880   63.5180   36.5350 C.ar  328  TYR328      0.0417
     91  CZ       -11.7150   63.2550   35.3960 C.ar  328  TYR328      0.1957
     92  OH       -13.0020   62.9360   35.4720 O.3   328  TYR328     -0.2866
@<TRIPOS>BOND
     1    57    56    2
     2     1     2    1
     3    56    55    1
     4    35    34    2
     5    31    30    1
     6    34    33    1
     7    58    55    1
     8    58    59    1
     9     2     3    1
    10     2     5    1
    11    55    54    1
    12    30    29    1
    13     3     4    2
    14     5     6    1
    15    61    59    1
    16    29    28    1
    17    59    60    1
    18    33    36    1
    19    33    32    1
    20    36    37    1
    21    32    26   am
    22    28    25    1
    23    54    52   am
    24    53    52    2
    25    26    25    1
    26    26    27    2
    27    52    51    1
    28    25    24    1
    29     6     7   ar
    30     6     8   ar
    31    37    38    1
    32     7     9   ar
    33    51    50    1
    34    41    42    1
    35    50    43   am
    36     8    10   ar
    37    24    22   am
    38    38    39    1
    39    45    42    1
    40    45    46    1
    41    23    22    2
    42     9    10   ar
    43    43    42    1
    44    43    44    2
    45    11    12    1
    46    39    40    1
    47    46    47    1
    48    22    21    1
    49    87    89   ar
    50    87    86   ar
    51    89    91   ar
    52    82    83    1
    53    82    81    1
    54    82    85    1
    55    83    84    2
    56    12    15    1
    57    12    13    1
    58    85    86    1
    59    86    88   ar
    60    15    16    1
    61    21    20    1
    62    69    68    1
    63    47    49   ar
    64    47    48   ar
    65    91    92    1
    66    91    90   ar
    67    68    67    1
    68    13    14    2
    69    16    17    1
    70    88    90   ar
    71    17    18    1
    72    67    66    1
    73    19    18    1
    74    66    63    1
    75    63    62    1
    76    63    64    1
    77    64    65    2
    78    64    70   am
    79    70    71    1
    80    80    78    1
    81    71    72    1
    82    71    74    1
    83    75    74    1
    84    75    76    1
    85    72    73    2
    86    78    79    1
    87    78    77    2
    88    76    77    1
