@<TRIPOS>MOLECULE
tmp/6gn6B01.pdb
 77 73 0 0 0
SMALL
GASTEIGER

@<TRIPOS>ATOM
      1  N        -14.7660   59.9670    5.3620 N.3   185  SER185     -0.1217
      2  CA       -14.2370   59.8460    3.9930 C.3   185  SER185      0.1889
      3  C        -14.0150   58.4030    3.6140 C.2   185  SER185      0.2288
      4  O        -13.6730   57.5820    4.4620 O.2   185  SER185     -0.2866
      5  CB       -13.0160   60.6160    3.8290 C.3   185  SER185      0.2089
      6  OG       -13.3330   61.9500    4.1000 O.3   185  SER185     -0.2183
      7  N         -9.9120   63.1370   12.1970 N.3   214  ASN214     -0.1225
      8  CA        -9.1360   62.8970   10.9970 C.3   214  ASN214      0.1785
      9  C         -9.9230   62.2470    9.8830 C.2   214  ASN214      0.2597
     10  O         -9.3830   61.3620    9.1800 O.2   214  ASN214     -0.2718
     11  CB        -7.8860   62.1000   11.2990 C.3   214  ASN214      0.1169
     12  CG        -8.1990   60.7050   11.8700 C.2   214  ASN214      0.2627
     13  OD1       -9.2470   60.4800   12.5450 O.2   214  ASN214     -0.2716
     14  ND2       -7.2910   59.7840   11.5980 N.am  214  ASN214     -0.0877
     15  N        -11.1960   62.6180    9.7120 N.am  215  ARG215     -0.1979
     16  CA       -12.0440   61.8640    8.7450 C.3   215  ARG215      0.1597
     17  C        -12.3830   62.6260    7.4600 C.2   215  ARG215      0.2287
     18  O        -13.1240   62.1150    6.6390 O.2   215  ARG215     -0.2864
     19  CB       -13.3480   61.4180    9.3970 C.3   215  ARG215      0.0334
     20  CG       -13.1210   60.7020   10.7180 C.3   215  ARG215      0.0492
     21  CD       -14.0530   59.5370   10.9070 C.3   215  ARG215      0.2205
     22  NE       -13.7560   58.7760   12.0970 N.pl3 215  ARG215     -0.0865
     23  CZ       -14.4170   57.6820   12.4770 C.cat 215  ARG215      0.5346
     24  NH1      -15.5410   57.2940   11.8740 N.pl3 215  ARG215      0.1354
     25  NH2      -13.9690   57.0140   13.5170 N.pl3 215  ARG215      0.1354
     26  N         -2.8930   62.1540    8.9820 N.3   220  ILE220     -0.1231
     27  CA        -2.5020   62.8150   10.1790 C.3   220  ILE220      0.1692
     28  C         -1.1020   62.3290   10.6330 C.2   220  ILE220      0.2591
     29  O         -0.3790   63.0790   11.3690 O.2   220  ILE220     -0.2718
     30  CB        -3.5670   62.6110   11.2700 C.3   220  ILE220      0.0266
     31  CG1       -3.3890   63.6230   12.3990 C.3   220  ILE220      0.0019
     32  CG2       -3.5430   61.1740   11.7540 C.3   220  ILE220      0.0020
     33  CD1       -4.3570   63.4500   13.5760 C.3   220  ILE220      0.0001
     34  N         -0.7040   61.1080   10.1910 N.am  221  LYS221     -0.1980
     35  CA         0.6480   60.5710   10.4710 C.3   221  LYS221      0.1596
     36  C          1.7820   61.2340    9.6690 C.2   221  LYS221      0.2287
     37  O          2.9610   61.0040    9.9910 O.2   221  LYS221     -0.2864
     38  CB         0.7200   59.0650   10.2370 C.3   221  LYS221      0.0298
     39  CG        -0.1570   58.2300   11.1580 C.3   221  LYS221      0.0038
     40  CD        -0.0820   56.7570   10.7900 C.3   221  LYS221      0.0206
     41  CE        -0.7730   55.8860   11.8250 C.3   221  LYS221      0.1093
     42  NZ        -0.0940   54.5670   11.9430 N.3   221  LYS221     -0.1314
     43  N         -6.4730   61.6790   15.9930 N.3   233  ALA233     -0.1231
     44  CA        -6.9630   60.4630   15.2850 C.3   233  ALA233      0.1694
     45  C         -8.1050   59.7790   16.0760 C.2   233  ALA233      0.2593
     46  O         -8.3010   60.0700   17.2380 O.2   233  ALA233     -0.2718
     47  CB        -5.8430   59.4960   15.0800 C.3   233  ALA233      0.0304
     48  N         -8.8500   58.9060   15.3930 N.am  234  SER234     -0.1939
     49  CA       -10.0920   58.3660   15.8700 C.3   234  SER234      0.2040
     50  C        -10.2370   56.8640   15.6010 C.2   234  SER234      0.2485
     51  O        -11.1770   56.4420   14.9530 O.2   234  SER234     -0.2729
     52  CB       -11.2400   59.1230   15.2600 C.3   234  SER234      0.2129
     53  OG       -11.1470   59.1050   13.8560 O.3   234  SER234     -0.2179
     54  N         -9.3720   56.0140   16.1650 N.am  235  PRO235     -0.2715
     55  CA        -9.6830   54.5760   16.1390 C.3   235  PRO235      0.1536
     56  C        -11.0730   54.3010   16.7590 C.2   235  PRO235      0.2598
     57  O        -11.5600   55.0170   17.7210 O.2   235  PRO235     -0.2715
     58  CB        -8.5640   53.9330   16.9770 C.3   235  PRO235      0.0310
     59  CG        -8.0730   55.0130   17.8820 C.3   235  PRO235      0.0237
     60  CD        -8.2430   56.3130   17.0710 C.3   235  PRO235      0.0939
     61  N        -11.7200   53.2790   16.1930 N.am  236  GLU236     -0.1978
     62  CA       -13.1030   52.9840   16.4400 C.3   236  GLU236      0.1602
     63  C        -13.2830   51.5390   16.9000 C.2   236  GLU236      0.2287
     64  O        -12.8540   50.5610   16.2370 O.2   236  GLU236     -0.2864
     65  CB       -13.8690   53.2320   15.1460 C.3   236  GLU236      0.0415
     66  CG       -15.3640   53.1070   15.3220 C.3   236  GLU236      0.1163
     67  CD       -16.1980   53.5580   14.1160 C.2   236  GLU236      0.3649
     68  OE1      -17.2470   52.9240   13.8360 O.co2 236  GLU236     -0.2457
     69  OE2      -15.8290   54.5380   13.4630 O.co2 236  GLU236     -0.2457
     70  N         -0.9160   55.9190   19.1370 N.3   244  ILE244     -0.1245
     71  CA        -0.8030   56.2950   17.7410 C.3   244  ILE244      0.1561
     72  C          0.3250   57.3260   17.6510 C.2   244  ILE244      0.2260
     73  O          0.3190   58.3370   18.4080 O.2   244  ILE244     -0.2867
     74  CB        -2.1110   56.9330   17.2020 C.3   244  ILE244      0.0252
     75  CG1       -3.3880   56.1230   17.5190 C.3   244  ILE244      0.0019
     76  CG2       -1.9790   57.2890   15.7120 C.3   244  ILE244      0.0019
     77  CD1       -3.6370   54.9490   16.6560 C.3   244  ILE244      0.0001
@<TRIPOS>BOND
     1     3     2    1
     2     3     4    2
     3     5     2    1
     4     5     6    1
     5     2     1    1
     6    18    17    2
     7    17    16    1
     8    16    19    1
     9    16    15    1
    10    26    27    1
    11    10     9    2
    12    19    20    1
    13    36    37    2
    14    36    35    1
    15    15     9   am
    16     9     8    1
    17    27    28    1
    18    27    30    1
    19    34    35    1
    20    34    28   am
    21    38    35    1
    22    38    39    1
    23    28    29    2
    24    20    21    1
    25    40    39    1
    26    40    41    1
    27    21    22    1
    28     8    11    1
    29     8     7    1
    30    30    32    1
    31    30    31    1
    32    11    12    1
    33    14    12   am
    34    41    42    1
    35    12    13    2
    36    24    23    1
    37    22    23    2
    38    31    33    1
    39    23    25    1
    40    69    67   ar
    41    68    67   ar
    42    53    52    1
    43    67    66    1
    44    51    50    2
    45    47    44    1
    46    65    66    1
    47    65    62    1
    48    52    49    1
    49    44    43    1
    50    44    45    1
    51    48    49    1
    52    48    45   am
    53    50    49    1
    54    50    54   am
    55    76    74    1
    56    45    46    2
    57    55    54    1
    58    55    56    1
    59    55    58    1
    60    54    60    1
    61    61    62    1
    62    61    56   am
    63    64    63    2
    64    62    63    1
    65    77    75    1
    66    56    57    2
    67    58    59    1
    68    60    59    1
    69    74    75    1
    70    74    71    1
    71    72    71    1
    72    72    73    2
    73    71    70    1
