@<TRIPOS>MOLECULE
tmp/6gn6E04.pdb
 132 132 0 0 0
SMALL
GASTEIGER

@<TRIPOS>ATOM
      1  N        -62.7280   20.4790   62.3560 N.3    34  ARG34      -0.1245
      2  CA       -64.1270   20.0570   62.6420 C.3    34  ARG34       0.1563
      3  C        -64.6590   20.8290   63.8500 C.2    34  ARG34       0.2260
      4  O        -65.8330   21.1100   63.9270 O.2    34  ARG34      -0.2867
      5  CB       -64.2640   18.5690   62.9420 C.3    34  ARG34       0.0307
      6  CG       -64.3040   17.6780   61.7040 C.3    34  ARG34       0.0489
      7  CD       -64.8780   16.2700   61.9430 C.3    34  ARG34       0.2205
      8  NE       -66.2610   16.3370   62.4280 N.pl3  34  ARG34      -0.0865
      9  CZ       -66.7990   15.5180   63.3300 C.cat  34  ARG34       0.5346
     10  NH1      -66.1090   14.4530   63.7650 N.pl3  34  ARG34       0.1354
     11  NH2      -68.0100   15.7990   63.8070 N.pl3  34  ARG34       0.1354
     12  N        -70.1720   18.5450   60.9790 N.3    40  PRO40      -0.2102
     13  CA       -70.6360   17.2030   61.3660 C.3    40  PRO40       0.1504
     14  C        -69.8900   16.1110   60.5910 C.2    40  PRO40       0.2576
     15  O        -69.3620   16.3750   59.5160 O.2    40  PRO40      -0.2718
     16  CB       -72.1280   17.2110   60.9860 C.3    40  PRO40       0.0282
     17  CG       -72.2250   18.2480   59.8630 C.3    40  PRO40       0.0208
     18  CD       -71.2000   19.2990   60.2140 C.3    40  PRO40       0.0893
     19  N        -69.8420   14.9220   61.1680 N.am   41  VAL41      -0.1966
     20  CA       -69.2610   13.7520   60.5320 C.3    41  VAL41       0.1727
     21  C        -69.5180   13.6260   59.0280 C.2    41  VAL41       0.2616
     22  O        -68.5950   13.4130   58.2930 O.2    41  VAL41      -0.2715
     23  CB       -69.6600   12.4640   61.2780 C.3    41  VAL41       0.0290
     24  CG1      -69.5720   11.2300   60.4100 C.3    41  VAL41       0.0023
     25  CG2      -68.7060   12.2690   62.4240 C.3    41  VAL41       0.0023
     26  N        -70.7610   13.7280   58.5980 N.am   42  GLU42      -0.1977
     27  CA       -71.1480   13.4740   57.2110 C.3    42  GLU42       0.1602
     28  C        -70.4760   14.4370   56.2390 C.2    42  GLU42       0.2287
     29  O        -70.3050   14.1130   55.0780 O.2    42  GLU42      -0.2864
     30  CB       -72.6530   13.6510   56.9560 C.3    42  GLU42       0.0415
     31  CG       -73.5760   13.1210   58.0240 C.3    42  GLU42       0.1163
     32  CD       -73.8580   14.1780   59.0950 C.2    42  GLU42       0.3649
     33  OE1      -73.3660   14.0050   60.2570 O.co2  42  GLU42      -0.2457
     34  OE2      -74.5490   15.1900   58.7650 O.co2  42  GLU42      -0.2457
     35  N        -64.1090   12.9400   68.4960 N.3   128  TRP128     -0.1227
     36  CA       -65.2100   13.6650   67.8800 C.3   128  TRP128      0.1737
     37  C        -65.9530   12.8260   66.8730 C.2   128  TRP128      0.2595
     38  O        -66.8570   13.3410   66.2090 O.2   128  TRP128     -0.2718
     39  CB       -64.6870   14.9130   67.1740 C.3   128  TRP128      0.0564
     40  CG       -64.0070   15.8830   68.0640 C.ar  128  TRP128      0.0003
     41  CD1      -64.1880   16.0620   69.4080 C.ar  128  TRP128      0.0946
     42  CD2      -63.0900   16.8910   67.6430 C.ar  128  TRP128      0.0152
     43  NE1      -63.4140   17.1170   69.8610 N.ar  128  TRP128     -0.2442
     44  CE2      -62.7320   17.6400   68.7930 C.ar  128  TRP128      0.0810
     45  CE3      -62.5250   17.2160   66.4040 C.ar  128  TRP128      0.0012
     46  CZ2      -61.8490   18.7130   68.7270 C.ar  128  TRP128      0.0191
     47  CZ3      -61.6350   18.2570   66.3420 C.ar  128  TRP128      0.0001
     48  CH2      -61.2960   18.9940   67.4940 C.ar  128  TRP128      0.0015
     49  N        -65.5700   11.5770   66.7150 N.am  129  HIS129     -0.1961
     50  CA       -66.2950   10.6350   65.7930 C.3   129  HIS129      0.1787
     51  C        -67.1710    9.6660   66.6050 C.2   129  HIS129      0.2620
     52  O        -68.2880    9.3950   66.2700 O.2   129  HIS129     -0.2715
     53  CB       -65.3350    9.7590   64.9540 C.3   129  HIS129      0.0785
     54  CG       -66.0650    8.9740   63.9050 C.ar  129  HIS129      0.0821
     55  ND1      -66.3110    7.6050   63.9920 N.ar  129  HIS129     -0.2267
     56  CD2      -66.6480    9.3910   62.7640 C.ar  129  HIS129      0.1154
     57  CE1      -67.0020    7.2340   62.9360 C.ar  129  HIS129      0.1986
     58  NE2      -67.1770    8.3030   62.1400 N.ar  129  HIS129     -0.2212
     59  N        -66.5950    9.0650   67.6180 N.am  130  HIS130     -0.1960
     60  CA       -67.2830    8.0380   68.4130 C.3   130  HIS130      0.1772
     61  C        -68.5900    8.5610   69.0160 C.2   130  HIS130      0.2462
     62  O        -68.6120    9.5600   69.6930 O.2   130  HIS130     -0.2730
     63  CB       -66.3490    7.4620   69.4950 C.3   130  HIS130      0.0785
     64  CG       -66.8350    6.1610   70.0100 C.ar  130  HIS130      0.0821
     65  ND1      -67.8430    6.0860   70.9410 N.ar  130  HIS130     -0.2267
     66  CD2      -66.4790    4.8810   69.7010 C.ar  130  HIS130      0.1154
     67  CE1      -68.0820    4.7980   71.1780 C.ar  130  HIS130      0.1986
     68  NE2      -67.2620    4.0460   70.4180 N.ar  130  HIS130     -0.2212
     69  N        -69.7080    7.8810   68.7660 N.am  131  PRO131     -0.2727
     70  CA       -71.0210    8.4030   69.1790 C.3   131  PRO131      0.1402
     71  C        -71.3080    8.4860   70.6780 C.2   131  PRO131      0.2269
     72  O        -72.2180    9.1700   71.0130 O.2   131  PRO131     -0.2865
     73  CB       -72.0310    7.4160   68.5690 C.3   131  PRO131      0.0296
     74  CG       -71.2110    6.1580   68.3250 C.3   131  PRO131      0.0237
     75  CD       -69.8090    6.6090   68.0100 C.3   131  PRO131      0.0939
     76  N        -68.8930    9.5950   72.9460 N.3   133  TYR133     -0.1241
     77  CA       -68.1190   10.7010   73.4700 C.3   133  TYR133      0.1605
     78  C        -69.1180   11.8470   73.6720 C.2   133  TYR133      0.2264
     79  O        -69.9590   12.0980   72.8190 O.2   133  TYR133     -0.2867
     80  CB       -66.9290   11.1010   72.5460 C.3   133  TYR133      0.0534
     81  CG       -65.8920   11.9500   73.2530 C.ar  133  TYR133     -0.0201
     82  CD1      -66.0210   13.3270   73.3340 C.ar  133  TYR133     -0.0009
     83  CD2      -64.8280   11.3630   73.9500 C.ar  133  TYR133     -0.0009
     84  CE1      -65.1030   14.0890   74.0510 C.ar  133  TYR133      0.0417
     85  CE2      -63.9240   12.1070   74.6760 C.ar  133  TYR133      0.0417
     86  CZ       -64.0810   13.4700   74.7060 C.ar  133  TYR133      0.1957
     87  OH       -63.2190   14.2300   75.3800 O.3   133  TYR133     -0.2866
     88  N        -70.8890   15.3200   73.5130 N.3   135  ALA135     -0.1245
     89  CA       -70.9330   16.2620   72.4550 C.3   135  ALA135      0.1562
     90  C        -71.4780   17.5880   72.9910 C.2   135  ALA135      0.2260
     91  O        -70.7070   18.5240   73.2280 O.2   135  ALA135     -0.2867
     92  CB       -71.7730   15.7220   71.3280 C.3   135  ALA135      0.0290
     93  N        -66.1290   19.8280   71.2800 N.3   141  HIS141     -0.1241
     94  CA       -66.7600   18.9420   70.3120 C.3   141  HIS141      0.1621
     95  C        -67.4240   19.7560   69.1850 C.2   141  HIS141      0.2264
     96  O        -68.0110   20.8100   69.4110 O.2   141  HIS141     -0.2867
     97  CB       -67.7660   18.0440   71.0050 C.3   141  HIS141      0.0745
     98  CG       -68.1350   16.8610   70.1880 C.ar  141  HIS141      0.0817
     99  ND1      -68.8780   16.9630   69.0190 N.ar  141  HIS141     -0.2268
    100  CD2      -67.8840   15.5380   70.3630 C.ar  141  HIS141      0.1154
    101  CE1      -69.0540   15.7510   68.5090 C.ar  141  HIS141      0.1986
    102  NE2      -68.4300   14.8520   69.2970 N.ar  141  HIS141     -0.2212
    103  N        -70.1130   19.3760   67.6730 N.3   143  MET143     -0.1245
    104  CA       -71.5500   19.4280   67.9050 C.3   143  MET143      0.1570
    105  C        -71.9140   20.0020   69.2840 C.2   143  MET143      0.2261
    106  O        -73.0190   19.8030   69.7540 O.2   143  MET143     -0.2867
    107  CB       -72.1300   18.0140   67.7750 C.3   143  MET143      0.0387
    108  CG       -71.8950   17.3930   66.4180 C.3   143  MET143      0.0595
    109  SD       -72.6190   18.2800   65.0290 S.3   143  MET143     -0.1393
    110  CE       -71.2530   19.1190   64.2390 C.3   143  MET143      0.0692
    111  N        -79.9780   17.9340   69.8800 N.3   149  PHE149     -0.1241
    112  CA       -79.4850   16.5690   70.1740 C.3   149  PHE149      0.1605
    113  C        -78.9050   16.3880   71.5900 C.2   149  PHE149      0.2264
    114  O        -78.3730   15.3400   71.9430 O.2   149  PHE149     -0.2867
    115  CB       -78.4580   16.1610   69.1350 C.3   149  PHE149      0.0534
    116  CG       -78.9130   16.3720   67.7270 C.ar  149  PHE149     -0.0203
    117  CD1      -79.9670   15.6490   67.2150 C.ar  149  PHE149     -0.0042
    118  CD2      -78.2670   17.2800   66.8960 C.ar  149  PHE149     -0.0042
    119  CE1      -80.3670   15.8180   65.8860 C.ar  149  PHE149     -0.0003
    120  CE2      -78.6620   17.4490   65.5680 C.ar  149  PHE149     -0.0003
    121  CZ       -79.7240   16.7240   65.0670 C.ar  149  PHE149     -0.0000
    122  N        -79.4310   12.9330   73.3940 N.3   152  ARG152     -0.1245
    123  CA       -79.2310   11.7230   72.6360 C.3   152  ARG152      0.1563
    124  C        -78.6450   10.6960   73.6010 C.2   152  ARG152      0.2260
    125  O        -77.6850   10.9850   74.3020 O.2   152  ARG152     -0.2867
    126  CB       -78.3110   12.0390   71.4510 C.3   152  ARG152      0.0307
    127  CG       -78.0400   10.8700   70.5270 C.3   152  ARG152      0.0489
    128  CD       -77.3280   11.2920   69.2380 C.3   152  ARG152      0.2205
    129  NE       -76.0780   12.0420   69.4490 N.pl3 152  ARG152     -0.0865
    130  CZ       -74.8560   11.5320   69.7210 C.cat 152  ARG152      0.5346
    131  NH1      -73.8270   12.3510   69.9070 N.pl3 152  ARG152      0.1354
    132  NH2      -74.6550   10.2260   69.8630 N.pl3 152  ARG152      0.1354
@<TRIPOS>BOND
     1    29    28    2
     2    28    27    1
     3    30    27    1
     4    30    31    1
     5    27    26    1
     6    31    32    1
     7    22    21    2
     8    26    21   am
     9    34    32   ar
    10    21    20    1
    11    32    33   ar
    12    15    14    2
    13    17    18    1
    14    17    16    1
    15    18    12    1
    16    24    23    1
    17    20    19    1
    18    20    23    1
    19    14    19   am
    20    14    13    1
    21    12    13    1
    22    16    13    1
    23    23    25    1
    24     6     7    1
    25     6     5    1
    26     7     8    1
    27    58    56   ar
    28    58    57   ar
    29     1     2    1
    30     8     9    2
    31     2     5    1
    32     2     3    1
    33    56    54   ar
    34    57    55   ar
    35     9    10    1
    36     9    11    1
    37     3     4    2
    38    54    55   ar
    39    54    53    1
    40   110   109    1
    41    53    50    1
    42   109   108    1
    43   121   120   ar
    44   121   119   ar
    45   120   118   ar
    46    50    51    1
    47    50    49    1
    48   119   117   ar
    49    38    37    2
    50    52    51    2
    51    47    45   ar
    52    47    48   ar
    53    45    42   ar
    54   108   107    1
    55    51    59   am
    56    49    37   am
    57    37    36    1
    58   118   116   ar
    59    39    36    1
    60    39    40    1
    61   117   116   ar
    62    48    46   ar
    63    59    60    1
    64    42    40   ar
    65    42    44   ar
    66   103   104    1
    67   116   115    1
    68   107   104    1
    69    36    35    1
    70   104   105    1
    71    75    74    1
    72    75    69    1
    73    40    41   ar
    74    74    73    1
    75    60    61    1
    76    60    63    1
    77   101    99   ar
    78   101   102   ar
    79    73    70    1
    80    46    44   ar
    81    69    61   am
    82    69    70    1
    83    44    43   ar
    84    61    62    2
    85    99    98   ar
    86   115   112    1
    87    70    71    1
    88    95    96    2
    89    95    94    1
    90   128   129    1
    91   128   127    1
    92   105   106    2
    93   102   100   ar
    94    41    43   ar
    95   129   130    2
    96    63    64    1
    97    66    64   ar
    98    66    68   ar
    99   130   132    1
   100   130   131    1
   101   111   112    1
   102    64    65   ar
   103   112   113    1
   104    98   100   ar
   105    98    97    1
   106    94    97    1
   107    94    93    1
   108    68    67   ar
   109   127   126    1
   110    71    72    2
   111    65    67   ar
   112    92    89    1
   113   126   123    1
   114   113   114    2
   115    89    90    1
   116    89    88    1
   117    80    81    1
   118    80    77    1
   119   123   122    1
   120   123   124    1
   121    79    78    2
   122    76    77    1
   123    90    91    2
   124    81    82   ar
   125    81    83   ar
   126    82    84   ar
   127    77    78    1
   128   124   125    2
   129    83    85   ar
   130    84    86   ar
   131    85    86   ar
   132    86    87    1
