@<TRIPOS>MOLECULE
tmp/6gnbA01.pdb
 89 82 0 0 0
SMALL
GASTEIGER

@<TRIPOS>ATOM
      1  N          1.4020   11.8310   20.5810 N.3    33  GLY33      -0.1210
      2  CA         2.6480   12.2110   19.9470 C.3    33  GLY33       0.1956
      3  C          3.2360   13.4750   20.5450 C.2    33  GLY33       0.2612
      4  O          2.9700   13.8270   21.6930 O.2    33  GLY33      -0.2717
      5  N          4.0540   14.1190   19.7360 N.am   34  SER34      -0.1952
      6  CA         4.8310   15.2710   20.1410 C.3    34  SER34       0.1924
      7  C          4.1430   16.5390   19.6850 C.2    34  SER34       0.2314
      8  O          3.4630   16.5760   18.6490 O.2    34  SER34      -0.2863
      9  CB         6.2280   15.2070   19.5240 C.3    34  SER34       0.2116
     10  OG         6.9440   16.3960   19.8030 O.3    34  SER34      -0.2180
     11  N          9.8550   15.3940   14.3880 N.3    39  LYS39      -0.1245
     12  CA        11.1830   15.9940   14.3760 C.3    39  LYS39       0.1561
     13  C         11.7900   16.0050   12.9600 C.2    39  LYS39       0.2260
     14  O         12.4300   16.9840   12.5770 O.2    39  LYS39      -0.2867
     15  CB        12.1150   15.2500   15.3330 C.3    39  LYS39       0.0271
     16  CG        11.7590   15.3750   16.7960 C.3    39  LYS39       0.0035
     17  CD        12.8470   14.7110   17.6230 C.3    39  LYS39       0.0206
     18  CE        12.5850   14.8190   19.1120 C.3    39  LYS39       0.1093
     19  NZ        11.2730   14.2450   19.5000 N.3    39  LYS39      -0.1314
     20  N          0.1450   14.9780   24.2890 N.3    78  ASN78      -0.1225
     21  CA         1.6090   15.0020   24.3940 C.3    78  ASN78       0.1785
     22  C          2.0870   14.0560   25.4970 C.2    78  ASN78       0.2597
     23  O          2.5710   14.4700   26.5520 O.2    78  ASN78      -0.2718
     24  CB         2.0890   16.4210   24.6560 C.3    78  ASN78       0.1169
     25  CG         3.6050   16.5540   24.5990 C.2    78  ASN78       0.2627
     26  OD1        4.2550   16.0280   23.6960 O.2    78  ASN78      -0.2716
     27  ND2        4.1730   17.2650   25.5670 N.am   78  ASN78      -0.0877
     28  N          1.9600   12.7530   25.2220 N.am   79  VAL79      -0.1966
     29  CA         2.4750   11.6980   26.0880 C.3    79  VAL79       0.1727
     30  C          3.1220   10.6320   25.2190 C.2    79  VAL79       0.2616
     31  O          2.8070   10.4790   24.0370 O.2    79  VAL79      -0.2715
     32  CB         1.4190   11.0440   27.0120 C.3    79  VAL79       0.0290
     33  CG1        0.7970   12.0750   27.9330 C.3    79  VAL79       0.0023
     34  CG2        0.3440   10.3180   26.2050 C.3    79  VAL79       0.0023
     35  N          4.0260    9.8800   25.8320 N.am   80  LYS80      -0.1977
     36  CA         4.6720    8.7460   25.1850 C.3    80  LYS80       0.1596
     37  C          3.8550    7.4870   25.4330 C.2    80  LYS80       0.2287
     38  O          3.5310    7.1630   26.5740 O.2    80  LYS80      -0.2864
     39  CB         6.0970    8.5440   25.7130 C.3    80  LYS80       0.0298
     40  CG         6.8200    7.3320   25.1100 C.3    80  LYS80       0.0038
     41  CD         8.2480    7.1820   25.6310 C.3    80  LYS80       0.0206
     42  CE         8.9410    5.9830   24.9810 C.3    80  LYS80       0.1093
     43  NZ        10.3000    5.7720   25.5740 N.3    80  LYS80      -0.1314
     44  N          3.0940    7.3280   29.3460 N.3    96  SER96      -0.1217
     45  CA         3.8790    7.9890   30.3740 C.3    96  SER96       0.1889
     46  C          3.0150    8.7450   31.3750 C.2    96  SER96       0.2288
     47  O          3.5430    9.1850   32.4060 O.2    96  SER96      -0.2866
     48  CB         4.8690    8.9440   29.7110 C.3    96  SER96       0.2089
     49  OG         4.2110    9.8570   28.8270 O.3    96  SER96      -0.2183
     50  N         15.6380   11.2630   24.1340 N.3   150  ASN150     -0.1225
     51  CA        14.6360   12.3100   24.0190 C.3   150  ASN150      0.1785
     52  C         14.4180   12.9030   25.4090 C.2   150  ASN150      0.2597
     53  O         14.9780   12.4310   26.4010 O.2   150  ASN150     -0.2718
     54  CB        13.3420   11.7840   23.3940 C.3   150  ASN150      0.1169
     55  CG        12.7300   10.6530   24.1750 C.2   150  ASN150      0.2627
     56  OD1       12.9500   10.4980   25.3800 O.2   150  ASN150     -0.2716
     57  ND2       11.9470    9.8440   23.4810 N.am  150  ASN150     -0.0877
     58  N         13.5730   13.9350   25.4780 N.am  151  LYS151     -0.1966
     59  CA        13.3600   14.6400   26.7400 C.3   151  LYS151      0.1728
     60  C         12.5660   13.8100   27.7510 C.2   151  LYS151      0.2616
     61  O         12.7970   13.9210   28.9610 O.2   151  LYS151     -0.2715
     62  CB        12.6570   15.9800   26.5070 C.3   151  LYS151      0.0311
     63  CG        13.4540   17.0030   25.6860 C.3   151  LYS151      0.0038
     64  CD        14.7250   17.4750   26.3640 C.3   151  LYS151      0.0206
     65  CE        14.4720   18.2980   27.6000 C.3   151  LYS151      0.1093
     66  NZ        15.7630   18.7460   28.1800 N.3   151  LYS151     -0.1314
     67  N         11.6040   13.0100   27.2820 N.am  152  GLU152     -0.1977
     68  CA        10.8310   12.1670   28.2000 C.3   152  GLU152      0.1602
     69  C         11.7300   11.2650   29.0320 C.2   152  GLU152      0.2287
     70  O         11.3960   10.9460   30.1800 O.2   152  GLU152     -0.2864
     71  CB         9.8140   11.3410   27.4120 C.3   152  GLU152      0.0415
     72  CG         8.7100   10.7100   28.2930 C.3   152  GLU152      0.1163
     73  CD         9.0870    9.3840   28.9200 C.2   152  GLU152      0.3649
     74  OE1       10.0340    8.7080   28.4380 O.co2 152  GLU152     -0.2457
     75  OE2        8.4050    8.9980   29.8970 O.co2 152  GLU152     -0.2457
     76  N         12.4980   12.6150   32.4290 N.3   155  SER155     -0.1217
     77  CA        11.4510   12.4090   33.4260 C.3   155  SER155      0.1889
     78  C         11.5150   11.0030   34.0020 C.2   155  SER155      0.2288
     79  O         11.2640   10.7940   35.1940 O.2   155  SER155     -0.2866
     80  CB        10.0770   12.6480   32.7930 C.3   155  SER155      0.2089
     81  OG         9.9490   13.9770   32.3220 O.3   155  SER155     -0.2183
     82  N         11.9610    7.4870   21.1590 N.3   219  ASP219     -0.1239
     83  CA        10.5890    7.9720   21.0150 C.3   219  ASP219      0.1674
     84  C          9.5850    6.8340   21.1340 C.2   219  ASP219      0.2266
     85  O          8.4520    7.0400   21.5810 O.2   219  ASP219     -0.2867
     86  CB        10.4060    8.6640   19.6700 C.3   219  ASP219      0.1410
     87  CG        11.0210   10.0530   19.6220 C.2   219  ASP219      0.3668
     88  OD1       11.5660   10.5540   20.6390 O.co2 219  ASP219     -0.2456
     89  OD2       10.9110   10.6870   18.5410 O.co2 219  ASP219     -0.2456
@<TRIPOS>BOND
     1    14    13    2
     2    13    12    1
     3    12    11    1
     4    12    15    1
     5    15    16    1
     6    16    17    1
     7    17    18    1
     8    89    87   ar
     9     8     7    2
    10    18    19    1
    11     9    10    1
    12     9     6    1
    13    87    86    1
    14    87    88   ar
    15    86    83    1
    16     7     6    1
    17     5     6    1
    18     5     3   am
    19     2     3    1
    20     2     1    1
    21     3     4    2
    22    83    84    1
    23    83    82    1
    24    84    85    2
    25    54    51    1
    26    54    55    1
    27    57    55   am
    28    26    25    2
    29    51    50    1
    30    51    52    1
    31    31    30    2
    32    55    56    2
    33    20    21    1
    34    21    24    1
    35    21    22    1
    36    25    24    1
    37    25    27   am
    38    42    43    1
    39    42    41    1
    40    40    41    1
    41    40    39    1
    42    36    37    1
    43    36    39    1
    44    36    35    1
    45    30    35   am
    46    30    29    1
    47    28    22   am
    48    28    29    1
    49    52    58   am
    50    52    53    2
    51    37    38    2
    52    58    59    1
    53    22    23    2
    54    63    64    1
    55    63    62    1
    56    29    32    1
    57    34    32    1
    58    64    65    1
    59    62    59    1
    60    59    60    1
    61    32    33    1
    62    67    60   am
    63    67    68    1
    64    71    68    1
    65    71    72    1
    66    65    66    1
    67    60    61    2
    68    68    69    1
    69    72    73    1
    70    74    73   ar
    71    49    48    1
    72    73    75   ar
    73    69    70    2
    74    44    45    1
    75    48    45    1
    76    45    46    1
    77    46    47    2
    78    81    80    1
    79    76    77    1
    80    80    77    1
    81    77    78    1
    82    78    79    2
