@<TRIPOS>MOLECULE
tmp/6gneB00.pdb
 208 200 0 0 0
SMALL
GASTEIGER

@<TRIPOS>ATOM
      1  N        -95.3700   17.4050   -9.7100 N.3    17  LYS17      -0.1231
      2  CA       -94.2490   18.2810   -9.4420 C.3    17  LYS17       0.1693
      3  C        -93.0900   18.0170  -10.3910 C.2    17  LYS17       0.2592
      4  O        -92.6340   16.8740  -10.5490 O.2    17  LYS17      -0.2718
      5  CB       -93.7780   18.0700   -8.0140 C.3    17  LYS17       0.0285
      6  CG       -92.4570   18.7580   -7.7070 C.3    17  LYS17       0.0035
      7  CD       -91.9370   18.3860   -6.3460 C.3    17  LYS17       0.0206
      8  CE       -90.6540   19.1670   -6.1100 C.3    17  LYS17       0.1093
      9  NZ       -90.2690   19.2930   -4.6750 N.3    17  LYS17      -0.1314
     10  N        -92.5830   19.0960  -10.9650 N.am   18  VAL18      -0.1966
     11  CA       -91.3470   19.0980  -11.7620 C.3    18  VAL18       0.1727
     12  C        -90.2300   19.8710  -11.0520 C.2    18  VAL18       0.2617
     13  O        -89.1250   19.4180  -10.9790 O.2    18  VAL18      -0.2715
     14  CB       -91.6010   19.6670  -13.1780 C.3    18  VAL18       0.0290
     15  CG1      -90.3030   19.8570  -13.9430 C.3    18  VAL18       0.0023
     16  CG2      -92.4990   18.7130  -13.9590 C.3    18  VAL18       0.0023
     17  N        -90.5290   21.0520  -10.5550 N.am   19  GLY19      -0.1940
     18  CA       -89.6130   21.7600   -9.6840 C.3    19  GLY19       0.2014
     19  C        -90.3010   22.6270   -8.6640 C.2    19  GLY19       0.2639
     20  O        -91.2200   22.1840   -7.9710 O.2    19  GLY19      -0.2714
     21  N        -89.8310   23.8670   -8.5600 N.am   20  GLY20      -0.1939
     22  CA       -90.2210   24.7310   -7.4690 C.3    20  GLY20       0.2014
     23  C        -91.6290   25.2700   -7.5910 C.2    20  GLY20       0.2638
     24  O        -92.2280   25.6690   -6.5750 O.2    20  GLY20      -0.2714
     25  N        -92.1480   25.3500   -8.8190 N.am   21  LEU21      -0.1977
     26  CA       -93.4910   25.8690   -9.0460 C.3    21  LEU21       0.1596
     27  C        -94.4980   25.0410   -8.2610 C.2    21  LEU21       0.2287
     28  O        -95.2760   25.5540   -7.4660 O.2    21  LEU21      -0.2864
     29  CB       -93.8460   25.9000  -10.5270 C.3    21  LEU21       0.0297
     30  CG       -95.1550   26.6320  -10.8120 C.3    21  LEU21       0.0022
     31  CD1      -95.0720   27.5010  -12.0400 C.3    21  LEU21       0.0001
     32  CD2      -96.3120   25.6730  -10.9690 C.3    21  LEU21       0.0001
     33  N        -93.9090   23.2280   -5.7030 N.3    23  ASP23      -0.1239
     34  CA       -93.6780   23.4410   -4.2730 C.3    23  ASP23       0.1674
     35  C        -94.4150   24.6760   -3.7760 C.2    23  ASP23       0.2266
     36  O        -95.0360   24.6590   -2.6990 O.2    23  ASP23      -0.2867
     37  CB       -92.1900   23.6120   -3.9390 C.3    23  ASP23       0.1410
     38  CG       -91.4050   22.3060   -3.9710 C.2    23  ASP23       0.3668
     39  OD1      -92.0280   21.2040   -3.9760 O.co2  23  ASP23      -0.2456
     40  OD2      -90.1410   22.3910   -3.9970 O.co2  23  ASP23      -0.2456
     41  N        -91.0670   20.1490    4.9800 N.3   262  TRP262     -0.1241
     42  CA       -89.6170   20.2250    5.0970 C.3   262  TRP262      0.1605
     43  C        -89.2400   20.5520    6.5380 C.2   262  TRP262      0.2264
     44  O        -89.0930   21.7110    6.9090 O.2   262  TRP262     -0.2867
     45  CB       -89.0610   21.2410    4.1020 C.3   262  TRP262      0.0550
     46  CG       -89.3350   20.8280    2.6760 C.ar  262  TRP262      0.0003
     47  CD1      -90.3200   21.2900    1.8560 C.ar  262  TRP262      0.0946
     48  CD2      -88.6230   19.8440    1.9330 C.ar  262  TRP262      0.0152
     49  NE1      -90.2590   20.6590    0.6460 N.ar  262  TRP262     -0.2442
     50  CE2      -89.2370   19.7520    0.6720 C.ar  262  TRP262      0.0810
     51  CE3      -87.5390   19.0130    2.2230 C.ar  262  TRP262      0.0012
     52  CZ2      -88.7880   18.8920   -0.3130 C.ar  262  TRP262      0.0191
     53  CZ3      -87.0820   18.1520    1.2480 C.ar  262  TRP262      0.0001
     54  CH2      -87.6960   18.1110   -0.0190 C.ar  262  TRP262      0.0015
     55  N        -78.5010   19.1410   -5.3860 N.3   308  ILE308     -0.1231
     56  CA       -79.7840   18.5840   -5.8240 C.3   308  ILE308      0.1692
     57  C        -80.4210   19.6060   -6.7540 C.2   308  ILE308      0.2593
     58  O        -80.7880   20.7010   -6.3270 O.2   308  ILE308     -0.2718
     59  CB       -80.7510   18.3530   -4.6570 C.3   308  ILE308      0.0266
     60  CG1      -80.2190   17.2770   -3.7290 C.3   308  ILE308      0.0019
     61  CG2      -82.1350   17.9510   -5.1730 C.3   308  ILE308      0.0020
     62  CD1      -80.8460   17.3260   -2.3420 C.3   308  ILE308      0.0001
     63  N        -80.5630   19.2450   -8.0200 N.am  309  THR309     -0.1939
     64  CA       -80.9120   20.2110   -9.0250 C.3   309  THR309      0.2028
     65  C        -81.3120   19.5670  -10.3340 C.2   309  THR309      0.2642
     66  O        -80.9740   18.4230  -10.6040 O.2   309  THR309     -0.2714
     67  CB       -79.7200   21.1680   -9.2990 C.3   309  THR309      0.1808
     68  OG1      -80.1400   22.2770  -10.1080 O.3   309  THR309     -0.2208
     69  CG2      -78.5800   20.4310   -9.9880 C.3   309  THR309      0.0379
     70  N        -82.0490   20.3240  -11.1390 N.am  310  ARG310     -0.1977
     71  CA       -82.2130   19.9950  -12.5250 C.3   310  ARG310      0.1597
     72  C        -80.9320   20.4930  -13.1890 C.2   310  ARG310      0.2287
     73  O        -80.4300   21.5440  -12.8240 O.2   310  ARG310     -0.2864
     74  CB       -83.4600   20.6750  -13.1070 C.3   310  ARG310      0.0334
     75  CG       -84.7850   20.1840  -12.4780 C.3   310  ARG310      0.0492
     76  CD       -86.0400   20.9800  -12.8610 C.3   310  ARG310      0.2205
     77  NE       -85.8050   22.4320  -12.7870 N.pl3 310  ARG310     -0.0865
     78  CZ       -85.4910   23.2310  -13.8190 C.cat 310  ARG310      0.5346
     79  NH1      -85.3740   22.7540  -15.0450 N.pl3 310  ARG310      0.1354
     80  NH2      -85.2880   24.5320  -13.6220 N.pl3 310  ARG310      0.1354
     81  N        -79.3430   27.2410  -16.5760 N.3   314  GLN314     -0.1231
     82  CA       -79.7010   28.1520  -15.4930 C.3   314  GLN314      0.1698
     83  C        -78.9030   27.8980  -14.2020 C.2   314  GLN314      0.2592
     84  O        -78.4960   28.8410  -13.4930 O.2   314  GLN314     -0.2718
     85  CB       -81.2100   28.0370  -15.1900 C.3   314  GLN314      0.0381
     86  CG       -81.6940   28.8580  -13.9930 C.3   314  GLN314      0.0905
     87  CD       -83.1240   28.5470  -13.5850 C.2   314  GLN314      0.2608
     88  OE1      -83.9500   28.1410  -14.4220 O.2   314  GLN314     -0.2717
     89  NE2      -83.4540   28.7930  -12.3050 N.am  314  GLN314     -0.0878
     90  N        -78.6940   26.6100  -13.9170 N.am  315  LYS315     -0.1980
     91  CA       -78.1410   26.1730  -12.6480 C.3   315  LYS315      0.1596
     92  C        -76.6010   26.1960  -12.5910 C.2   315  LYS315      0.2287
     93  O        -76.0190   25.7910  -11.5790 O.2   315  LYS315     -0.2864
     94  CB       -78.6760   24.7810  -12.3390 C.3   315  LYS315      0.0298
     95  CG       -80.1950   24.6920  -12.3160 C.3   315  LYS315      0.0038
     96  CD       -80.7800   25.4470  -11.1380 C.3   315  LYS315      0.0206
     97  CE       -82.2570   25.1680  -10.9650 C.3   315  LYS315      0.1093
     98  NZ       -82.9070   26.1220  -10.0050 N.3   315  LYS315     -0.1314
     99  N        -77.4050   14.7880   -7.0080 N.3   337  LEU337     -0.1231
    100  CA       -78.6940   14.2180   -7.4020 C.3   337  LEU337      0.1693
    101  C        -79.3070   15.1690   -8.4060 C.2   337  LEU337      0.2593
    102  O        -79.6720   16.2810   -8.0560 O.2   337  LEU337     -0.2718
    103  CB       -79.5910   14.0560   -6.1810 C.3   337  LEU337      0.0284
    104  CG       -80.9940   13.5280   -6.4490 C.3   337  LEU337      0.0019
    105  CD1      -80.9410   12.1910   -7.1640 C.3   337  LEU337      0.0001
    106  CD2      -81.7370   13.4040   -5.1470 C.3   337  LEU337      0.0001
    107  N        -79.3830   14.7600   -9.6630 N.am  338  GLY338     -0.1942
    108  CA       -79.9420   15.6460  -10.6850 C.3   338  GLY338      0.2014
    109  C        -80.1040   14.9620  -12.0070 C.2   338  GLY338      0.2639
    110  O        -79.4000   14.0150  -12.2830 O.2   338  GLY338     -0.2714
    111  N        -81.0420   15.4210  -12.8330 N.am  339  SER339     -0.1949
    112  CA       -81.0270   14.9960  -14.2350 C.3   339  SER339      0.1924
    113  C        -81.3580   16.1430  -15.1560 C.2   339  SER339      0.2314
    114  O        -81.8800   17.1590  -14.7300 O.2   339  SER339     -0.2863
    115  CB       -81.9080   13.7670  -14.4990 C.3   339  SER339      0.2116
    116  OG       -83.2280   14.0520  -14.1770 O.3   339  SER339     -0.2180
    117  N        -80.8910   11.1660  -11.7770 N.3   367  LYS367     -0.1231
    118  CA       -82.3160   10.8740  -11.7510 C.3   367  LYS367      0.1693
    119  C        -83.0710   11.8420  -10.8340 C.2   367  LYS367      0.2592
    120  O        -82.4600   12.5140  -10.0110 O.2   367  LYS367     -0.2718
    121  CB       -82.5550    9.4290  -11.2630 C.3   367  LYS367      0.0285
    122  CG       -82.0820    9.1780   -9.8370 C.3   367  LYS367      0.0035
    123  CD       -82.3150    7.7500   -9.3980 C.3   367  LYS367      0.0206
    124  CE       -81.8550    7.5820   -7.9740 C.3   367  LYS367      0.1093
    125  NZ       -81.8620    6.1490   -7.5950 N.3   367  LYS367     -0.1314
    126  N        -84.4020   11.8910  -10.9930 N.am  368  TYR368     -0.1962
    127  CA       -85.3050   12.5830  -10.0580 C.3   368  TYR368      0.1771
    128  C        -85.6160   11.5290   -8.9910 C.2   368  TYR368      0.2620
    129  O        -86.0700   10.4600   -9.3340 O.2   368  TYR368     -0.2715
    130  CB       -86.6040   13.0630  -10.7450 C.3   368  TYR368      0.0574
    131  CG       -87.4450   13.8630   -9.7940 C.ar  368  TYR368     -0.0198
    132  CD1      -88.2210   13.2360   -8.7890 C.ar  368  TYR368     -0.0009
    133  CD2      -87.4190   15.2580   -9.8210 C.ar  368  TYR368     -0.0009
    134  CE1      -88.9270   13.9750   -7.8540 C.ar  368  TYR368      0.0417
    135  CE2      -88.1590   16.0100   -8.8920 C.ar  368  TYR368      0.0417
    136  CZ       -88.9000   15.3590   -7.9090 C.ar  368  TYR368      0.1957
    137  OH       -89.6310   16.0810   -6.9900 O.3   368  TYR368     -0.2866
    138  N        -85.3620   11.8210   -7.7150 N.am  369  ASP369     -0.1957
    139  CA       -85.7070   10.9130   -6.6310 C.3   369  ASP369      0.1840
    140  C        -86.0130   11.6980   -5.3520 C.2   369  ASP369      0.2621
    141  O        -85.1270   12.2790   -4.7210 O.2   369  ASP369     -0.2715
    142  CB       -84.5980    9.9020   -6.4080 C.3   369  ASP369      0.1450
    143  CG       -84.9640    8.8050   -5.3880 C.2   369  ASP369      0.3671
    144  OD1      -85.7020    9.0440   -4.4060 O.co2 369  ASP369     -0.2456
    145  OD2      -84.4660    7.6770   -5.5640 O.co2 369  ASP369     -0.2456
    146  N        -87.2940   11.6760   -4.9730 N.am  370  GLU370     -0.1977
    147  CA       -87.7890   12.4470   -3.8500 C.3   370  GLU370      0.1602
    148  C        -87.2250   11.9430   -2.5300 C.2   370  GLU370      0.2287
    149  O        -86.6320   12.7100   -1.7650 O.2   370  GLU370     -0.2864
    150  CB       -89.3120   12.3950   -3.8030 C.3   370  GLU370      0.0415
    151  CG       -89.9140   13.5400   -2.9880 C.3   370  GLU370      0.1163
    152  CD       -91.3780   13.3480   -2.6090 C.2   370  GLU370      0.3649
    153  OE1      -91.8510   14.2890   -1.9350 O.co2 370  GLU370     -0.2457
    154  OE2      -92.0250   12.3000   -2.9580 O.co2 370  GLU370     -0.2457
    155  N        -83.5040   12.9340   -2.1010 N.3   373  SER373     -0.1217
    156  CA       -83.2720   14.3600   -1.8390 C.3   373  SER373      0.1889
    157  C        -83.4000   14.6990   -0.3490 C.2   373  SER373      0.2288
    158  O        -82.5410   15.3820    0.2050 O.2   373  SER373     -0.2866
    159  CB       -84.1770   15.2610   -2.6730 C.3   373  SER373      0.2089
    160  OG       -85.5210   15.2370   -2.2350 O.3   373  SER373     -0.2183
    161  N        -80.2030   16.3510    1.7300 N.3   377  TYR377     -0.1241
    162  CA       -80.2610   17.6010    2.5040 C.3   377  TYR377      0.1605
    163  C        -79.8120   17.3190    3.9520 C.2   377  TYR377      0.2264
    164  O        -78.9730   18.0170    4.5030 O.2   377  TYR377     -0.2867
    165  CB       -81.6570   18.2350    2.5100 C.3   377  TYR377      0.0534
    166  CG       -82.1270   18.8660    1.2140 C.ar  377  TYR377     -0.0201
    167  CD1      -81.4590   19.9530    0.6380 C.ar  377  TYR377     -0.0009
    168  CD2      -83.2810   18.4050    0.5710 C.ar  377  TYR377     -0.0009
    169  CE1      -81.9080   20.5480   -0.5660 C.ar  377  TYR377      0.0417
    170  CE2      -83.7360   18.9740   -0.6200 C.ar  377  TYR377      0.0417
    171  CZ       -83.0530   20.0520   -1.1920 C.ar  377  TYR377      0.1957
    172  OH       -83.5330   20.6030   -2.3670 O.3   377  TYR377     -0.2866
    173  N        -81.4310   32.8990  -11.0900 N.3   390  GLU390     -0.1245
    174  CA       -82.2660   32.1460  -10.1930 C.3   390  GLU390      0.1567
    175  C        -83.4150   33.0370   -9.6800 C.2   390  GLU390      0.2260
    176  O        -83.2240   33.8270   -8.7430 O.2   390  GLU390     -0.2867
    177  CB       -81.4150   31.5690   -9.0370 C.3   390  GLU390      0.0388
    178  CG       -82.0930   30.4720   -8.2480 C.3   390  GLU390      0.1160
    179  CD       -82.2660   29.1990   -9.0500 C.2   390  GLU390      0.3649
    180  OE1      -83.4360   28.8330   -9.2960 O.co2 390  GLU390     -0.2457
    181  OE2      -81.2680   28.5390   -9.4530 O.co2 390  GLU390     -0.2457
    182  N        -85.2910   30.0820   -6.1710 N.3   393  GLY393     -0.1210
    183  CA       -84.5870   28.9540   -5.6220 C.3   393  GLY393      0.1956
    184  C        -85.1350   28.6100   -4.2410 C.2   393  GLY393      0.2612
    185  O        -85.2930   29.4810   -3.3640 O.2   393  GLY393     -0.2717
    186  N        -85.4390   27.3270   -4.0740 N.am  394  LEU394     -0.1965
    187  CA       -85.9260   26.7830   -2.8280 C.3   394  LEU394      0.1728
    188  C        -84.8980   25.8740   -2.1510 C.2   394  LEU394      0.2616
    189  O        -84.9200   25.7480   -0.9110 O.2   394  LEU394     -0.2715
    190  CB       -87.2040   25.9950   -3.0910 C.3   394  LEU394      0.0311
    191  CG       -88.3510   26.7760   -3.7500 C.3   394  LEU394      0.0022
    192  CD1      -89.5780   25.8910   -3.8920 C.3   394  LEU394      0.0001
    193  CD2      -88.7130   28.0470   -2.9880 C.3   394  LEU394      0.0001
    194  N        -84.0100   25.2580   -2.9330 N.am  395  THR395     -0.1951
    195  CA       -83.1010   24.2670   -2.3940 C.3   395  THR395      0.1897
    196  C        -82.1500   24.8370   -1.3460 C.2   395  THR395      0.2313
    197  O        -81.7960   24.1420   -0.3850 O.2   395  THR395     -0.2863
    198  CB       -82.2810   23.6160   -3.5070 C.3   395  THR395      0.1794
    199  OG1      -81.5280   24.6220   -4.1940 O.3   395  THR395     -0.2208
    200  CG2      -83.1990   22.8400   -4.4900 C.3   395  THR395      0.0378
    201  N        -84.2860   24.9450    1.8090 N.3   398  ILE398     -0.1245
    202  CA       -84.4330   23.5860    2.3330 C.3   398  ILE398      0.1561
    203  C        -83.1020   23.1480    2.9620 C.2   398  ILE398      0.2260
    204  O        -83.1040   22.6280    4.0770 O.2   398  ILE398     -0.2867
    205  CB       -84.8640   22.5500    1.2590 C.3   398  ILE398      0.0252
    206  CG1      -86.2030   22.9180    0.6250 C.3   398  ILE398      0.0019
    207  CG2      -84.9820   21.1420    1.8600 C.3   398  ILE398      0.0019
    208  CD1      -86.5160   22.1180   -0.6390 C.3   398  ILE398      0.0001
@<TRIPOS>BOND
     1    81    82    1
     2    82    85    1
     3    82    83    1
     4    85    86    1
     5   113   114    2
     6   113   112    1
     7    79    78    1
     8   115   112    1
     9   115   116    1
    10    88    87    2
    11   112   111    1
    12    83    90   am
    13    83    84    2
    14    86    87    1
    15    16    14    1
    16    15    14    1
    17    90    91    1
    18    78    80    1
    19    78    77    2
    20    87    89   am
    21    72    73    2
    22    72    71    1
    23    14    11    1
    24    74    71    1
    25    74    75    1
    26    76    77    1
    27    76    75    1
    28   111   109   am
    29    91    92    1
    30    91    94    1
    31    92    93    2
    32    71    70    1
    33    94    95    1
    34    95    96    1
    35   110   109    2
    36    31    30    1
    37   109   108    1
    38   117   118    1
    39    11    12    1
    40    11    10    1
    41   118   121    1
    42   118   119    1
    43   121   122    1
    44    70    65   am
    45    96    97    1
    46   173   174    1
    47    12    13    2
    48    12    17   am
    49   126   119   am
    50   126   127    1
    51    32    30    1
    52    10     3   am
    53    97    98    1
    54   119   120    2
    55    30    29    1
    56   130   127    1
    57   130   131    1
    58   108   107    1
    59    66    65    2
    60    17    18    1
    61     4     3    2
    62    29    26    1
    63     3     2    1
    64    65    64    1
    65   174   175    1
    66   174   177    1
    67    68    67    1
    68   127   128    1
    69    69    67    1
    70   122   123    1
    71   133   131   ar
    72   133   135   ar
    73   131   132   ar
    74     1     2    1
    75    18    19    1
    76   175   176    2
    77   107   101   am
    78   181   179   ar
    79     2     5    1
    80   123   124    1
    81   129   128    2
    82    67    64    1
    83   180   179   ar
    84   179   178    1
    85    26    25    1
    86    26    27    1
    87   177   178    1
    88    64    63    1
    89   128   138   am
    90   135   136   ar
    91    25    23   am
    92   132   134   ar
    93    19    21   am
    94    19    20    2
    95    21    22    1
    96   101   102    2
    97   101   100    1
    98    27    28    2
    99    63    57   am
   100     5     6    1
   101   124   125    1
   102   136   134   ar
   103   136   137    1
   104   138   139    1
   105     6     7    1
   106    23    22    1
   107    23    24    2
   108   100    99    1
   109   100   103    1
   110   105   104    1
   111    57    58    2
   112    57    56    1
   113   139   142    1
   114   139   140    1
   115   104   103    1
   116   104   106    1
   117   142   143    1
   118     7     8    1
   119   182   183    1
   120     8     9    1
   121    56    55    1
   122    56    59    1
   123    33    34    1
   124   183   184    1
   125   145   143   ar
   126   143   144   ar
   127   140   146   am
   128   140   141    2
   129    61    59    1
   130   146   147    1
   131    59    60    1
   132   200   198    1
   133    34    37    1
   134    34    35    1
   135   184   186   am
   136   184   185    2
   137   199   198    1
   138   186   187    1
   139    40    38   ar
   140    39    38   ar
   141    38    37    1
   142   192   191    1
   143   147   150    1
   144   147   148    1
   145   150   151    1
   146    35    36    2
   147   191   190    1
   148   191   193    1
   149    60    62    1
   150   198   195    1
   151   190   187    1
   152   151   152    1
   153   154   152   ar
   154   194   195    1
   155   194   188   am
   156   187   188    1
   157   159   160    1
   158   159   156    1
   159   152   153   ar
   160   148   149    2
   161   195   196    1
   162   172   171    1
   163   188   189    2
   164   155   156    1
   165   156   157    1
   166   196   197    2
   167   171   170   ar
   168   171   169   ar
   169   208   206    1
   170   170   168   ar
   171   169   167   ar
   172   157   158    2
   173    52    54   ar
   174    52    50   ar
   175    54    53   ar
   176   168   166   ar
   177   206   205    1
   178   167   166   ar
   179    49    50   ar
   180    49    47   ar
   181    50    48   ar
   182   166   165    1
   183    53    51   ar
   184   205   207    1
   185   205   202    1
   186   161   162    1
   187   201   202    1
   188    47    46   ar
   189    48    51   ar
   190    48    46   ar
   191   202   203    1
   192   162   165    1
   193   162   163    1
   194    46    45    1
   195   203   204    2
   196   163   164    2
   197    45    42    1
   198    41    42    1
   199    42    43    1
   200    43    44    2
