@<TRIPOS>MOLECULE
tmp/6gneB01.pdb
 209 202 0 0 0
SMALL
GASTEIGER

@<TRIPOS>ATOM
      1  N        -98.8210   22.5050  -11.8450 N.3    11  GLU11      -0.1245
      2  CA       -98.1740   21.6980  -10.8170 C.3    11  GLU11       0.1567
      3  C        -98.6920   21.9730   -9.4100 C.2    11  GLU11       0.2260
      4  O        -99.1460   23.0690   -9.0850 O.2    11  GLU11      -0.2867
      5  CB       -96.6700   21.9560  -10.7460 C.3    11  GLU11       0.0388
      6  CG       -95.8560   21.5840  -11.9650 C.3    11  GLU11       0.1160
      7  CD       -94.4010   22.0360  -11.8140 C.2    11  GLU11       0.3649
      8  OE1      -93.7400   21.6190  -10.8360 O.co2  11  GLU11      -0.2457
      9  OE2      -93.9040   22.8030  -12.6640 O.co2  11  GLU11      -0.2457
     10  N        -92.5830   19.0960  -10.9650 N.3    18  VAL18      -0.1231
     11  CA       -91.3470   19.0980  -11.7620 C.3    18  VAL18       0.1692
     12  C        -90.2300   19.8710  -11.0520 C.2    18  VAL18       0.2593
     13  O        -89.1250   19.4180  -10.9790 O.2    18  VAL18      -0.2718
     14  CB       -91.6010   19.6670  -13.1780 C.3    18  VAL18       0.0266
     15  CG1      -90.3030   19.8570  -13.9430 C.3    18  VAL18       0.0020
     16  CG2      -92.4990   18.7130  -13.9590 C.3    18  VAL18       0.0020
     17  N        -90.5290   21.0520  -10.5550 N.am   19  GLY19      -0.1942
     18  CA       -89.6130   21.7600   -9.6840 C.3    19  GLY19       0.2014
     19  C        -90.3010   22.6270   -8.6640 C.2    19  GLY19       0.2639
     20  O        -91.2200   22.1840   -7.9710 O.2    19  GLY19      -0.2714
     21  N        -89.8310   23.8670   -8.5600 N.am   20  GLY20      -0.1939
     22  CA       -90.2210   24.7310   -7.4690 C.3    20  GLY20       0.2014
     23  C        -91.6290   25.2700   -7.5910 C.2    20  GLY20       0.2638
     24  O        -92.2280   25.6690   -6.5750 O.2    20  GLY20      -0.2714
     25  N        -92.1480   25.3500   -8.8190 N.am   21  LEU21      -0.1977
     26  CA       -93.4910   25.8690   -9.0460 C.3    21  LEU21       0.1596
     27  C        -94.4980   25.0410   -8.2610 C.2    21  LEU21       0.2287
     28  O        -95.2760   25.5540   -7.4660 O.2    21  LEU21      -0.2864
     29  CB       -93.8460   25.9000  -10.5270 C.3    21  LEU21       0.0297
     30  CG       -95.1550   26.6320  -10.8120 C.3    21  LEU21       0.0022
     31  CD1      -95.0720   27.5010  -12.0400 C.3    21  LEU21       0.0001
     32  CD2      -96.3120   25.6730  -10.9690 C.3    21  LEU21       0.0001
     33  N        -94.3280   25.7380   -4.5700 N.3    24  VAL24      -0.1245
     34  CA       -94.9130   27.0290   -4.2230 C.3    24  VAL24       0.1561
     35  C        -96.4420   26.9890   -4.1800 C.2    24  VAL24       0.2260
     36  O        -97.0710   27.5450   -3.2390 O.2    24  VAL24      -0.2867
     37  CB       -94.4060   28.1420   -5.1480 C.3    24  VAL24       0.0252
     38  CG1      -95.1510   29.4400   -4.9130 C.3    24  VAL24       0.0019
     39  CG2      -92.9120   28.3590   -4.9250 C.3    24  VAL24       0.0019
     40  N        -94.4380   18.1670  -18.8820 N.3   105  TYR105     -0.1227
     41  CA       -94.0950   19.1940  -19.8730 C.3   105  TYR105      0.1736
     42  C        -93.2720   18.6010  -20.9830 C.2   105  TYR105      0.2596
     43  O        -92.7490   17.4910  -20.8460 O.2   105  TYR105     -0.2718
     44  CB       -93.2430   20.2880  -19.2460 C.3   105  TYR105      0.0548
     45  CG       -93.8180   20.9880  -18.0380 C.ar  105  TYR105     -0.0200
     46  CD1      -95.1200   21.4400  -18.0290 C.ar  105  TYR105     -0.0009
     47  CD2      -93.0240   21.2440  -16.9310 C.ar  105  TYR105     -0.0009
     48  CE1      -95.6200   22.1430  -16.9530 C.ar  105  TYR105      0.0417
     49  CE2      -93.5040   21.9530  -15.8340 C.ar  105  TYR105      0.0417
     50  CZ       -94.8030   22.4170  -15.8480 C.ar  105  TYR105      0.1957
     51  OH       -95.3000   23.1330  -14.7880 O.3   105  TYR105     -0.2866
     52  N        -93.1280   19.3600  -22.0710 N.am  106  GLY106     -0.1957
     53  CA       -92.2110   19.0190  -23.1610 C.3   106  GLY106      0.1869
     54  C        -92.7960   18.3680  -24.3910 C.2   106  GLY106      0.2309
     55  O        -92.0670   17.9060  -25.2320 O.2   106  GLY106     -0.2863
     56  N        -97.5430   21.6580  -26.4450 N.3   110  ASP110     -0.1239
     57  CA       -97.7610   22.2030  -25.0870 C.3   110  ASP110      0.1674
     58  C        -98.7490   23.3860  -25.0540 C.2   110  ASP110      0.2266
     59  O        -99.5840   23.4800  -24.1480 O.2   110  ASP110     -0.2867
     60  CB       -96.4400   22.6330  -24.4100 C.3   110  ASP110      0.1410
     61  CG       -95.7380   21.5050  -23.6780 C.2   110  ASP110      0.3668
     62  OD1      -96.2880   20.3920  -23.5420 O.co2 110  ASP110     -0.2456
     63  OD2      -94.6050   21.7680  -23.2140 O.co2 110  ASP110     -0.2456
     64  N        -97.4690   31.0390  -14.2090 N.3   139  ASP139     -0.1225
     65  CA       -96.5890   30.8180  -15.3830 C.3   139  ASP139      0.1805
     66  C        -97.3340   30.7400  -16.7190 C.2   139  ASP139      0.2598
     67  O        -98.5650   30.8850  -16.7610 O.2   139  ASP139     -0.2718
     68  CB       -95.6460   29.6220  -15.1650 C.3   139  ASP139      0.1424
     69  CG       -94.3570   30.0340  -14.4410 C.2   139  ASP139      0.3668
     70  OD1      -94.3960   31.0120  -13.6840 O.co2 139  ASP139     -0.2456
     71  OD2      -93.2820   29.4180  -14.6390 O.co2 139  ASP139     -0.2456
     72  N        -96.5950   30.5560  -17.8130 N.am  140  TRP140     -0.1962
     73  CA       -97.2050   30.7100  -19.1340 C.3   140  TRP140      0.1771
     74  C        -98.3570   29.7310  -19.3630 C.2   140  TRP140      0.2619
     75  O        -99.3280   30.0930  -20.0350 O.2   140  TRP140     -0.2715
     76  CB       -96.1630   30.6470  -20.2670 C.3   140  TRP140      0.0590
     77  CG       -95.6930   29.2820  -20.6230 C.ar  140  TRP140      0.0006
     78  CD1      -94.5840   28.6500  -20.1480 C.ar  140  TRP140      0.0946
     79  CD2      -96.3180   28.3660  -21.5350 C.ar  140  TRP140      0.0152
     80  NE1      -94.4820   27.3930  -20.6940 N.ar  140  TRP140     -0.2442
     81  CE2      -95.5330   27.1990  -21.5570 C.ar  140  TRP140      0.0810
     82  CE3      -97.4700   28.4110  -22.3140 C.ar  140  TRP140      0.0012
     83  CZ2      -95.8630   26.0890  -22.3520 C.ar  140  TRP140      0.0191
     84  CZ3      -97.7900   27.3120  -23.0950 C.ar  140  TRP140      0.0001
     85  CH2      -97.0020   26.1690  -23.1000 C.ar  140  TRP140      0.0015
     86  N        -98.2570   28.5270  -18.8010 N.am  141  GLN141     -0.1977
     87  CA       -99.2680   27.5020  -19.0240 C.3   141  GLN141      0.1601
     88  C       -100.7130   27.9240  -18.6030 C.2   141  GLN141      0.2287
     89  O       -101.6930   27.5880  -19.2730 O.2   141  GLN141     -0.2864
     90  CB       -98.8860   26.2120  -18.3250 C.3   141  GLN141      0.0394
     91  CG       -97.6890   25.4950  -18.9400 C.3   141  GLN141      0.0908
     92  CD       -96.3460   25.8990  -18.3420 C.2   141  GLN141      0.2608
     93  OE1      -96.2380   26.9510  -17.7180 O.2   141  GLN141     -0.2717
     94  NE2      -95.3210   25.0520  -18.5180 N.am  141  GLN141     -0.0878
     95  N        -92.8990   32.5960  -12.2920 N.3   168  HIS168     -0.1226
     96  CA       -91.8390   31.9850  -11.5120 C.3   168  HIS168      0.1752
     97  C        -90.4950   31.8920  -12.3190 C.2   168  HIS168      0.2596
     98  O        -89.4260   31.5830  -11.7400 O.2   168  HIS168     -0.2718
     99  CB       -92.2400   30.5760  -11.1170 C.3   168  HIS168      0.0759
    100  CG       -93.4350   30.4830  -10.2400 C.ar  168  HIS168      0.0818
    101  ND1      -93.3570   30.0460   -8.9360 N.ar  168  HIS168     -0.2268
    102  CD2      -94.7500   30.6680  -10.4990 C.ar  168  HIS168      0.1154
    103  CE1      -94.5710   30.0420   -8.4120 C.ar  168  HIS168      0.1986
    104  NE2      -95.4330   30.4150   -9.3350 N.ar  168  HIS168     -0.2212
    105  N        -90.5650   32.0990  -13.6410 N.am  169  ASN169     -0.1974
    106  CA       -89.3730   32.2480  -14.4800 C.3   169  ASN169      0.1688
    107  C        -89.7650   32.8960  -15.8080 C.2   169  ASN169      0.2292
    108  O        -90.3910   32.2480  -16.6670 O.2   169  ASN169     -0.2864
    109  CB       -88.7000   30.8820  -14.7220 C.3   169  ASN169      0.1181
    110  CG       -87.3910   30.9730  -15.5200 C.2   169  ASN169      0.2629
    111  OD1      -86.9720   32.0500  -15.9340 O.2   169  ASN169     -0.2716
    112  ND2      -86.7580   29.8190  -15.7530 N.am  169  ASN169     -0.0877
    113  N        -89.6530   31.5740  -19.5870 N.3   172  TYR172     -0.1241
    114  CA       -90.6850   30.7880  -20.2650 C.3   172  TYR172      0.1605
    115  C        -91.9460   31.5930  -20.4860 C.2   172  TYR172      0.2264
    116  O        -92.7570   31.7470  -19.5710 O.2   172  TYR172     -0.2867
    117  CB       -90.9650   29.5100  -19.4930 C.3   172  TYR172      0.0534
    118  CG       -89.7280   28.6390  -19.3520 C.ar  172  TYR172     -0.0201
    119  CD1      -88.9310   28.3320  -20.4750 C.ar  172  TYR172     -0.0009
    120  CD2      -89.3420   28.1150  -18.0850 C.ar  172  TYR172     -0.0009
    121  CE1      -87.8060   27.5300  -20.3550 C.ar  172  TYR172      0.0417
    122  CE2      -88.2250   27.3040  -17.9530 C.ar  172  TYR172      0.0417
    123  CZ       -87.4610   27.0040  -19.0930 C.ar  172  TYR172      0.1957
    124  OH       -86.3490   26.2040  -19.0140 O.3   172  TYR172     -0.2866
    125  N        -90.9780   35.9390   -7.9110 N.3   222  VAL222     -0.1245
    126  CA       -90.6890   35.1270   -6.7390 C.3   222  VAL222      0.1561
    127  C        -89.4770   35.5940   -5.8720 C.2   222  VAL222      0.2260
    128  O        -89.1080   34.8910   -4.9050 O.2   222  VAL222     -0.2867
    129  CB       -90.6090   33.6460   -7.1530 C.3   222  VAL222      0.0252
    130  CG1      -91.9990   33.1950   -7.5740 C.3   222  VAL222      0.0019
    131  CG2      -89.5990   33.4250   -8.2700 C.3   222  VAL222      0.0019
    132  N        -90.3080   33.6570   -2.2010 N.3   255  ASN255     -0.1240
    133  CA       -90.9690   32.4060   -1.8060 C.3   255  ASN255      0.1653
    134  C        -90.5360   31.9880   -0.3820 C.2   255  ASN255      0.2266
    135  O        -89.3940   32.2010    0.0070 O.2   255  ASN255     -0.2867
    136  CB       -90.6170   31.2530   -2.7380 C.3   255  ASN255      0.1155
    137  CG       -91.1610   31.3980   -4.1490 C.2   255  ASN255      0.2627
    138  OD1      -90.5900   30.7960   -5.0700 O.2   255  ASN255     -0.2716
    139  ND2      -92.2630   32.1020   -4.3330 N.am  255  ASN255     -0.0877
    140  N        -82.0490   20.3240  -11.1390 N.3   310  ARG310     -0.1245
    141  CA       -82.2130   19.9950  -12.5250 C.3   310  ARG310      0.1563
    142  C        -80.9320   20.4930  -13.1890 C.2   310  ARG310      0.2260
    143  O        -80.4300   21.5440  -12.8240 O.2   310  ARG310     -0.2867
    144  CB       -83.4600   20.6750  -13.1070 C.3   310  ARG310      0.0307
    145  CG       -84.7850   20.1840  -12.4780 C.3   310  ARG310      0.0489
    146  CD       -86.0400   20.9800  -12.8610 C.3   310  ARG310      0.2205
    147  NE       -85.8050   22.4320  -12.7870 N.pl3 310  ARG310     -0.0865
    148  CZ       -85.4910   23.2310  -13.8190 C.cat 310  ARG310      0.5346
    149  NH1      -85.3740   22.7540  -15.0450 N.pl3 310  ARG310      0.1354
    150  NH2      -85.2880   24.5320  -13.6220 N.pl3 310  ARG310      0.1354
    151  N        -79.3430   27.2410  -16.5760 N.3   314  GLN314     -0.1231
    152  CA       -79.7010   28.1520  -15.4930 C.3   314  GLN314      0.1698
    153  C        -78.9030   27.8980  -14.2020 C.2   314  GLN314      0.2592
    154  O        -78.4960   28.8410  -13.4930 O.2   314  GLN314     -0.2718
    155  CB       -81.2100   28.0370  -15.1900 C.3   314  GLN314      0.0381
    156  CG       -81.6940   28.8580  -13.9930 C.3   314  GLN314      0.0905
    157  CD       -83.1240   28.5470  -13.5850 C.2   314  GLN314      0.2608
    158  OE1      -83.9500   28.1410  -14.4220 O.2   314  GLN314     -0.2717
    159  NE2      -83.4540   28.7930  -12.3050 N.am  314  GLN314     -0.0878
    160  N        -78.6940   26.6100  -13.9170 N.am  315  LYS315     -0.1980
    161  CA       -78.1410   26.1730  -12.6480 C.3   315  LYS315      0.1596
    162  C        -76.6010   26.1960  -12.5910 C.2   315  LYS315      0.2287
    163  O        -76.0190   25.7910  -11.5790 O.2   315  LYS315     -0.2864
    164  CB       -78.6760   24.7810  -12.3390 C.3   315  LYS315      0.0298
    165  CG       -80.1950   24.6920  -12.3160 C.3   315  LYS315      0.0038
    166  CD       -80.7800   25.4470  -11.1380 C.3   315  LYS315      0.0206
    167  CE       -82.2570   25.1680  -10.9650 C.3   315  LYS315      0.1093
    168  NZ       -82.9070   26.1220  -10.0050 N.3   315  LYS315     -0.1314
    169  N        -82.9870   17.4550  -18.8810 N.3   341  PRO341     -0.2116
    170  CA       -83.7560   17.2150  -20.1040 C.3   341  PRO341      0.1372
    171  C        -82.9430   17.4560  -21.3910 C.2   341  PRO341      0.2244
    172  O        -83.4890   17.2270  -22.4710 O.2   341  PRO341     -0.2868
    173  CB       -84.8830   18.2490  -20.0090 C.3   341  PRO341      0.0268
    174  CG       -84.2800   19.3740  -19.2570 C.3   341  PRO341      0.0207
    175  CD       -83.2140   18.8160  -18.3570 C.3   341  PRO341      0.0892
    176  N        -81.4310   32.8990  -11.0900 N.3   390  GLU390     -0.1231
    177  CA       -82.2660   32.1460  -10.1930 C.3   390  GLU390      0.1684
    178  C        -83.4150   33.0370   -9.6800 C.2   390  GLU390      0.2434
    179  O        -83.2240   33.8270   -8.7430 O.2   390  GLU390     -0.2733
    180  CB       -81.4150   31.5690   -9.0370 C.3   390  GLU390      0.0402
    181  CG       -82.0930   30.4720   -8.2480 C.3   390  GLU390      0.1161
    182  CD       -82.2660   29.1990   -9.0500 C.2   390  GLU390      0.3649
    183  OE1      -83.4360   28.8330   -9.2960 O.co2 390  GLU390     -0.2457
    184  OE2      -81.2680   28.5390   -9.4530 O.co2 390  GLU390     -0.2457
    185  N        -84.6070   32.9010  -10.2910 N.am  391  PRO391     -0.2718
    186  CA       -85.7910   33.6790   -9.9040 C.3   391  PRO391      0.1535
    187  C        -86.0320   33.6740   -8.4160 C.2   391  PRO391      0.2599
    188  O        -86.2790   34.7240   -7.8300 O.2   391  PRO391     -0.2715
    189  CB       -86.9090   32.9700  -10.6430 C.3   391  PRO391      0.0310
    190  CG       -86.2740   32.4720  -11.9130 C.3   391  PRO391      0.0237
    191  CD       -84.8730   32.0800  -11.4930 C.3   391  PRO391      0.0939
    192  N        -85.9420   32.5010   -7.8110 N.am  392  CYS392     -0.1954
    193  CA       -85.9270   32.3960   -6.3540 C.3   392  CYS392      0.1843
    194  C        -84.9740   31.3220   -5.8680 C.2   392  CYS392      0.2626
    195  O        -83.9810   31.6170   -5.2270 O.2   392  CYS392     -0.2714
    196  CB       -87.3300   32.1370   -5.7860 C.3   392  CYS392      0.0997
    197  SG       -87.3500   32.0880   -3.9760 S.3   392  CYS392     -0.0797
    198  N        -85.2910   30.0820   -6.1710 N.am  393  GLY393     -0.1940
    199  CA       -84.5870   28.9540   -5.6220 C.3   393  GLY393      0.2014
    200  C        -85.1350   28.6100   -4.2410 C.2   393  GLY393      0.2638
    201  O        -85.2930   29.4810   -3.3640 O.2   393  GLY393     -0.2714
    202  N        -85.4390   27.3270   -4.0740 N.am  394  LEU394     -0.1977
    203  CA       -85.9260   26.7830   -2.8280 C.3   394  LEU394      0.1596
    204  C        -84.8980   25.8740   -2.1510 C.2   394  LEU394      0.2287
    205  O        -84.9200   25.7480   -0.9110 O.2   394  LEU394     -0.2864
    206  CB       -87.2040   25.9950   -3.0910 C.3   394  LEU394      0.0297
    207  CG       -88.3510   26.7760   -3.7500 C.3   394  LEU394      0.0022
    208  CD1      -89.5780   25.8910   -3.8920 C.3   394  LEU394      0.0001
    209  CD2      -88.7130   28.0470   -2.9880 C.3   394  LEU394      0.0001
@<TRIPOS>BOND
     1    56    57    1
     2    55    54    2
     3    57    58    1
     4    57    60    1
     5    58    59    2
     6    60    61    1
     7    54    53    1
     8    61    62   ar
     9    61    63   ar
    10    53    52    1
    11    85    84   ar
    12    85    83   ar
    13    84    82   ar
    14   172   171    2
    15    83    81   ar
    16    82    79   ar
    17    52    42   am
    18    81    79   ar
    19    81    80   ar
    20    79    77   ar
    21   171   170    1
    22    42    43    2
    23    42    41    1
    24    80    78   ar
    25    77    76    1
    26    77    78   ar
    27   115   114    1
    28   115   116    2
    29   119   121   ar
    30   119   118   ar
    31   121   123   ar
    32    76    73    1
    33   114   113    1
    34   114   117    1
    35   170   173    1
    36   170   169    1
    37    75    74    2
    38   173   174    1
    39    41    44    1
    40    41    40    1
    41   117   118    1
    42    74    73    1
    43    74    86   am
    44   118   120   ar
    45    89    88    2
    46   174   175    1
    47    44    45    1
    48    73    72    1
    49   123   124    1
    50   123   122   ar
    51    87    86    1
    52    87    88    1
    53    87    90    1
    54    91    92    1
    55    91    90    1
    56   169   175    1
    57    94    92   am
    58    92    93    2
    59   120   122   ar
    60    45    46   ar
    61    45    47   ar
    62    46    48   ar
    63    72    66   am
    64    48    50   ar
    65    47    49   ar
    66    67    66    2
    67    66    65    1
    68   108   107    2
    69   151   152    1
    70   111   110    2
    71    50    49   ar
    72    50    51    1
    73   107   106    1
    74   112   110   am
    75   110   109    1
    76   152   155    1
    77   152   153    1
    78    65    68    1
    79    65    64    1
    80   155   156    1
    81    68    69    1
    82   149   148    1
    83   109   106    1
    84    71    69   ar
    85   106   105    1
    86    69    70   ar
    87   158   157    2
    88   153   160   am
    89   153   154    2
    90   156   157    1
    91    16    14    1
    92    15    14    1
    93   160   161    1
    94   148   150    1
    95   148   147    2
    96   105    97   am
    97   157   159   am
    98   142   143    2
    99   142   141    1
   100    14    11    1
   101   144   141    1
   102   144   145    1
   103   146   147    1
   104   146   145    1
   105     9     7   ar
   106   161   162    1
   107   161   164    1
   108   162   163    2
   109   141   140    1
   110   164   165    1
   111    97    98    2
   112    97    96    1
   113   165   166    1
   114    95    96    1
   115    31    30    1
   116     6     7    1
   117     6     5    1
   118   190   191    1
   119   190   189    1
   120     1     2    1
   121     7     8   ar
   122    11    12    1
   123    11    10    1
   124    96    99    1
   125   191   185    1
   126   166   167    1
   127    99   100    1
   128   176   177    1
   129    12    13    2
   130    12    17   am
   131    32    30    1
   132   167   168    1
   133     2     5    1
   134     2     3    1
   135    30    29    1
   136   189   186    1
   137    17    18    1
   138    29    26    1
   139   102   100   ar
   140   102   104   ar
   141   185   186    1
   142   185   178   am
   143   100   101   ar
   144   177   178    1
   145   177   180    1
   146   186   187    1
   147    18    19    1
   148   178   179    2
   149   184   182   ar
   150     3     4    2
   151   104   103   ar
   152   183   182   ar
   153   182   181    1
   154    26    25    1
   155    26    27    1
   156   180   181    1
   157   101   103   ar
   158    25    23   am
   159    19    21   am
   160    19    20    2
   161    21    22    1
   162   187   188    2
   163   187   192   am
   164   131   129    1
   165    27    28    2
   166   125   126    1
   167   192   193    1
   168    23    22    1
   169    23    24    2
   170   130   129    1
   171   129   126    1
   172   126   127    1
   173   193   194    1
   174   193   196    1
   175   198   194   am
   176   198   199    1
   177   127   128    2
   178   194   195    2
   179   196   197    1
   180   199   200    1
   181    37    39    1
   182    37    38    1
   183    37    34    1
   184   138   137    2
   185    33    34    1
   186   139   137   am
   187   200   202   am
   188   200   201    2
   189    34    35    1
   190    35    36    2
   191   137   136    1
   192   202   203    1
   193   208   207    1
   194   207   206    1
   195   207   209    1
   196   206   203    1
   197   203   204    1
   198   136   133    1
   199   132   133    1
   200   204   205    2
   201   133   134    1
   202   134   135    2
