@<TRIPOS>MOLECULE
tmp/6gneA02.pdb
 96 94 0 0 0
SMALL
GASTEIGER

@<TRIPOS>ATOM
      1  N         -4.7230   21.4320   -2.6370 N.3   150  TRP150     -0.1227
      2  CA        -3.7600   22.5300   -2.5840 C.3   150  TRP150      0.1737
      3  C         -2.9540   22.5560   -1.2810 C.2   150  TRP150      0.2595
      4  O         -1.7590   22.8060   -1.3060 O.2   150  TRP150     -0.2718
      5  CB        -4.4490   23.8790   -2.8550 C.3   150  TRP150      0.0564
      6  CG        -4.9450   23.9620   -4.2640 C.ar  150  TRP150      0.0003
      7  CD1       -6.2210   24.0960   -4.6590 C.ar  150  TRP150      0.0946
      8  CD2       -4.1610   23.8740   -5.4690 C.ar  150  TRP150      0.0152
      9  NE1       -6.3020   24.0950   -6.0370 N.ar  150  TRP150     -0.2442
     10  CE2       -5.0480   23.9490   -6.5540 C.ar  150  TRP150      0.0810
     11  CE3       -2.7840   23.7550   -5.7300 C.ar  150  TRP150      0.0012
     12  CZ2       -4.6210   23.9110   -7.8890 C.ar  150  TRP150      0.0191
     13  CZ3       -2.3520   23.7110   -7.0600 C.ar  150  TRP150      0.0001
     14  CH2       -3.2770   23.7990   -8.1210 C.ar  150  TRP150      0.0015
     15  N         -3.6010   22.2640   -0.1610 N.am  151  ASP151     -0.1974
     16  CA        -2.9440   22.3220    1.1400 C.3   151  ASP151      0.1709
     17  C         -2.1030   21.0840    1.4510 C.2   151  ASP151      0.2293
     18  O         -1.0350   21.2140    2.0250 O.2   151  ASP151     -0.2864
     19  CB        -3.9780   22.6400    2.2320 C.3   151  ASP151      0.1436
     20  CG        -4.5100   24.0890    2.1510 C.2   151  ASP151      0.3671
     21  OD1       -4.2110   24.8530    1.1870 O.co2 151  ASP151     -0.2456
     22  OD2       -5.2560   24.4660    3.0850 O.co2 151  ASP151     -0.2456
     23  N         -5.2110   20.6260  -12.4800 N.3   162  ARG162     -0.1245
     24  CA        -6.1610   21.7010  -12.2140 C.3   162  ARG162      0.1563
     25  C         -7.4260   21.1120  -11.5770 C.2   162  ARG162      0.2260
     26  O         -7.8330   19.9990  -11.9190 O.2   162  ARG162     -0.2867
     27  CB        -6.5920   22.3490  -13.5190 C.3   162  ARG162      0.0307
     28  CG        -5.9880   23.6780  -13.8510 C.3   162  ARG162      0.0489
     29  CD        -4.5590   23.5940  -14.3050 C.3   162  ARG162      0.2205
     30  NE        -3.6710   23.9800  -13.2240 N.pl3 162  ARG162     -0.0865
     31  CZ        -3.4210   25.2410  -12.8530 C.cat 162  ARG162      0.5346
     32  NH1       -4.0600   26.2660  -13.4390 N.pl3 162  ARG162      0.1354
     33  NH2       -2.5410   25.4790  -11.8670 N.pl3 162  ARG162      0.1354
     34  N        -11.8500   32.7550    3.1370 N.3   196  ARG196     -0.1245
     35  CA       -11.7000   31.3090    2.8480 C.3   196  ARG196      0.1563
     36  C        -13.0340   30.5420    3.0450 C.2   196  ARG196      0.2260
     37  O        -13.9540   30.7420    2.2580 O.2   196  ARG196     -0.2867
     38  CB       -10.5520   30.7070    3.6860 C.3   196  ARG196      0.0307
     39  CG        -9.2690   30.4040    2.9440 C.3   196  ARG196      0.0489
     40  CD        -8.3840   31.6060    2.6230 C.3   196  ARG196      0.2205
     41  NE        -6.9670   31.3270    3.0070 N.pl3 196  ARG196     -0.0865
     42  CZ        -6.2040   32.0370    3.8640 C.cat 196  ARG196      0.5346
     43  NH1       -4.9720   31.6220    4.1260 N.pl3 196  ARG196      0.1354
     44  NH2       -6.6350   33.1670    4.4450 N.pl3 196  ARG196      0.1354
     45  N        -13.6170   28.9190   -3.9970 N.3   214  ILE214     -0.1231
     46  CA       -12.3670   29.6600   -3.8130 C.3   214  ILE214      0.1692
     47  C        -11.1460   28.9070   -4.3340 C.2   214  ILE214      0.2592
     48  O        -10.3580   29.4240   -5.0910 O.2   214  ILE214     -0.2718
     49  CB       -12.2270   30.0870   -2.3420 C.3   214  ILE214      0.0266
     50  CG1      -13.3390   31.1300   -2.0430 C.3   214  ILE214      0.0019
     51  CG2      -10.8550   30.7000   -2.0540 C.3   214  ILE214      0.0020
     52  CD1      -13.5960   31.3350   -0.5820 C.3   214  ILE214      0.0001
     53  N        -11.0220   27.6570   -3.9440 N.am  215  PHE215     -0.1962
     54  CA        -9.8290   26.8510   -4.2540 C.3   215  PHE215      0.1771
     55  C         -9.7880   26.1750   -5.6260 C.2   215  PHE215      0.2620
     56  O         -8.7810   25.5980   -5.9720 O.2   215  PHE215     -0.2715
     57  CB        -9.6010   25.8170   -3.1320 C.3   215  PHE215      0.0574
     58  CG        -9.0850   26.4280   -1.8730 C.ar  215  PHE215     -0.0200
     59  CD1       -7.7210   26.5100   -1.6640 C.ar  215  PHE215     -0.0042
     60  CD2       -9.9360   26.9530   -0.8990 C.ar  215  PHE215     -0.0042
     61  CE1       -7.2020   27.0830   -0.5040 C.ar  215  PHE215     -0.0003
     62  CE2       -9.4230   27.5640    0.2370 C.ar  215  PHE215     -0.0003
     63  CZ        -8.0530   27.6140    0.4340 C.ar  215  PHE215     -0.0000
     64  N        -10.8540   26.2230   -6.4100 N.am  216  SER216     -0.1936
     65  CA       -10.8800   25.5200   -7.6850 C.3   216  SER216      0.2055
     66  C        -10.4430   26.4560   -8.7760 C.2   216  SER216      0.2643
     67  O        -10.6790   27.6330   -8.6850 O.2   216  SER216     -0.2714
     68  CB       -12.2740   24.9830   -7.9600 C.3   216  SER216      0.2130
     69  OG       -12.6620   24.0840   -6.9270 O.3   216  SER216     -0.2179
     70  N         -9.8250   25.9180   -9.8140 N.am  217  ASN217     -0.1971
     71  CA        -9.4260   26.7080  -10.9850 C.3   217  ASN217      0.1688
     72  C        -10.5890   26.9550  -11.9540 C.2   217  ASN217      0.2292
     73  O        -10.5360   27.9050  -12.7580 O.2   217  ASN217     -0.2864
     74  CB        -8.2980   25.9880  -11.7360 C.3   217  ASN217      0.1181
     75  CG        -7.1130   25.7210  -10.8550 C.2   217  ASN217      0.2629
     76  OD1       -6.8260   24.5710  -10.4460 O.2   217  ASN217     -0.2716
     77  ND2       -6.4440   26.7870  -10.5030 N.am  217  ASN217     -0.0877
     78  N        -15.6820   35.9530   -7.6920 N.3   246  HIS246     -0.1241
     79  CA       -14.9820   34.9640   -8.5060 C.3   246  HIS246      0.1621
     80  C        -15.7000   34.6980   -9.8400 C.2   246  HIS246      0.2264
     81  O        -15.5880   33.6000  -10.3830 O.2   246  HIS246     -0.2867
     82  CB       -14.8160   33.6620   -7.7070 C.3   246  HIS246      0.0745
     83  CG       -13.8260   33.7760   -6.5930 C.ar  246  HIS246      0.0817
     84  ND1      -14.2010   33.8700   -5.2630 N.ar  246  HIS246     -0.2268
     85  CD2      -12.4770   33.8560   -6.6140 C.ar  246  HIS246      0.1154
     86  CE1      -13.1240   33.9940   -4.5160 C.ar  246  HIS246      0.1986
     87  NE2      -12.0680   33.9960   -5.3120 N.ar  246  HIS246     -0.2212
     88  N        -14.1070   32.9090  -13.3780 N.3   249  LYS249     -0.1245
     89  CA       -13.9180   31.4570  -13.4940 C.3   249  LYS249      0.1561
     90  C        -15.2040   30.6370  -13.2880 C.2   249  LYS249      0.2260
     91  O        -15.1420   29.4060  -13.3390 O.2   249  LYS249     -0.2867
     92  CB       -12.8240   30.9600  -12.5350 C.3   249  LYS249      0.0271
     93  CG       -13.2080   30.9330  -11.0670 C.3   249  LYS249      0.0035
     94  CD       -11.9900   30.7220  -10.1570 C.3   249  LYS249      0.0206
     95  CE       -12.4530   30.5780   -8.7090 C.3   249  LYS249      0.1093
     96  NZ       -11.3480   30.1650   -7.8020 N.3   249  LYS249     -0.1314
@<TRIPOS>BOND
     1    29    28    1
     2    29    30    1
     3    28    27    1
     4    27    24    1
     5    89    88    1
     6    89    90    1
     7    89    92    1
     8    32    31    1
     9    91    90    2
    10    30    31    2
    11    31    33    1
    12    73    72    2
    13    92    93    1
    14    23    24    1
    15    24    25    1
    16    72    71    1
    17    26    25    2
    18    74    71    1
    19    74    75    1
    20    93    94    1
    21    71    70    1
    22    75    77   am
    23    75    76    2
    24    81    80    2
    25    94    95    1
    26    80    79    1
    27    70    66   am
    28    66    67    2
    29    66    65    1
    30    95    96    1
    31    79    82    1
    32    79    78    1
    33    14    12   ar
    34    14    13   ar
    35    68    65    1
    36    68    69    1
    37    12    10   ar
    38    82    83    1
    39    65    64    1
    40    13    11   ar
    41    85    83   ar
    42    85    87   ar
    43    83    84   ar
    44    10     9   ar
    45    10     8   ar
    46    64    55   am
    47     9     7   ar
    48    56    55    2
    49    11     8   ar
    50    55    54    1
    51     8     6   ar
    52    87    86   ar
    53    84    86   ar
    54    48    47    2
    55     7     6   ar
    56    47    53   am
    57    47    46    1
    58     6     5    1
    59    54    53    1
    60    54    57    1
    61    45    46    1
    62    46    49    1
    63    57    58    1
    64     5     2    1
    65     1     2    1
    66     2     3    1
    67    49    51    1
    68    49    50    1
    69    50    52    1
    70    58    59   ar
    71    58    60   ar
    72    59    61   ar
    73     4     3    2
    74     3    15   am
    75    60    62   ar
    76    61    63   ar
    77    15    16    1
    78    62    63   ar
    79    16    17    1
    80    16    19    1
    81    21    20   ar
    82    17    18    2
    83    20    19    1
    84    20    22   ar
    85    37    36    2
    86    40    39    1
    87    40    41    1
    88    35    36    1
    89    35    34    1
    90    35    38    1
    91    39    38    1
    92    41    42    2
    93    42    43    1
    94    42    44    1
