@<TRIPOS>MOLECULE
tmp/6gnfB01.pdb
 123 116 0 0 0
SMALL
GASTEIGER

@<TRIPOS>ATOM
      1  N        -46.8910   42.1060  -69.7040 N.3    26  GLY26      -0.1210
      2  CA       -47.7030   43.0030  -68.8690 C.3    26  GLY26       0.1956
      3  C        -47.0140   43.5560  -67.6150 C.2    26  GLY26       0.2611
      4  O        -47.3060   44.6550  -67.1680 O.2    26  GLY26      -0.2717
      5  N        -46.1110   42.7750  -67.0360 N.am   27  LEU27      -0.1979
      6  CA       -45.3160   43.2420  -65.8920 C.3    27  LEU27       0.1596
      7  C        -44.6030   44.5490  -66.2240 C.2    27  LEU27       0.2287
      8  O        -44.7440   45.5440  -65.5000 O.2    27  LEU27      -0.2864
      9  CB       -44.2970   42.1850  -65.4820 C.3    27  LEU27       0.0297
     10  CG       -43.2140   42.6080  -64.4840 C.3    27  LEU27       0.0022
     11  CD1      -43.8140   43.1000  -63.1870 C.3    27  LEU27       0.0001
     12  CD2      -42.2770   41.4440  -64.2220 C.3    27  LEU27       0.0001
     13  N        -46.8260   47.6710  -66.2440 N.3    30  VAL30      -0.1245
     14  CA       -47.1710   48.1590  -64.9180 C.3    30  VAL30       0.1561
     15  C        -46.0190   48.9550  -64.3100 C.2    30  VAL30       0.2260
     16  O        -46.2320   50.0540  -63.7800 O.2    30  VAL30      -0.2867
     17  CB       -47.5650   47.0090  -63.9630 C.3    30  VAL30       0.0252
     18  CG1      -47.7830   47.5490  -62.5570 C.3    30  VAL30       0.0019
     19  CG2      -48.8150   46.2980  -64.4700 C.3    30  VAL30       0.0019
     20  N        -43.2170   40.2850  -58.3170 N.3   141  ASP141     -0.1239
     21  CA       -43.1570   38.8630  -58.6610 C.3   141  ASP141      0.1674
     22  C        -42.0360   38.0780  -57.9820 C.2   141  ASP141      0.2266
     23  O        -41.2630   38.6380  -57.1970 O.2   141  ASP141     -0.2867
     24  CB       -43.1280   38.6820  -60.1910 C.3   141  ASP141      0.1410
     25  CG       -44.4940   38.2900  -60.7700 C.2   141  ASP141      0.3668
     26  OD1      -45.4990   38.1560  -60.0180 O.co2 141  ASP141     -0.2456
     27  OD2      -44.5580   38.0050  -61.9760 O.co2 141  ASP141     -0.2456
     28  N        -47.8870   39.6070  -59.6160 N.3   171  HIS171     -0.1226
     29  CA       -48.5060   39.7230  -60.9390 C.3   171  HIS171      0.1752
     30  C        -48.9800   38.3820  -61.4780 C.2   171  HIS171      0.2596
     31  O        -49.9110   38.3440  -62.2680 O.2   171  HIS171     -0.2718
     32  CB       -47.5310   40.3440  -61.9420 C.3   171  HIS171      0.0759
     33  CG       -47.0730   41.7110  -61.5580 C.ar  171  HIS171      0.0818
     34  ND1      -47.5920   42.8560  -62.1180 N.ar  171  HIS171     -0.2268
     35  CD2      -46.1440   42.1170  -60.6630 C.ar  171  HIS171      0.1154
     36  CE1      -47.0020   43.9110  -61.5840 C.ar  171  HIS171      0.1986
     37  NE2      -46.1180   43.4880  -60.7000 N.ar  171  HIS171     -0.2212
     38  N        -48.3650   37.2880  -61.0400 N.am  172  ASN172     -0.1974
     39  CA       -48.7090   35.9550  -61.5350 C.3   172  ASN172      0.1688
     40  C        -48.2540   34.8590  -60.5700 C.2   172  ASN172      0.2292
     41  O        -47.0560   34.6190  -60.4010 O.2   172  ASN172     -0.2864
     42  CB       -48.0800   35.7120  -62.9090 C.3   172  ASN172      0.1181
     43  CG       -48.7820   34.6110  -63.6880 C.2   172  ASN172      0.2629
     44  OD1      -49.1740   33.5820  -63.1290 O.2   172  ASN172     -0.2716
     45  ND2      -48.9520   34.8260  -64.9850 N.am  172  ASN172     -0.0877
     46  N        -52.8610   42.2890  -58.5010 N.3   222  VAL222     -0.1245
     47  CA       -53.2370   43.1950  -59.5810 C.3   222  VAL222      0.1561
     48  C        -54.7210   43.1900  -59.9650 C.2   222  VAL222      0.2260
     49  O        -55.0820   43.7580  -60.9880 O.2   222  VAL222     -0.2867
     50  CB       -52.3280   42.9810  -60.8130 C.3   222  VAL222      0.0252
     51  CG1      -50.9120   43.4110  -60.4680 C.3   222  VAL222      0.0019
     52  CG2      -52.3440   41.5330  -61.2760 C.3   222  VAL222      0.0019
     53  N        -55.0940   46.8480  -62.2760 N.3   254  ASN254     -0.1240
     54  CA       -54.1560   47.6370  -63.0750 C.3   254  ASN254      0.1653
     55  C        -54.8960   48.6500  -63.9310 C.2   254  ASN254      0.2266
     56  O        -55.9680   48.3690  -64.4450 O.2   254  ASN254     -0.2867
     57  CB       -53.3510   46.7590  -64.0340 C.3   254  ASN254      0.1155
     58  CG       -52.3050   45.9100  -63.3420 C.2   254  ASN254      0.2627
     59  OD1      -51.8650   46.1960  -62.2310 O.2   254  ASN254     -0.2716
     60  ND2      -51.8900   44.8450  -64.0210 N.am  254  ASN254     -0.0877
     61  N        -49.6830   35.4520  -75.9230 N.3   309  ARG309     -0.1245
     62  CA       -48.7670   34.3120  -75.8800 C.3   309  ARG309      0.1563
     63  C        -49.5230   33.0320  -76.2170 C.2   309  ARG309      0.2260
     64  O        -50.6460   32.8430  -75.7660 O.2   309  ARG309     -0.2867
     65  CB       -48.1260   34.1990  -74.4870 C.3   309  ARG309      0.0307
     66  CG       -47.1900   35.3490  -74.1420 C.3   309  ARG309      0.0489
     67  CD       -46.5620   35.2370  -72.7570 C.3   309  ARG309      0.2205
     68  NE       -47.4980   35.5020  -71.6560 N.pl3 309  ARG309     -0.0865
     69  CZ       -47.9900   34.5850  -70.8150 C.cat 309  ARG309      0.5346
     70  NH1      -47.6660   33.2980  -70.9190 N.pl3 309  ARG309      0.1354
     71  NH2      -48.8220   34.9610  -69.8470 N.pl3 309  ARG309      0.1354
     72  N        -52.0300   29.4190  -70.3520 N.3   313  GLN313     -0.1231
     73  CA       -52.7610   30.4860  -69.6700 C.3   313  GLN313      0.1698
     74  C        -53.8050   31.1840  -70.5420 C.2   313  GLN313      0.2592
     75  O        -54.9000   31.4690  -70.0660 O.2   313  GLN313     -0.2718
     76  CB       -51.8010   31.5370  -69.1180 C.3   313  GLN313      0.0381
     77  CG       -52.5240   32.6440  -68.3710 C.3   313  GLN313      0.0905
     78  CD       -51.6190   33.7360  -67.8620 C.2   313  GLN313      0.2608
     79  OE1      -50.4100   33.5500  -67.7130 O.2   313  GLN313     -0.2717
     80  NE2      -52.2010   34.9050  -67.6130 N.am  313  GLN313     -0.0878
     81  N        -53.4560   31.4590  -71.8020 N.am  314  LYS314     -0.1980
     82  CA       -54.2610   32.3270  -72.6800 C.3   314  LYS314      0.1596
     83  C        -55.3170   31.6110  -73.5280 C.2   314  LYS314      0.2287
     84  O        -56.1730   32.2510  -74.1240 O.2   314  LYS314     -0.2864
     85  CB       -53.3440   33.1310  -73.6060 C.3   314  LYS314      0.0298
     86  CG       -52.3280   34.0070  -72.8810 C.3   314  LYS314      0.0038
     87  CD       -52.9820   35.1990  -72.1990 C.3   314  LYS314      0.0206
     88  CE       -51.9710   35.9670  -71.3590 C.3   314  LYS314      0.1093
     89  NZ       -52.5540   37.1930  -70.7480 N.3   314  LYS314     -0.1314
     90  N        -56.1360   34.6700  -65.2310 N.3   385  GLU385     -0.1231
     91  CA       -55.7210   35.9900  -65.6810 C.3   385  GLU385      0.1684
     92  C        -55.7130   36.9690  -64.5170 C.2   385  GLU385      0.2434
     93  O        -56.7410   37.5400  -64.1830 O.2   385  GLU385     -0.2733
     94  CB       -56.6530   36.4940  -66.7850 C.3   385  GLU385      0.0402
     95  CG       -56.0680   37.6310  -67.6060 C.3   385  GLU385      0.1161
     96  CD       -54.8640   37.1850  -68.4200 C.2   385  GLU385      0.3649
     97  OE1      -55.0540   36.4360  -69.4020 O.co2 385  GLU385     -0.2457
     98  OE2      -53.7310   37.5740  -68.0650 O.co2 385  GLU385     -0.2457
     99  N        -54.5410   37.1650  -63.8920 N.am  386  PRO386     -0.2718
    100  CA       -54.4360   38.0750  -62.7630 C.3   386  PRO386      0.1535
    101  C        -55.0830   39.4370  -63.0070 C.2   386  PRO386      0.2599
    102  O        -55.7530   39.9470  -62.1160 O.2   386  PRO386     -0.2715
    103  CB       -52.9250   38.1880  -62.5680 C.3   386  PRO386      0.0310
    104  CG       -52.4390   36.8260  -62.9270 C.3   386  PRO386      0.0237
    105  CD       -53.2950   36.3950  -64.0840 C.3   386  PRO386      0.0939
    106  N        -54.8430   40.0350  -64.1710 N.am  387  CYS387     -0.1954
    107  CA       -55.5720   41.2420  -64.5710 C.3   387  CYS387      0.1843
    108  C        -55.8900   41.2630  -66.0640 C.2   387  CYS387      0.2626
    109  O        -57.0670   41.3240  -66.4500 O.2   387  CYS387     -0.2714
    110  CB       -54.8120   42.5060  -64.1860 C.3   387  CYS387      0.0997
    111  SG       -55.7300   44.0260  -64.5230 S.3   387  CYS387     -0.0797
    112  N        -54.8490   41.2260  -66.8830 N.am  388  GLY388     -0.1940
    113  CA       -54.9840   41.3200  -68.3330 C.3   388  GLY388      0.2014
    114  C        -54.8710   42.7600  -68.7860 C.2   388  GLY388      0.2638
    115  O        -55.2600   43.6720  -68.0680 O.2   388  GLY388     -0.2714
    116  N        -54.3220   42.9680  -69.9750 N.am  389  LEU389     -0.1977
    117  CA       -54.1470   44.3130  -70.5130 C.3   389  LEU389      0.1596
    118  C        -54.9060   44.5400  -71.8240 C.2   389  LEU389      0.2287
    119  O        -55.3830   45.6400  -72.0670 O.2   389  LEU389     -0.2864
    120  CB       -52.6470   44.5790  -70.6970 C.3   389  LEU389      0.0297
    121  CG       -52.1860   45.9520  -71.1900 C.3   389  LEU389      0.0022
    122  CD1      -52.6340   47.0740  -70.2690 C.3   389  LEU389      0.0001
    123  CD2      -50.6620   45.9970  -71.3350 C.3   389  LEU389      0.0001
@<TRIPOS>BOND
     1    63    62    1
     2    63    64    2
     3    61    62    1
     4    62    65    1
     5    65    66    1
     6    66    67    1
     7    84    83    2
     8    85    86    1
     9    85    82    1
    10    83    82    1
    11    86    87    1
    12    67    68    1
    13    82    81    1
    14    87    88    1
    15   119   118    2
    16   118   117    1
    17    81    74   am
    18    68    69    2
    19    88    89    1
    20   123   121    1
    21   121   120    1
    22   121   122    1
    23    70    69    1
    24    69    71    1
    25   120   117    1
    26    74    75    2
    27    74    73    1
    28   117   116    1
    29    72    73    1
    30   116   114   am
    31     1     2    1
    32    73    76    1
    33    97    96   ar
    34    76    77    1
    35     2     3    1
    36   114   113    1
    37   114   115    2
    38    96    98   ar
    39    96    95    1
    40    77    78    1
    41   113   112    1
    42    78    79    2
    43    78    80   am
    44     3     4    2
    45     3     5   am
    46    95    94    1
    47     5     6    1
    48   112   108   am
    49    94    91    1
    50   109   108    2
    51    13    14    1
    52     7     6    1
    53     7     8    2
    54   108   107    1
    55     6     9    1
    56    91    90    1
    57    91    92    1
    58     9    10    1
    59    45    43   am
    60    14    15    1
    61    14    17    1
    62   107   110    1
    63   107   106    1
    64   111   110    1
    65    92    93    2
    66    92    99   am
    67    10    12    1
    68    10    11    1
    69    19    17    1
    70    56    55    2
    71    15    16    2
    72   106   101   am
    73   105    99    1
    74   105   104    1
    75    57    58    1
    76    57    54    1
    77    60    58   am
    78    17    18    1
    79    55    54    1
    80    99   100    1
    81    43    44    2
    82    43    42    1
    83    58    59    2
    84    54    53    1
    85   101   100    1
    86   101   102    2
    87   104   103    1
    88    42    39    1
    89   100   103    1
    90    31    30    2
    91    34    36   ar
    92    34    33   ar
    93    27    25   ar
    94    32    33    1
    95    32    29    1
    96    36    37   ar
    97    33    35   ar
    98    39    38    1
    99    39    40    1
   100    30    38   am
   101    30    29    1
   102    52    50    1
   103    49    48    2
   104    29    28    1
   105    50    51    1
   106    50    47    1
   107    25    24    1
   108    25    26   ar
   109    37    35   ar
   110    40    41    2
   111    24    21    1
   112    48    47    1
   113    47    46    1
   114    21    20    1
   115    21    22    1
   116    22    23    2
