@<TRIPOS>MOLECULE
tmp/6gnfA00.pdb
 213 204 0 0 0
SMALL
GASTEIGER

@<TRIPOS>ATOM
      1  N        -26.0160    4.8290  -18.6590 N.3    17  LYS17      -0.1231
      2  CA       -27.2420    4.0660  -18.8390 C.3    17  LYS17       0.1693
      3  C        -28.4170    4.8120  -18.2330 C.2    17  LYS17       0.2593
      4  O        -28.3420    5.2570  -17.0970 O.2    17  LYS17      -0.2718
      5  CB       -27.0980    2.7230  -18.1360 C.3    17  LYS17       0.0285
      6  CG       -28.3860    1.8920  -18.0180 C.3    17  LYS17       0.0035
      7  CD       -28.1010    0.3890  -17.9090 C.3    17  LYS17       0.0206
      8  CE       -28.8940   -0.3250  -16.8140 C.3    17  LYS17       0.1093
      9  NZ       -30.3550   -0.3870  -17.0850 N.3    17  LYS17      -0.1314
     10  N        -29.4860    4.9510  -19.0130 N.am   18  THR18      -0.1939
     11  CA       -30.7610    5.5380  -18.5740 C.3    18  THR18       0.2028
     12  C        -31.8750    4.4980  -18.8010 C.2    18  THR18       0.2643
     13  O        -33.0500    4.7550  -18.5310 O.2    18  THR18      -0.2714
     14  CB       -31.1080    6.8100  -19.3900 C.3    18  THR18       0.1808
     15  OG1      -31.4510    6.4640  -20.7530 O.3    18  THR18      -0.2208
     16  CG2      -29.9580    7.8210  -19.3730 C.3    18  THR18       0.0379
     17  N        -31.4820    3.3460  -19.3380 N.am   19  GLY19      -0.1939
     18  CA       -32.4510    2.3460  -19.7600 C.3    19  GLY19       0.2014
     19  C        -31.8280    1.2330  -20.5920 C.2    19  GLY19       0.2639
     20  O        -30.6290    1.0000  -20.5350 O.2    19  GLY19      -0.2714
     21  N        -32.6540    0.6100  -21.4280 N.am   20  GLY20      -0.1939
     22  CA       -32.2600   -0.5560  -22.1950 C.3    20  GLY20       0.2014
     23  C        -31.2060   -0.3410  -23.2520 C.2    20  GLY20       0.2638
     24  O        -30.5050   -1.2810  -23.6010 O.2    20  GLY20      -0.2714
     25  N        -31.0950    0.8670  -23.8000 N.am   21  LEU21      -0.1977
     26  CA       -30.0810    1.1360  -24.8160 C.3    21  LEU21       0.1596
     27  C        -28.6850    0.7580  -24.3250 C.2    21  LEU21       0.2287
     28  O        -27.9290    0.0810  -25.0120 O.2    21  LEU21      -0.2864
     29  CB       -30.0960    2.6140  -25.2140 C.3    21  LEU21       0.0297
     30  CG       -28.9330    3.1020  -26.0870 C.3    21  LEU21       0.0022
     31  CD1      -28.8690    2.3310  -27.4010 C.3    21  LEU21       0.0001
     32  CD2      -29.0790    4.5810  -26.3560 C.3    21  LEU21       0.0001
     33  N        -27.8330   -1.3240  -22.0210 N.3    23  ASP23      -0.1239
     34  CA       -27.6980   -2.7680  -21.8590 C.3    23  ASP23       0.1674
     35  C        -27.3850   -3.4500  -23.1790 C.2    23  ASP23       0.2266
     36  O        -26.5100   -4.2990  -23.2190 O.2    23  ASP23      -0.2867
     37  CB       -28.9550   -3.3830  -21.2440 C.3    23  ASP23       0.1410
     38  CG       -29.1770   -2.9550  -19.7870 C.2    23  ASP23       0.3668
     39  OD1      -28.2040   -2.7610  -19.0160 O.co2  23  ASP23      -0.2456
     40  OD2      -30.3610   -2.8120  -19.3920 O.co2  23  ASP23      -0.2456
     41  N        -35.9590    3.0790  -30.3370 N.3   183  ASN183     -0.1240
     42  CA       -37.2020    3.7540  -29.9730 C.3   183  ASN183      0.1653
     43  C        -37.5580    4.8540  -30.9600 C.2   183  ASN183      0.2266
     44  O        -36.8480    5.8640  -31.0400 O.2   183  ASN183     -0.2867
     45  CB       -37.0890    4.3590  -28.5700 C.3   183  ASN183      0.1155
     46  CG       -38.4560    4.6180  -27.9310 C.2   183  ASN183      0.2627
     47  OD1      -39.4080    5.0530  -28.5850 O.2   183  ASN183     -0.2716
     48  ND2      -38.5590    4.3380  -26.6600 N.am  183  ASN183     -0.0877
     49  N        -27.8910  -10.8580  -13.9260 N.3   291  TRP291     -0.1241
     50  CA       -29.2840  -11.2660  -13.7740 C.3   291  TRP291      0.1605
     51  C        -29.4920  -12.7670  -13.9900 C.2   291  TRP291      0.2264
     52  O        -29.7500  -13.2140  -15.1130 O.2   291  TRP291     -0.2867
     53  CB       -30.1710  -10.4760  -14.7420 C.3   291  TRP291      0.0550
     54  CG       -30.2400   -9.0260  -14.4170 C.ar  291  TRP291      0.0003
     55  CD1      -29.4420   -8.0410  -14.9170 C.ar  291  TRP291      0.0946
     56  CD2      -31.1440   -8.3900  -13.5080 C.ar  291  TRP291      0.0152
     57  NE1      -29.7970   -6.8300  -14.3790 N.ar  291  TRP291     -0.2442
     58  CE2      -30.8380   -7.0160  -13.5100 C.ar  291  TRP291      0.0810
     59  CE3      -32.1790   -8.8490  -12.6890 C.ar  291  TRP291      0.0012
     60  CZ2      -31.5340   -6.0920  -12.7330 C.ar  291  TRP291      0.0191
     61  CZ3      -32.8740   -7.9290  -11.9100 C.ar  291  TRP291      0.0001
     62  CH2      -32.5470   -6.5680  -11.9390 C.ar  291  TRP291      0.0015
     63  N        -41.3130   -2.5860  -12.7550 N.3   337  ILE337     -0.1231
     64  CA       -40.0880   -1.8070  -12.6920 C.3   337  ILE337      0.1692
     65  C        -39.9720   -1.0320  -13.9890 C.2   337  ILE337      0.2593
     66  O        -39.9110   -1.6300  -15.0540 O.2   337  ILE337     -0.2718
     67  CB       -38.8380   -2.6930  -12.5400 C.3   337  ILE337      0.0266
     68  CG1      -39.0180   -3.7050  -11.4060 C.3   337  ILE337      0.0019
     69  CG2      -37.6140   -1.8270  -12.2790 C.3   337  ILE337      0.0020
     70  CD1      -37.9660   -4.7930  -11.3940 C.3   337  ILE337      0.0001
     71  N        -39.9650    0.2930  -13.9190 N.am  338  GLY338     -0.1942
     72  CA       -39.7890    1.0810  -15.1350 C.3   338  GLY338      0.2014
     73  C        -39.9420    2.5690  -14.9570 C.2   338  GLY338      0.2638
     74  O        -40.4390    3.0300  -13.9440 O.2   338  GLY338     -0.2714
     75  N        -39.4940    3.3120  -15.9650 N.am  339  ARG339     -0.1977
     76  CA       -39.6620    4.7650  -16.0200 C.3   339  ARG339      0.1597
     77  C        -41.1280    5.1110  -15.7890 C.2   339  ARG339      0.2287
     78  O        -42.0200    4.4030  -16.2630 O.2   339  ARG339     -0.2864
     79  CB       -39.1890    5.3100  -17.3770 C.3   339  ARG339      0.0334
     80  CG       -37.6860    5.1720  -17.6010 C.3   339  ARG339      0.0492
     81  CD       -37.2120    5.7050  -18.9500 C.3   339  ARG339      0.2205
     82  NE       -37.5900    4.8530  -20.0840 N.pl3 339  ARG339     -0.0865
     83  CZ       -38.5210    5.1450  -21.0000 C.cat 339  ARG339      0.5346
     84  NH1      -39.2150    6.2850  -20.9550 N.pl3 339  ARG339      0.1354
     85  NH2      -38.7750    4.2870  -21.9750 N.pl3 339  ARG339      0.1354
     86  N        -45.0510    5.8660  -21.9350 N.3   343  GLN343     -0.1231
     87  CA       -44.7330    4.6090  -22.5980 C.3   343  GLN343      0.1698
     88  C        -45.0230    3.3670  -21.7540 C.2   343  GLN343      0.2592
     89  O        -45.5400    2.3770  -22.2770 O.2   343  GLN343     -0.2718
     90  CB       -43.2620    4.5740  -23.0320 C.3   343  GLN343      0.0381
     91  CG       -42.9190    3.2810  -23.7570 C.3   343  GLN343      0.0905
     92  CD       -41.4750    3.1620  -24.1360 C.2   343  GLN343      0.2608
     93  OE1      -40.7550    4.1560  -24.2220 O.2   343  GLN343     -0.2717
     94  NE2      -41.0240    1.9330  -24.3490 N.am  343  GLN343     -0.0878
     95  N        -44.6830    3.4200  -20.4630 N.am  344  LYS344     -0.1980
     96  CA       -44.6870    2.2320  -19.5900 C.3   344  LYS344      0.1596
     97  C        -45.9930    1.9620  -18.8480 C.2   344  LYS344      0.2287
     98  O        -46.1740    0.8790  -18.3000 O.2   344  LYS344     -0.2864
     99  CB       -43.5460    2.3320  -18.5740 C.3   344  LYS344      0.0298
    100  CG       -42.1570    2.4520  -19.1910 C.3   344  LYS344      0.0038
    101  CD       -41.7060    1.1550  -19.8370 C.3   344  LYS344      0.0206
    102  CE       -40.3850    1.3380  -20.5630 C.3   344  LYS344      0.1093
    103  NZ       -39.8720    0.0570  -21.1330 N.3   344  LYS344     -0.1314
    104  N        -41.8680    0.0820   -8.8560 N.3   366  LEU366     -0.1231
    105  CA       -40.5870    0.7660   -8.7210 C.3   366  LEU366      0.1696
    106  C        -40.2920    1.5860   -9.9770 C.2   366  LEU366      0.2632
    107  O        -40.2270    1.0350  -11.0690 O.2   366  LEU366     -0.2714
    108  CB       -39.4720   -0.2610   -8.4880 C.3   366  LEU366      0.0284
    109  CG       -38.0280    0.2580   -8.4390 C.3   366  LEU366      0.0019
    110  CD1      -37.8200    1.1650   -7.2310 C.3   366  LEU366      0.0001
    111  CD2      -37.0380   -0.8980   -8.4230 C.3   366  LEU366      0.0001
    112  N        -40.0760    2.8900   -9.8080 N.am  367  GLY367     -0.1718
    113  CA       -39.7970    3.7780  -10.9390 C.2   367  GLY367      0.1480
    114  C        -39.5320    5.2330  -10.5830 C.2   367  GLY367      0.2820
    115  O        -39.8670    5.6850   -9.4940 O.2   367  GLY367     -0.2669
    116  N        -38.9260    5.9580  -11.5200 N.am  368  ILE368     -0.1943
    117  CA       -38.7350    7.4090  -11.4130 C.3   368  ILE368      0.1599
    118  C        -39.1440    8.1310  -12.7070 C.2   368  ILE368      0.2287
    119  O        -39.0660    7.5630  -13.7970 O.2   368  ILE368     -0.2864
    120  CB       -37.2710    7.7730  -11.0730 C.3   368  ILE368      0.0276
    121  CG1      -36.2920    7.1260  -12.0590 C.3   368  ILE368      0.0022
    122  CG2      -36.9480    7.3440   -9.6560 C.3   368  ILE368      0.0022
    123  CD1      -34.9310    7.7840  -12.0850 C.3   368  ILE368      0.0001
    124  N        -37.6090    5.5860   -6.6350 N.3   392  ARG392     -0.1231
    125  CA       -36.1510    5.6390   -6.6320 C.3   392  ARG392      0.1694
    126  C        -35.5970    4.7940   -7.7540 C.2   392  ARG392      0.2592
    127  O        -36.3030    3.9590   -8.3230 O.2   392  ARG392     -0.2718
    128  CB       -35.5910    5.1370   -5.2960 C.3   392  ARG392      0.0321
    129  CG       -35.2480    6.2420   -4.3120 C.3   392  ARG392      0.0489
    130  CD       -34.4970    5.7200   -3.0960 C.3   392  ARG392      0.2205
    131  NE       -35.3870    5.0260   -2.1620 N.pl3 392  ARG392     -0.0865
    132  CZ       -35.5780    3.7070   -2.1050 C.cat 392  ARG392      0.5346
    133  NH1      -36.4230    3.1960   -1.2140 N.pl3 392  ARG392      0.1354
    134  NH2      -34.9330    2.8920   -2.9270 N.pl3 392  ARG392      0.1354
    135  N        -34.3510    5.0580   -8.1210 N.am  393  PHE393     -0.1962
    136  CA       -33.5950    4.0990   -8.8980 C.3   393  PHE393      0.1771
    137  C        -32.8400    3.2490   -7.8870 C.2   393  PHE393      0.2620
    138  O        -31.9680    3.7450   -7.1780 O.2   393  PHE393     -0.2715
    139  CB       -32.6360    4.7650   -9.8580 C.3   393  PHE393      0.0574
    140  CG       -32.1070    3.8330  -10.8960 C.ar  393  PHE393     -0.0200
    141  CD1      -31.0570    2.9720  -10.6020 C.ar  393  PHE393     -0.0042
    142  CD2      -32.6740    3.7940  -12.1650 C.ar  393  PHE393     -0.0042
    143  CE1      -30.5640    2.1040  -11.5650 C.ar  393  PHE393     -0.0003
    144  CE2      -32.1830    2.9310  -13.1350 C.ar  393  PHE393     -0.0003
    145  CZ       -31.1280    2.0850  -12.8320 C.ar  393  PHE393     -0.0000
    146  N        -33.1880    1.9690   -7.8220 N.am  394  ASP394     -0.1957
    147  CA       -32.7160    1.0980   -6.7590 C.3   394  ASP394      0.1840
    148  C        -32.5140   -0.3170   -7.2980 C.2   394  ASP394      0.2622
    149  O        -33.4690   -1.0980   -7.3950 O.2   394  ASP394     -0.2715
    150  CB       -33.7320    1.1140   -5.6140 C.3   394  ASP394      0.1450
    151  CG       -33.2550    0.3500   -4.3870 C.2   394  ASP394      0.3671
    152  OD1      -32.2620   -0.4060   -4.4820 O.co2 394  ASP394     -0.2456
    153  OD2      -33.8710    0.4990   -3.3120 O.co2 394  ASP394     -0.2456
    154  N        -31.2680   -0.6470   -7.6350 N.am  395  SER395     -0.1950
    155  CA       -30.9520   -1.9580   -8.2030 C.3   395  SER395      0.1924
    156  C        -31.2710   -3.0940   -7.2410 C.2   395  SER395      0.2314
    157  O        -31.8250   -4.1190   -7.6380 O.2   395  SER395     -0.2863
    158  CB       -29.4990   -2.0260   -8.6370 C.3   395  SER395      0.2116
    159  OG       -29.3740   -1.3580   -9.8780 O.3   395  SER395     -0.2180
    160  N        -34.9270   -3.7210   -7.3090 N.3   398  ALA398     -0.1245
    161  CA       -35.2520   -4.3130   -8.6030 C.3   398  ALA398      0.1562
    162  C        -34.9880   -5.8190   -8.5800 C.2   398  ALA398      0.2260
    163  O        -35.8160   -6.6110   -9.0410 O.2   398  ALA398     -0.2867
    164  CB       -34.4570   -3.6480   -9.7190 C.3   398  ALA398      0.0290
    165  N        -46.1090   -5.4380  -17.1250 N.3   410  MET410     -0.1245
    166  CA       -45.6680   -4.4030  -18.0660 C.3   410  MET410      0.1570
    167  C        -46.8130   -3.9040  -18.9530 C.2   410  MET410      0.2261
    168  O        -46.9540   -4.3420  -20.0980 O.2   410  MET410     -0.2867
    169  CB       -44.5510   -4.9450  -18.9570 C.3   410  MET410      0.0387
    170  CG       -43.3530   -5.4850  -18.1920 C.3   410  MET410      0.0595
    171  SD       -42.0760   -6.0920  -19.3020 S.3   410  MET410     -0.1393
    172  CE       -41.5170   -4.5710  -20.0400 C.3   410  MET410      0.0692
    173  N        -43.6960   -0.7030  -26.9910 N.3   415  GLU415     -0.1245
    174  CA       -42.5030   -1.3290  -26.4410 C.3   415  GLU415      0.1567
    175  C        -41.6780   -1.9890  -27.5350 C.2   415  GLU415      0.2260
    176  O        -41.9580   -3.1210  -27.9210 O.2   415  GLU415     -0.2867
    177  CB       -42.8870   -2.3540  -25.3690 C.3   415  GLU415      0.0388
    178  CG       -41.7420   -2.7300  -24.4430 C.3   415  GLU415      0.1160
    179  CD       -41.3040   -1.5730  -23.5800 C.2   415  GLU415      0.3649
    180  OE1      -42.0850   -1.2090  -22.6760 O.co2 415  GLU415     -0.2457
    181  OE2      -40.1910   -1.0380  -23.7960 O.co2 415  GLU415     -0.2457
    182  N        -38.2520   -4.3260  -24.8370 N.3   418  GLY418     -0.1210
    183  CA       -38.4100   -4.5130  -23.4040 C.3   418  GLY418      0.1956
    184  C        -37.3370   -5.4490  -22.8910 C.2   418  GLY418      0.2612
    185  O        -36.9530   -6.3880  -23.5840 O.2   418  GLY418     -0.2717
    186  N        -36.8750   -5.2020  -21.6680 N.am  419  LEU419     -0.1965
    187  CA       -35.8510   -6.0430  -21.0620 C.3   419  LEU419      0.1728
    188  C        -36.3330   -6.7450  -19.7860 C.2   419  LEU419      0.2616
    189  O        -35.9390   -7.8770  -19.5280 O.2   419  LEU419     -0.2715
    190  CB       -34.5850   -5.2360  -20.8100 C.3   419  LEU419      0.0311
    191  CG       -33.8010   -4.7240  -22.0440 C.3   419  LEU419      0.0022
    192  CD1      -32.5190   -4.0140  -21.6380 C.3   419  LEU419      0.0001
    193  CD2      -33.4720   -5.8710  -22.9900 C.3   419  LEU419      0.0001
    194  N        -37.1920   -6.0920  -19.0080 N.am  420  ASN420     -0.1972
    195  CA       -37.7240   -6.6720  -17.7840 C.3   420  ASN420      0.1688
    196  C        -38.2290   -8.0820  -17.9320 C.2   420  ASN420      0.2292
    197  O        -37.9490   -8.9160  -17.0800 O.2   420  ASN420     -0.2864
    198  CB       -38.8790   -5.8400  -17.2510 C.3   420  ASN420      0.1181
    199  CG       -38.4220   -4.6360  -16.4750 C.2   420  ASN420      0.2629
    200  OD1      -37.2500   -4.2400  -16.5220 O.2   420  ASN420     -0.2716
    201  ND2      -39.3580   -4.0230  -15.7720 N.am  420  ASN420     -0.0877
    202  N        -35.3970  -10.7290  -18.1170 N.3   423  TYR423     -0.1241
    203  CA       -34.8770  -10.9640  -16.7800 C.3   423  TYR423      0.1605
    204  C        -35.8540  -11.8130  -15.9830 C.2   423  TYR423      0.2264
    205  O        -35.4720  -12.8130  -15.3680 O.2   423  TYR423     -0.2867
    206  CB       -34.6420   -9.6450  -16.0440 C.3   423  TYR423      0.0534
    207  CG       -33.5220   -8.7800  -16.5790 C.ar  423  TYR423     -0.0201
    208  CD1      -32.4330   -9.3270  -17.2410 C.ar  423  TYR423     -0.0009
    209  CD2      -33.5390   -7.4050  -16.3810 C.ar  423  TYR423     -0.0009
    210  CE1      -31.4050   -8.5310  -17.7110 C.ar  423  TYR423      0.0417
    211  CE2      -32.5120   -6.6040  -16.8430 C.ar  423  TYR423      0.0417
    212  CZ       -31.4480   -7.1740  -17.5090 C.ar  423  TYR423      0.1957
    213  OH       -30.4370   -6.3700  -17.9790 O.3   423  TYR423     -0.2866
@<TRIPOS>BOND
     1    44    43    2
     2    43    42    1
     3    41    42    1
     4    42    45    1
     5    47    46    2
     6    45    46    1
     7    46    48   am
     8   176   175    2
     9   175   174    1
    10    31    30    1
    11   173   174    1
    12   174   177    1
    13    32    30    1
    14    30    29    1
    15   177   178    1
    16    29    26    1
    17    28    27    2
    18   182   183    1
    19    26    27    1
    20    26    25    1
    21   178   179    1
    22    94    92   am
    23    93    92    2
    24    92    91    1
    25    25    23   am
    26   181   179   ar
    27    91    90    1
    28    24    23    2
    29   185   184    2
    30   179   180   ar
    31   183   184    1
    32    23    22    1
    33    36    35    2
    34    35    34    1
    35    90    87    1
    36   193   191    1
    37   184   186   am
    38    87    86    1
    39    87    88    1
    40    89    88    2
    41    22    21    1
    42   191   192    1
    43   191   190    1
    44    33    34    1
    45    85    83    1
    46    34    37    1
    47    88    95   am
    48   186   187    1
    49    21    19   am
    50    37    38    1
    51   103   102    1
    52   187   190    1
    53   187   188    1
    54    83    84    1
    55    83    82    2
    56    15    14    1
    57    19    20    2
    58    19    18    1
    59   102   101    1
    60    95    96    1
    61   168   167    2
    62    82    81    1
    63   172   171    1
    64   101   100    1
    65    38    40   ar
    66    38    39   ar
    67   188   189    2
    68   188   194   am
    69    18    17    1
    70    96    97    1
    71    96    99    1
    72    14    16    1
    73    14    11    1
    74    17    12   am
    75   171   170    1
    76   100    99    1
    77    10    11    1
    78    10     3   am
    79   194   195    1
    80   169   170    1
    81   169   166    1
    82   167   166    1
    83    81    80    1
    84    97    98    2
    85     2     1    1
    86     2     3    1
    87     2     5    1
    88    12    11    1
    89    12    13    2
    90     3     4    2
    91     5     6    1
    92   202   203    1
    93   166   165    1
    94     6     7    1
    95   213   212    1
    96   196   195    1
    97   196   197    2
    98     7     8    1
    99   195   198    1
   100   210   212   ar
   101   210   208   ar
   102    80    79    1
   103   212   211   ar
   104    79    76    1
   105   198   199    1
   106   208   207   ar
   107     9     8    1
   108   211   209   ar
   109   203   206    1
   110   203   204    1
   111   207   209   ar
   112   207   206    1
   113   200   199    2
   114   199   201   am
   115    78    77    2
   116    76    75    1
   117    76    77    1
   118   204   205    2
   119    75    73   am
   120    72    73    1
   121    72    71    1
   122    52    51    2
   123    66    65    2
   124    73    74    2
   125    55    54   ar
   126    55    57   ar
   127    53    54    1
   128    53    50    1
   129    54    56   ar
   130    57    58   ar
   131    51    50    1
   132    65    71   am
   133    65    64    1
   134    49    50    1
   135   119   118    2
   136    58    56   ar
   137    58    60   ar
   138    56    59   ar
   139   144   145   ar
   140   144   142   ar
   141   145   143   ar
   142    63    64    1
   143    60    62   ar
   144   118   117    1
   145    64    67    1
   146    59    61   ar
   147    67    69    1
   148    67    68    1
   149   142   140   ar
   150   123   121    1
   151   121   120    1
   152    62    61   ar
   153   143   141   ar
   154   116   117    1
   155   116   114   am
   156   117   120    1
   157    68    70    1
   158   120   122    1
   159   107   106    2
   160   113   114    1
   161   113   112    2
   162   140   141   ar
   163   140   139    1
   164   114   115    2
   165   106   112    1
   166   106   105    1
   167   159   158    1
   168   139   136    1
   169   164   161    1
   170   163   162    2
   171   136   135    1
   172   136   137    1
   173   104   105    1
   174   105   108    1
   175   158   155    1
   176   161   162    1
   177   161   160    1
   178   108   109    1
   179   109   111    1
   180   109   110    1
   181   127   126    2
   182   155   154    1
   183   155   156    1
   184   135   126   am
   185   137   146   am
   186   137   138    2
   187   146   147    1
   188   126   125    1
   189   157   156    2
   190   154   148   am
   191   149   148    2
   192   148   147    1
   193   147   150    1
   194   124   125    1
   195   125   128    1
   196   150   151    1
   197   128   129    1
   198   152   151   ar
   199   151   153   ar
   200   129   130    1
   201   130   131    1
   202   134   132    1
   203   131   132    2
   204   132   133    1
