@<TRIPOS>MOLECULE
tmp/6gngB01.pdb
 164 154 0 0 0
SMALL
GASTEIGER

@<TRIPOS>ATOM
      1  N         25.3130    4.8730  -44.7870 N.3    18  LYS18      -0.1231
      2  CA        26.4850    5.0160  -43.9190 C.3    18  LYS18       0.1693
      3  C         26.9300    6.4850  -43.8830 C.2    18  LYS18       0.2593
      4  O         27.0920    7.1110  -44.9290 O.2    18  LYS18      -0.2718
      5  CB        27.6390    4.1340  -44.4310 C.3    18  LYS18       0.0285
      6  CG        28.8410    4.0210  -43.5140 C.3    18  LYS18       0.0035
      7  CD        29.9430    3.2080  -44.1860 C.3    18  LYS18       0.0206
      8  CE        31.1930    3.1000  -43.3190 C.3    18  LYS18       0.1093
      9  NZ        31.0100    2.2830  -42.0860 N.3    18  LYS18      -0.1314
     10  N         27.0760    7.0350  -42.6790 N.am   19  THR19      -0.1939
     11  CA        27.8330    8.2770  -42.4440 C.3    19  THR19       0.2028
     12  C         29.0480    8.0320  -41.5390 C.2    19  THR19       0.2643
     13  O         29.8200    8.9440  -41.2960 O.2    19  THR19      -0.2714
     14  CB        26.9590    9.3860  -41.8080 C.3    19  THR19       0.1808
     15  OG1       26.3280    8.8990  -40.6140 O.3    19  THR19      -0.2208
     16  CG2       25.9040    9.8740  -42.7820 C.3    19  THR19       0.0379
     17  N         29.2180    6.8020  -41.0610 N.am   20  GLY20      -0.1939
     18  CA        30.2760    6.4760  -40.1200 C.3    20  GLY20       0.2014
     19  C         30.0600    5.1090  -39.4950 C.2    20  GLY20       0.2639
     20  O         29.4620    4.2180  -40.1170 O.2    20  GLY20      -0.2714
     21  N         30.5260    4.9610  -38.2550 N.am   21  GLY21      -0.1939
     22  CA        30.5780    3.6740  -37.5700 C.3    21  GLY21       0.2014
     23  C         29.2430    2.9930  -37.3290 C.2    21  GLY21       0.2638
     24  O         29.1830    1.7550  -37.2870 O.2    21  GLY21      -0.2714
     25  N         28.1760    3.7850  -37.1760 N.am   22  LEU22      -0.1977
     26  CA        26.8510    3.2470  -36.8530 C.3    22  LEU22       0.1596
     27  C         26.4210    2.1520  -37.8310 C.2    22  LEU22       0.2287
     28  O         26.0100    1.0620  -37.4140 O.2    22  LEU22      -0.2864
     29  CB        25.8100    4.3700  -36.8300 C.3    22  LEU22       0.0297
     30  CG        24.3480    3.9440  -36.6230 C.3    22  LEU22       0.0022
     31  CD1       24.1870    3.0370  -35.4100 C.3    22  LEU22       0.0001
     32  CD2       23.4360    5.1540  -36.5160 C.3    22  LEU22       0.0001
     33  N         28.3330    0.4400  -39.9060 N.3    24  ASP24      -0.1239
     34  CA        29.2830   -0.6770  -39.8710 C.3    24  ASP24       0.1674
     35  C         28.9680   -1.6590  -38.7260 C.2    24  ASP24       0.2266
     36  O         29.1100   -2.8730  -38.9050 O.2    24  ASP24      -0.2867
     37  CB        30.7420   -0.1680  -39.7620 C.3    24  ASP24       0.1410
     38  CG        31.6610   -0.7290  -40.8520 C.2    24  ASP24       0.3668
     39  OD1       31.6000   -1.9520  -41.1400 O.co2  24  ASP24      -0.2456
     40  OD2       32.4560    0.0740  -41.4060 O.co2  24  ASP24      -0.2456
     41  N         25.7020   10.1680  -47.7770 N.3   101  ASN101     -0.1240
     42  CA        26.1100   10.8580  -46.5410 C.3   101  ASN101      0.1653
     43  C         25.1870   12.0060  -46.0590 C.2   101  ASN101      0.2266
     44  O         25.4860   12.6390  -45.0380 O.2   101  ASN101     -0.2867
     45  CB        27.5940   11.3410  -46.5840 C.3   101  ASN101      0.1155
     46  CG        27.8160   12.5510  -47.4850 C.2   101  ASN101      0.2627
     47  OD1       27.7460   12.4380  -48.7060 O.2   101  ASN101     -0.2716
     48  ND2       28.0730   13.7140  -46.8820 N.am  101  ASN101     -0.0877
     49  N         33.5140   -2.2830  -29.7250 N.3   285  ASN285     -0.1240
     50  CA        33.2570   -2.7720  -31.0770 C.3   285  ASN285      0.1653
     51  C         34.3910   -3.6640  -31.5760 C.2   285  ASN285      0.2266
     52  O         35.5700   -3.4010  -31.3090 O.2   285  ASN285     -0.2867
     53  CB        33.0730   -1.6110  -32.0700 C.3   285  ASN285      0.1155
     54  CG        31.7810   -0.8400  -31.8600 C.2   285  ASN285      0.2627
     55  OD1       30.9090   -1.2310  -31.0780 O.2   285  ASN285     -0.2716
     56  ND2       31.6560    0.2730  -32.5700 N.am  285  ASN285     -0.0877
     57  N         41.8880    9.9110  -40.7960 N.3   338  VAL338     -0.1231
     58  CA        40.5720    9.5440  -41.3240 C.3   338  VAL338      0.1692
     59  C         39.5070    9.8870  -40.2790 C.2   338  VAL338      0.2593
     60  O         39.6790    9.5970  -39.0790 O.2   338  VAL338     -0.2718
     61  CB        40.4700    8.0440  -41.6790 C.3   338  VAL338      0.0266
     62  CG1       39.3200    7.8070  -42.6490 C.3   338  VAL338      0.0020
     63  CG2       41.7770    7.5160  -42.2640 C.3   338  VAL338      0.0020
     64  N         38.4180   10.5040  -40.7420 N.am  339  GLY339     -0.1942
     65  CA        37.2830   10.8680  -39.8850 C.3   339  GLY339      0.2014
     66  C         36.4800   12.0290  -40.4430 C.2   339  GLY339      0.2638
     67  O         36.9610   12.7690  -41.3060 O.2   339  GLY339     -0.2714
     68  N         35.2620   12.1940  -39.9330 N.am  340  ARG340     -0.1977
     69  CA        34.3540   13.2430  -40.3980 C.3   340  ARG340      0.1597
     70  C         34.9110   14.6330  -40.1490 C.2   340  ARG340      0.2287
     71  O         35.5960   14.8600  -39.1630 O.2   340  ARG340     -0.2864
     72  CB        32.9840   13.1050  -39.7300 C.3   340  ARG340      0.0334
     73  CG        32.2240   11.8690  -40.1890 C.3   340  ARG340      0.0492
     74  CD        31.0050   11.5690  -39.3340 C.3   340  ARG340      0.2205
     75  NE        31.3750   11.1900  -37.9700 N.pl3 340  ARG340     -0.0865
     76  CZ        31.2290   11.9470  -36.8820 C.cat 340  ARG340      0.5346
     77  NH1       30.6950   13.1730  -36.9220 N.pl3 340  ARG340      0.1354
     78  NH2       31.6300   11.4620  -35.7230 N.pl3 340  ARG340      0.1354
     79  N         34.0840   17.0810  -33.4750 N.3   344  GLN344     -0.1231
     80  CA        34.2930   15.8220  -32.7230 C.3   344  GLN344      0.1698
     81  C         35.5950   15.0940  -33.0500 C.2   344  GLN344      0.2592
     82  O         36.2640   14.5930  -32.1470 O.2   344  GLN344     -0.2718
     83  CB        33.1410   14.8340  -32.9500 C.3   344  GLN344      0.0381
     84  CG        33.2350   13.5760  -32.0810 C.3   344  GLN344      0.0905
     85  CD        32.4250   12.4070  -32.6140 C.2   344  GLN344      0.2608
     86  OE1       31.2810   12.5720  -33.0790 O.2   344  GLN344     -0.2717
     87  NE2       33.0170   11.2050  -32.5520 N.am  344  GLN344     -0.0878
     88  N         35.9270   15.0070  -34.3370 N.am  345  LYS345     -0.1980
     89  CA        37.0770   14.2170  -34.8090 C.3   345  LYS345      0.1596
     90  C         38.4110   14.9870  -34.8180 C.2   345  LYS345      0.2287
     91  O         39.4890   14.3750  -34.8550 O.2   345  LYS345     -0.2864
     92  CB        36.7680   13.6410  -36.1860 C.3   345  LYS345      0.0298
     93  CG        35.7510   12.5070  -36.1520 C.3   345  LYS345      0.0038
     94  CD        36.3970   11.1770  -35.7660 C.3   345  LYS345      0.0206
     95  CE        35.4630    9.9960  -35.9980 C.3   345  LYS345      0.1093
     96  NZ        36.1750    8.6880  -36.1340 N.3   345  LYS345     -0.1314
     97  N         38.3890   12.5500  -45.4110 N.3   369  GLY369     -0.1210
     98  CA        37.3040   13.0830  -44.6000 C.3   369  GLY369      0.1956
     99  C         36.2400   13.7580  -45.4290 C.2   369  GLY369      0.2612
    100  O         36.5060   14.2320  -46.5390 O.2   369  GLY369     -0.2717
    101  N         35.0300   13.8000  -44.8780 N.am  370  SER370     -0.1952
    102  CA        33.8890   14.4450  -45.5310 C.3   370  SER370      0.1924
    103  C         32.9370   15.0000  -44.4730 C.2   370  SER370      0.2314
    104  O         32.6340   14.3290  -43.4760 O.2   370  SER370     -0.2863
    105  CB        33.1820   13.4710  -46.4830 C.3   370  SER370      0.2116
    106  OG        31.7860   13.6960  -46.5320 O.3   370  SER370     -0.2180
    107  N         35.6150    9.6000  -51.6070 N.3   396  PHE396     -0.1241
    108  CA        36.4930    8.4390  -51.7030 C.3   396  PHE396      0.1605
    109  C         35.6900    7.1380  -51.6730 C.2   396  PHE396      0.2264
    110  O         34.4930    7.1540  -51.4080 O.2   396  PHE396     -0.2867
    111  CB        37.5160    8.4540  -50.5590 C.3   396  PHE396      0.0534
    112  CG        36.8980    8.4990  -49.1880 C.ar  396  PHE396     -0.0203
    113  CD1       36.5630    9.7180  -48.5990 C.ar  396  PHE396     -0.0042
    114  CD2       36.6670    7.3180  -48.4720 C.ar  396  PHE396     -0.0042
    115  CE1       35.9950    9.7650  -47.3380 C.ar  396  PHE396     -0.0003
    116  CE2       36.0940    7.3510  -47.2090 C.ar  396  PHE396     -0.0003
    117  CZ        35.7590    8.5790  -46.6400 C.ar  396  PHE396     -0.0000
    118  N         40.3450    3.4160  -48.6340 N.3   401  GLU401     -0.1245
    119  CA        40.6420    3.3300  -47.2040 C.3   401  GLU401      0.1567
    120  C         41.5170    2.1110  -46.8430 C.2   401  GLU401      0.2260
    121  O         42.2120    2.1540  -45.8410 O.2   401  GLU401     -0.2867
    122  CB        39.3280    3.3080  -46.3950 C.3   401  GLU401      0.0388
    123  CG        39.4820    3.4970  -44.8870 C.3   401  GLU401      0.1160
    124  CD        38.2040    3.2540  -44.0970 C.2   401  GLU401      0.3649
    125  OE1       37.3580    2.4370  -44.5110 O.co2 401  GLU401     -0.2457
    126  OE2       38.0660    3.8450  -43.0160 O.co2 401  GLU401     -0.2457
    127  N         35.5430   10.0540  -28.1760 N.3   418  GLU418     -0.1245
    128  CA        35.3090    8.9340  -29.0860 C.3   418  GLU418      0.1567
    129  C         34.6450    7.7550  -28.3610 C.2   418  GLU418      0.2260
    130  O         35.3170    7.0300  -27.6310 O.2   418  GLU418     -0.2867
    131  CB        36.6270    8.5190  -29.7650 C.3   418  GLU418      0.0388
    132  CG        36.4620    7.8570  -31.1330 C.3   418  GLU418      0.1160
    133  CD        35.9970    8.8160  -32.2310 C.2   418  GLU418      0.3649
    134  OE1       34.9620    8.5360  -32.8740 O.co2 418  GLU418     -0.2457
    135  OE2       36.6550    9.8520  -32.4570 O.co2 418  GLU418     -0.2457
    136  N         35.3450    4.4050  -31.9070 N.3   421  GLY421     -0.1210
    137  CA        36.2310    4.6280  -33.0390 C.3   421  GLY421      0.1956
    138  C         36.5600    3.3000  -33.7060 C.2   421  GLY421      0.2612
    139  O         36.7410    2.2820  -33.0270 O.2   421  GLY421     -0.2717
    140  N         36.6430    3.3210  -35.0340 N.am  422  LEU422     -0.1965
    141  CA        36.9390    2.1370  -35.8440 C.3   422  LEU422      0.1728
    142  C         38.2190    2.2780  -36.7090 C.2   422  LEU422      0.2616
    143  O         38.8650    1.2670  -37.0230 O.2   422  LEU422     -0.2715
    144  CB        35.7240    1.7900  -36.7120 C.3   422  LEU422      0.0311
    145  CG        34.5230    1.2030  -35.9630 C.3   422  LEU422      0.0022
    146  CD1       33.2460    1.3090  -36.7760 C.3   422  LEU422      0.0001
    147  CD2       34.7800   -0.2420  -35.5750 C.3   422  LEU422      0.0001
    148  N         38.5950    3.5070  -37.0740 N.am  423  VAL423     -0.1977
    149  CA        39.7660    3.7240  -37.9330 C.3   423  VAL423      0.1596
    150  C         41.0780    3.3340  -37.2380 C.2   423  VAL423      0.2287
    151  O         42.0150    2.8870  -37.9080 O.2   423  VAL423     -0.2864
    152  CB        39.8320    5.1690  -38.5230 C.3   423  VAL423      0.0276
    153  CG1       38.5180    5.5270  -39.2120 C.3   423  VAL423      0.0022
    154  CG2       40.1740    6.2210  -37.4800 C.3   423  VAL423      0.0022
    155  N         41.0100   -0.4600  -37.3300 N.3   426  HIS426     -0.1241
    156  CA        41.4030   -0.8090  -38.7010 C.3   426  HIS426      0.1621
    157  C         42.9140   -0.6940  -38.9270 C.2   426  HIS426      0.2264
    158  O         43.5200   -1.5860  -39.5180 O.2   426  HIS426     -0.2867
    159  CB        40.6750    0.0740  -39.7240 C.3   426  HIS426      0.0745
    160  CG        39.1950   -0.1540  -39.7900 C.ar  426  HIS426      0.0817
    161  ND1       38.3370    0.7120  -40.4350 N.ar  426  HIS426     -0.2268
    162  CD2       38.4210   -1.1400  -39.2790 C.ar  426  HIS426      0.1154
    163  CE1       37.1000    0.2590  -40.3290 C.ar  426  HIS426      0.1986
    164  NE2       37.1240   -0.8630  -39.6330 N.ar  426  HIS426     -0.2212
@<TRIPOS>BOND
     1   108   109    1
     2   108   107    1
     3   108   111    1
     4   109   110    2
     5   111   112    1
     6   112   113   ar
     7   112   114   ar
     8    47    46    2
     9   118   119    1
    10   113   115   ar
    11   114   116   ar
    12    41    42    1
    13    46    48   am
    14    46    45    1
    15   115   117   ar
    16   116   117   ar
    17   119   120    1
    18   119   122    1
    19   120   121    2
    20    45    42    1
    21    42    43    1
    22   100    99    2
    23   106   105    1
    24   105   102    1
    25   122   123    1
    26    43    44    2
    27   102   101    1
    28   102   103    1
    29    99   101   am
    30    99    98    1
    31    97    98    1
    32     4     3    2
    33   123   124    1
    34     1     2    1
    35   125   124   ar
    36   103   104    2
    37     5     2    1
    38     5     6    1
    39     7     6    1
    40     7     8    1
    41   124   126   ar
    42     2     3    1
    43     3    10   am
    44     8     9    1
    45    16    14    1
    46    10    11    1
    47    62    61    1
    48    11    14    1
    49    11    12    1
    50    63    61    1
    51    14    15    1
    52    61    58    1
    53    12    13    2
    54    12    17   am
    55    40    38   ar
    56    58    57    1
    57    58    59    1
    58    67    66    2
    59    39    38   ar
    60    17    18    1
    61    38    37    1
    62    64    59   am
    63    64    65    1
    64    66    68   am
    65    66    65    1
    66   161   163   ar
    67   161   160   ar
    68    69    70    1
    69    69    68    1
    70    69    72    1
    71   163   164   ar
    72    59    60    2
    73    73    72    1
    74    73    74    1
    75    70    71    2
    76    18    19    1
    77    20    19    2
    78    33    34    1
    79    34    37    1
    80    34    35    1
    81   160   159    1
    82   160   162   ar
    83   159   156    1
    84   164   162   ar
    85   158   157    2
    86    19    21   am
    87    74    75    1
    88   153   152    1
    89   157   156    1
    90    36    35    2
    91   156   155    1
    92   152   149    1
    93   152   154    1
    94    21    22    1
    95    75    76    2
    96   149   150    1
    97   149   148    1
    98   151   150    2
    99    27    28    2
   100    27    26    1
   101    22    23    1
   102    23    24    2
   103    23    25   am
   104    25    26    1
   105   148   142   am
   106   143   142    2
   107    77    76    1
   108    76    78    1
   109    26    29    1
   110    29    30    1
   111   146   145    1
   112   144   145    1
   113   144   141    1
   114   142   141    1
   115    30    32    1
   116    30    31    1
   117    92    93    1
   118    92    89    1
   119    93    94    1
   120    96    95    1
   121    95    94    1
   122   145   147    1
   123   141   140    1
   124   140   138   am
   125    91    90    2
   126    90    89    1
   127    89    88    1
   128    88    81   am
   129   138   137    1
   130   138   139    2
   131    79    80    1
   132    86    85    2
   133    81    80    1
   134    81    82    2
   135   137   136    1
   136    83    80    1
   137    83    84    1
   138   134   133   ar
   139    85    87   am
   140    85    84    1
   141    56    54   am
   142   135   133   ar
   143   133   132    1
   144    53    54    1
   145    53    50    1
   146    54    55    2
   147    51    52    2
   148    51    50    1
   149   132   131    1
   150    50    49    1
   151   131   128    1
   152   128   129    1
   153   128   127    1
   154   129   130    2
