@<TRIPOS>MOLECULE
tmp/6gnhA01.pdb
 185 179 0 0 0
SMALL
GASTEIGER

@<TRIPOS>ATOM
      1  N         27.9480   -3.7670   14.8010 N.3    71  VAL71      -0.1231
      2  CA        28.6290   -2.6730   14.1160 C.3    71  VAL71       0.1692
      3  C         29.2240   -1.6540   15.0920 C.2    71  VAL71       0.2592
      4  O         28.5500   -1.1980   16.0380 O.2    71  VAL71      -0.2718
      5  CB        27.7100   -1.9650   13.1210 C.3    71  VAL71       0.0266
      6  CG1       28.3890   -0.7030   12.5610 C.3    71  VAL71       0.0020
      7  CG2       27.2900   -2.8990   11.9840 C.3    71  VAL71       0.0020
      8  N         30.5160   -1.3840   14.9200 N.am   72  GLU72      -0.1966
      9  CA        31.1930   -0.3500   15.7230 C.3    72  GLU72       0.1733
     10  C         31.5820    0.7400   14.7800 C.2    72  GLU72       0.2616
     11  O         31.7330    0.5070   13.6030 O.2    72  GLU72      -0.2715
     12  CB        32.4310   -0.9050   16.4250 C.3    72  GLU72       0.0429
     13  CG        32.0650   -1.8770   17.5260 C.3    72  GLU72       0.1163
     14  CD        33.2650   -2.4480   18.2310 C.2    72  GLU72       0.3649
     15  OE1       33.0900   -3.4570   18.9090 O.co2  72  GLU72      -0.2457
     16  OE2       34.3860   -1.8970   18.1130 O.co2  72  GLU72      -0.2457
     17  N         31.7480    1.9540   15.2670 N.am   73  ASP73      -0.1957
     18  CA        32.2420    2.9700   14.3190 C.3    73  ASP73       0.1840
     19  C         33.7700    2.8300   14.1070 C.2    73  ASP73       0.2622
     20  O         34.4120    2.0510   14.8300 O.2    73  ASP73      -0.2715
     21  CB        31.7690    4.3580   14.7010 C.3    73  ASP73       0.1450
     22  CG        32.3790    4.8660   15.9670 C.2    73  ASP73       0.3671
     23  OD1       32.8050    4.0900   16.8710 O.co2  73  ASP73      -0.2456
     24  OD2       32.4050    6.1210   16.0240 O.co2  73  ASP73      -0.2456
     25  N         34.3100    3.5290   13.0890 N.am   74  ASP74      -0.1971
     26  CA        35.7120    3.3820   12.6500 C.3    74  ASP74       0.1709
     27  C         36.6390    3.5180   13.8480 C.2    74  ASP74       0.2293
     28  O         37.6320    2.7850   13.9980 O.2    74  ASP74      -0.2864
     29  CB        36.1050    4.4060   11.5460 C.3    74  ASP74       0.1436
     30  CG        35.4960    4.0900   10.1720 C.2    74  ASP74       0.3671
     31  OD1       35.6640    4.9140    9.2380 O.co2  74  ASP74      -0.2456
     32  OD2       34.8220    3.0300    9.9830 O.co2  74  ASP74      -0.2456
     33  N         31.6030    3.7650   19.5800 N.3    78  PHE78      -0.1241
     34  CA        30.2660    3.2030   19.8530 C.3    78  PHE78       0.1605
     35  C         30.0450    1.8600   19.1880 C.2    78  PHE78       0.2264
     36  O         30.6340    1.5860   18.1500 O.2    78  PHE78      -0.2867
     37  CB        29.1780    4.1410   19.3260 C.3    78  PHE78       0.0534
     38  CG        29.3340    5.5930   19.7310 C.ar   78  PHE78      -0.0203
     39  CD1       28.6980    6.0860   20.8790 C.ar   78  PHE78      -0.0042
     40  CD2       30.0260    6.4960   18.8930 C.ar   78  PHE78      -0.0042
     41  CE1       28.7860    7.4380   21.2250 C.ar   78  PHE78      -0.0003
     42  CE2       30.1300    7.8460   19.2290 C.ar   78  PHE78      -0.0003
     43  CZ        29.5020    8.3300   20.3970 C.ar   78  PHE78      -0.0000
     44  N         26.4050   -0.4720   18.1460 N.3    80  PHE80      -0.1241
     45  CA        24.9350   -0.5210   18.1650 C.3    80  PHE80       0.1605
     46  C         24.5070   -1.5210   19.2140 C.2    80  PHE80       0.2264
     47  O         25.1300   -2.5840   19.3400 O.2    80  PHE80      -0.2867
     48  CB        24.3050   -0.9330   16.8230 C.3    80  PHE80       0.0534
     49  CG        24.3930    0.0870   15.7350 C.ar   80  PHE80      -0.0203
     50  CD1       24.0140    1.4230   15.9370 C.ar   80  PHE80      -0.0042
     51  CD2       24.7990   -0.2980   14.4490 C.ar   80  PHE80      -0.0042
     52  CE1       24.0920    2.3520   14.8820 C.ar   80  PHE80      -0.0003
     53  CE2       24.8750    0.6340   13.3910 C.ar   80  PHE80      -0.0003
     54  CZ        24.5080    1.9470   13.5890 C.ar   80  PHE80      -0.0000
     55  N         28.4350    0.1420    6.0810 N.3   195  GLY195     -0.1210
     56  CA        29.3200    1.2570    6.3600 C.3   195  GLY195      0.1956
     57  C         30.7440    1.0130    5.9060 C.2   195  GLY195      0.2611
     58  O         31.6480    1.7600    6.3010 O.2   195  GLY195     -0.2717
     59  N         30.9570   -0.0880    5.1670 N.am  196  VAL196     -0.1979
     60  CA        32.2110   -0.4150    4.5510 C.3   196  VAL196      0.1595
     61  C         32.0480   -0.5000    3.0370 C.2   196  VAL196      0.2287
     62  O         30.9700   -0.8150    2.4760 O.2   196  VAL196     -0.2864
     63  CB        32.9800   -1.7160    5.0740 C.3   196  VAL196      0.0276
     64  CG1       33.4320   -1.5820    6.5370 C.3   196  VAL196      0.0022
     65  CG2       32.1760   -3.0130    4.8130 C.3   196  VAL196      0.0022
     66  N         26.5770   10.0770    6.8480 N.3   207  TYR207     -0.1227
     67  CA        25.6800   10.1900    8.0260 C.3   207  TYR207      0.1736
     68  C         25.6700   11.6050    8.5160 C.2   207  TYR207      0.2595
     69  O         26.6870   12.2860    8.4420 O.2   207  TYR207     -0.2718
     70  CB        26.1510    9.2640    9.1740 C.3   207  TYR207      0.0548
     71  CG        25.7250    7.8150    9.0370 C.ar  207  TYR207     -0.0200
     72  CD1       24.4820    7.3860    9.5180 C.ar  207  TYR207     -0.0009
     73  CD2       26.5800    6.8690    8.4550 C.ar  207  TYR207     -0.0009
     74  CE1       24.0930    6.0480    9.4020 C.ar  207  TYR207      0.0417
     75  CE2       26.2010    5.5350    8.3260 C.ar  207  TYR207      0.0417
     76  CZ        24.9700    5.1400    8.8240 C.ar  207  TYR207      0.1957
     77  OH        24.5800    3.8250    8.7380 O.3   207  TYR207     -0.2866
     78  N         24.5460   12.0010    9.1090 N.am  208  PHE208     -0.1962
     79  CA        24.3110   13.3170    9.6590 C.3   208  PHE208      0.1771
     80  C         23.6740   13.1850   11.0170 C.2   208  PHE208      0.2619
     81  O         22.7170   12.4040   11.1580 O.2   208  PHE208     -0.2715
     82  CB        23.3770   14.0880    8.7120 C.3   208  PHE208      0.0574
     83  CG        24.0740   14.5350    7.4930 C.ar  208  PHE208     -0.0200
     84  CD1       24.7780   15.7460    7.4740 C.ar  208  PHE208     -0.0042
     85  CD2       24.1660   13.7340    6.4220 C.ar  208  PHE208     -0.0042
     86  CE1       25.4680   16.1600    6.3590 C.ar  208  PHE208     -0.0003
     87  CE2       24.8940   14.1370    5.3110 C.ar  208  PHE208     -0.0003
     88  CZ        25.5410   15.3380    5.2760 C.ar  208  PHE208     -0.0000
     89  N         24.1580   13.9320   12.0200 N.am  209  HIS209     -0.1973
     90  CA        23.5900   13.8750   13.3630 C.3   209  HIS209      0.1656
     91  C         23.2410   15.2690   13.8420 C.2   209  HIS209      0.2291
     92  O         23.8760   16.2820   13.4210 O.2   209  HIS209     -0.2864
     93  CB        24.5690   13.2720   14.3710 C.3   209  HIS209      0.0771
     94  CG        25.9220   13.8800   14.3210 C.ar  209  HIS209      0.0820
     95  ND1       26.9450   13.3480   13.5600 N.ar  209  HIS209     -0.2267
     96  CD2       26.4100   15.0210   14.8610 C.ar  209  HIS209      0.1154
     97  CE1       28.0190   14.1210   13.6730 C.ar  209  HIS209      0.1986
     98  NE2       27.7210   15.1340   14.4680 N.ar  209  HIS209     -0.2212
     99  N         26.2730   14.4480   25.4080 N.3   217  LEU217     -0.1245
    100  CA        27.1780   14.2150   24.2630 C.3   217  LEU217      0.1561
    101  C         28.6470   14.6140   24.4840 C.2   217  LEU217      0.2260
    102  O         29.5400   13.8780   24.0110 O.2   217  LEU217     -0.2867
    103  CB        26.6510   14.8460   22.9440 C.3   217  LEU217      0.0270
    104  CG        25.3160   14.3210   22.3950 C.3   217  LEU217      0.0019
    105  CD1       24.9910   14.8820   21.0200 C.3   217  LEU217      0.0001
    106  CD2       25.2620   12.8070   22.3520 C.3   217  LEU217      0.0001
    107  N         31.5100   11.8610   23.4370 N.3   221  ARG221     -0.1231
    108  CA        32.1870   11.9390   22.1600 C.3   221  ARG221      0.1694
    109  C         31.4280   12.9060   21.2210 C.2   221  ARG221      0.2592
    110  O         30.2130   12.8340   21.0450 O.2   221  ARG221     -0.2718
    111  CB        32.3410   10.5180   21.6000 C.3   221  ARG221      0.0321
    112  CG        33.5170   10.2670   20.6710 C.3   221  ARG221      0.0489
    113  CD        33.0110   10.2380   19.2360 C.3   221  ARG221      0.2205
    114  NE        33.8730    9.5350   18.2890 N.pl3 221  ARG221     -0.0865
    115  CZ        33.4580    9.0630   17.1070 C.cat 221  ARG221      0.5346
    116  NH1       32.1900    9.2100   16.7110 N.pl3 221  ARG221      0.1354
    117  NH2       34.3100    8.4240   16.3100 N.pl3 221  ARG221      0.1354
    118  N         32.2290   13.7450   20.5760 N.am  222  PHE222     -0.1976
    119  CA        31.9600   15.1460   20.2290 C.3   222  PHE222      0.1639
    120  C         33.2880   15.8530   20.5780 C.2   222  PHE222      0.2290
    121  O         33.3860   17.0930   20.5940 O.2   222  PHE222     -0.2864
    122  CB        30.7660   15.7320   21.0080 C.3   222  PHE222      0.0560
    123  CG        29.5770   16.0130   20.1390 C.ar  222  PHE222     -0.0200
    124  CD1       29.1270   17.3140   19.9570 C.ar  222  PHE222     -0.0042
    125  CD2       28.9530   14.9890   19.4380 C.ar  222  PHE222     -0.0042
    126  CE1       28.0460   17.5900   19.1180 C.ar  222  PHE222     -0.0003
    127  CE2       27.8760   15.2500   18.5970 C.ar  222  PHE222     -0.0003
    128  CZ        27.4210   16.5500   18.4440 C.ar  222  PHE222     -0.0000
    129  N         23.2160    3.0160   21.4750 N.3   320  SER320     -0.1217
    130  CA        24.5420    2.4420   21.2780 C.3   320  SER320      0.1889
    131  C         25.2610    2.3250   22.6380 C.2   320  SER320      0.2288
    132  O         25.1030    3.1770   23.5200 O.2   320  SER320     -0.2866
    133  CB        25.4100    3.2270   20.2870 C.3   320  SER320      0.2089
    134  OG        24.9580    3.1600   18.9490 O.3   320  SER320     -0.2183
    135  N         24.2050    5.5540   24.6970 N.3   331  LEU331     -0.1245
    136  CA        23.8130    6.6710   23.8470 C.3   331  LEU331      0.1561
    137  C         22.4080    6.4040   23.3140 C.2   331  LEU331      0.2260
    138  O         22.1430    5.3180   22.7790 O.2   331  LEU331     -0.2867
    139  CB        24.8180    6.8180   22.6850 C.3   331  LEU331      0.0270
    140  CG        24.2820    7.8000   21.6340 C.3   331  LEU331      0.0019
    141  CD1       24.5430    9.2190   22.1310 C.3   331  LEU331      0.0001
    142  CD2       24.9480    7.5600   20.2580 C.3   331  LEU331      0.0001
    143  N         16.7020    7.6370   14.9720 N.3   335  TYR335     -0.1241
    144  CA        17.0100    7.6430   13.5410 C.3   335  TYR335      0.1605
    145  C         15.8270    8.0460   12.6940 C.2   335  TYR335      0.2264
    146  O         14.7290    7.4950   12.8550 O.2   335  TYR335     -0.2867
    147  CB        17.4090    6.1980   13.1150 C.3   335  TYR335      0.0534
    148  CG        18.7670    5.9160   13.6430 C.ar  335  TYR335     -0.0201
    149  CD1       19.8560    5.9320   12.8150 C.ar  335  TYR335     -0.0009
    150  CD2       18.9760    5.7130   15.0100 C.ar  335  TYR335     -0.0009
    151  CE1       21.1610    5.7350   13.3410 C.ar  335  TYR335      0.0417
    152  CE2       20.2630    5.5230   15.5270 C.ar  335  TYR335      0.0417
    153  CZ        21.3410    5.5150   14.6740 C.ar  335  TYR335      0.1957
    154  OH        22.6400    5.3730   15.1320 O.3   335  TYR335     -0.2866
    155  N         20.4160   12.3220   20.5590 N.3   364  VAL364     -0.1245
    156  CA        20.8690   12.7300   19.2320 C.3   364  VAL364      0.1561
    157  C         19.8850   12.1480   18.2400 C.2   364  VAL364      0.2260
    158  O         19.2740   11.1200   18.4990 O.2   364  VAL364     -0.2867
    159  CB        22.3100   12.2020   18.9750 C.3   364  VAL364      0.0252
    160  CG1       22.3800   10.6580   19.0050 C.3   364  VAL364      0.0019
    161  CG2       22.9080   12.7950   17.7300 C.3   364  VAL364      0.0019
    162  N         19.8890   10.8890   14.2460 N.3   366  ASN366     -0.1240
    163  CA        20.8190   10.4450   13.2580 C.3   366  ASN366      0.1653
    164  C         20.0890   10.1500   11.9750 C.2   366  ASN366      0.2266
    165  O         18.9090    9.7470   12.0280 O.2   366  ASN366     -0.2867
    166  CB        21.4450    9.1230   13.7460 C.3   366  ASN366      0.1155
    167  CG        22.7880    9.3120   14.3030 C.2   366  ASN366      0.2627
    168  OD1       23.1050   10.3660   14.9190 O.2   366  ASN366     -0.2716
    169  ND2       23.6650    8.3250   14.0510 N.am  366  ASN366     -0.0877
    170  N         28.6030   13.1790   10.1390 N.3   385  GLY385     -0.1210
    171  CA        29.4740   12.3170   11.0060 C.3   385  GLY385      0.1956
    172  C         30.5840   11.7090   10.1670 C.2   385  GLY385      0.2612
    173  O         30.7920   12.1540    9.0200 O.2   385  GLY385     -0.2717
    174  N         31.3000   10.6990   10.6920 N.am  386  ASP386     -0.1959
    175  CA        32.4300   10.1250    9.9320 C.3   386  ASP386      0.1840
    176  C         31.9590    8.9270    9.1060 C.2   386  ASP386      0.2622
    177  O         32.6750    8.3990    8.2320 O.2   386  ASP386     -0.2715
    178  CB        33.6640    9.8260   10.8230 C.3   386  ASP386      0.1450
    179  CG        33.3610    8.8790   11.9700 C.2   386  ASP386      0.3671
    180  OD1       34.1770    8.8330   12.9420 O.co2 386  ASP386     -0.2456
    181  OD2       32.3200    8.1640   11.9090 O.co2 386  ASP386     -0.2456
    182  N         30.7320    8.5200    9.3560 N.am  387  GLY387     -0.1954
    183  CA        30.1300    7.4210    8.6070 C.3   387  GLY387      0.1869
    184  C         29.7470    7.6750    7.1400 C.2   387  GLY387      0.2309
    185  O         29.3470    8.8090    6.7650 O.2   387  GLY387     -0.2863
@<TRIPOS>BOND
     1    62    61    2
     2    61    60    1
     3    60    63    1
     4    60    59    1
     5    65    63    1
     6    63    64    1
     7    59    57   am
     8    88    87   ar
     9    88    86   ar
    10    87    85   ar
    11    57    58    2
    12    57    56    1
    13    55    56    1
    14    86    84   ar
    15    85    83   ar
    16   185   184    2
    17    66    67    1
    18   184   183    1
    19    84    83   ar
    20    83    82    1
    21    67    68    1
    22    67    70    1
    23   177   176    2
    24    75    73   ar
    25    75    76   ar
    26    69    68    2
    27    73    71   ar
    28    68    78   am
    29   183   182    1
    30    82    79    1
    31    77    76    1
    32    76    74   ar
    33   173   172    2
    34    71    70    1
    35    71    72   ar
    36   176   182   am
    37   176   175    1
    38    78    79    1
    39    31    30   ar
    40    74    72   ar
    41    79    80    1
    42   175   174    1
    43   175   178    1
    44    32    30   ar
    45   170   171    1
    46   172   174   am
    47   172   171    1
    48    30    29    1
    49   178   179    1
    50    80    81    2
    51    80    89   am
    52    29    26    1
    53   181   179   ar
    54   179   180   ar
    55   164   165    2
    56   164   163    1
    57     7     5    1
    58    89    90    1
    59     6     5    1
    60    26    25    1
    61    26    27    1
    62   145   146    2
    63   145   144    1
    64   149   151   ar
    65   149   148   ar
    66    25    19   am
    67   147   144    1
    68   147   148    1
    69     5     2    1
    70   163   166    1
    71   163   162    1
    72   151   153   ar
    73    90    91    1
    74    90    93    1
    75    53    54   ar
    76    53    51   ar
    77    92    91    2
    78   144   143    1
    79    95    97   ar
    80    95    94   ar
    81    54    52   ar
    82    11    10    2
    83   148   150   ar
    84    97    98   ar
    85   166   167    1
    86    27    28    2
    87   169   167   am
    88    19    18    1
    89    19    20    2
    90     2     1    1
    91     2     3    1
    92   167   168    2
    93    18    21    1
    94    18    17    1
    95    94    93    1
    96    94    96   ar
    97    51    49   ar
    98    98    96   ar
    99   153   154    1
   100   153   152   ar
   101    21    22    1
   102    10    17   am
   103    10     9    1
   104    52    50   ar
   105     8     3   am
   106     8     9    1
   107   150   152   ar
   108     3     4    2
   109     9    12    1
   110    49    50   ar
   111    49    48    1
   112    22    24   ar
   113    22    23   ar
   114   117   115    1
   115    12    13    1
   116   116   115    1
   117    48    45    1
   118   115   114    2
   119    13    14    1
   120   161   159    1
   121    16    14   ar
   122    44    45    1
   123    36    35    2
   124    45    46    1
   125    14    15   ar
   126   157   158    2
   127   157   156    1
   128   114   113    1
   129   128   127   ar
   130   128   126   ar
   131   127   125   ar
   132    40    42   ar
   133    40    38   ar
   134   134   133    1
   135   159   160    1
   136   159   156    1
   137   126   124   ar
   138    35    34    1
   139    46    47    2
   140    42    43   ar
   141   156   155    1
   142   113   112    1
   143    37    38    1
   144    37    34    1
   145   125   123   ar
   146    33    34    1
   147    38    39   ar
   148   124   123   ar
   149   123   122    1
   150   119   118    1
   151   119   120    1
   152   119   122    1
   153   142   140    1
   154   133   130    1
   155    43    41   ar
   156   118   109   am
   157   120   121    2
   158   112   111    1
   159    39    41   ar
   160   105   104    1
   161   110   109    2
   162   109   108    1
   163   130   129    1
   164   130   131    1
   165   111   108    1
   166   140   141    1
   167   140   139    1
   168   108   107    1
   169   106   104    1
   170   104   103    1
   171   131   132    2
   172   139   136    1
   173   138   137    2
   174   103   100    1
   175   137   136    1
   176   136   135    1
   177   102   101    2
   178   100   101    1
   179   100    99    1
