@<TRIPOS>MOLECULE
tmp/6gnjC00.pdb
 140 133 0 0 0
SMALL
GASTEIGER

@<TRIPOS>ATOM
      1  N        107.7570   -0.1070   10.4110 N.3    42  THR42      -0.1218
      2  CA       108.9650   -0.3270    9.5990 C.3    42  THR42       0.1862
      3  C        108.6200   -0.7780    8.1760 C.2    42  THR42       0.2287
      4  O        109.2650   -0.3210    7.2260 O.2    42  THR42      -0.2866
      5  CB       109.9200   -1.3020   10.3040 C.3    42  THR42       0.1770
      6  OG1      110.1510   -0.8050   11.6150 O.3    42  THR42      -0.2211
      7  CG2      111.2760   -1.4050    9.6200 C.3    42  THR42       0.0375
      8  N        105.0040    3.6790    8.0900 N.3    46  TYR46      -0.1227
      9  CA       105.9010    4.8050    8.3930 C.3    46  TYR46       0.1736
     10  C        105.5690    6.0160    7.5310 C.2    46  TYR46       0.2595
     11  O        105.7870    7.1490    7.9610 O.2    46  TYR46      -0.2718
     12  CB       107.3920    4.4260    8.2610 C.3    46  TYR46       0.0548
     13  CG       107.9210    4.2090    6.8560 C.ar   46  TYR46      -0.0200
     14  CD1      107.7210    2.9960    6.1890 C.ar   46  TYR46      -0.0009
     15  CD2      108.7300    5.1620    6.2420 C.ar   46  TYR46      -0.0009
     16  CE1      108.2600    2.7650    4.9210 C.ar   46  TYR46       0.0417
     17  CE2      109.2670    4.9460    4.9720 C.ar   46  TYR46       0.0417
     18  CZ       109.0320    3.7450    4.3180 C.ar   46  TYR46       0.1957
     19  OH       109.5740    3.5430    3.0770 O.3    46  TYR46      -0.2866
     20  N        105.0020    5.7650    6.3370 N.am   47  ALA47      -0.1980
     21  CA       104.5620    6.7790    5.3910 C.3    47  ALA47       0.1597
     22  C        103.4940    7.6640    6.0480 C.2    47  ALA47       0.2287
     23  O        103.8190    8.7280    6.5890 O.2    47  ALA47      -0.2864
     24  CB       104.0130    6.1010    4.1310 C.3    47  ALA47       0.0319
     25  N        103.8890    9.1520    9.9850 N.3    50  ASN50      -0.1240
     26  CA       104.7170   10.3410   10.1300 C.3    50  ASN50       0.1653
     27  C        104.1140   11.5220    9.3880 C.2    50  ASN50       0.2266
     28  O        104.3250   12.6590    9.8020 O.2    50  ASN50      -0.2867
     29  CB       106.1200   10.0500    9.6590 C.3    50  ASN50       0.1155
     30  CG       106.8010    9.0320   10.5290 C.2    50  ASN50       0.2627
     31  OD1      106.5130    8.9180   11.7340 O.2    50  ASN50      -0.2716
     32  ND2      107.7190    8.2720    9.9360 N.am   50  ASN50      -0.0877
     33  N        103.5430   14.8140   11.6480 N.3    54  ARG54      -0.1245
     34  CA       104.2120   16.0350   11.1820 C.3    54  ARG54       0.1563
     35  C        103.1930   17.1300   10.8830 C.2    54  ARG54       0.2260
     36  O        103.3390   18.2570   11.3660 O.2    54  ARG54      -0.2867
     37  CB       105.0890   15.7450    9.9490 C.3    54  ARG54       0.0307
     38  CG       106.4250   15.0950   10.3050 C.3    54  ARG54       0.0489
     39  CD       107.0770   14.3680    9.1430 C.3    54  ARG54       0.2205
     40  NE       107.9700   13.3150    9.6360 N.pl3  54  ARG54      -0.0865
     41  CZ       108.7900   12.5860    8.8820 C.cat  54  ARG54       0.5346
     42  NH1      108.8630   12.7940    7.5730 N.pl3  54  ARG54       0.1354
     43  NH2      109.5510   11.6510    9.4350 N.pl3  54  ARG54       0.1354
     44  N        122.3200    6.4990    9.4810 N.3    87  PHE87      -0.1227
     45  CA       122.1290    7.5050    8.4470 C.3    87  PHE87       0.1736
     46  C        120.7070    7.5590    7.9560 C.2    87  PHE87       0.2595
     47  O        120.0440    6.5380    7.7910 O.2    87  PHE87      -0.2718
     48  CB       123.0780    7.2550    7.2830 C.3    87  PHE87       0.0547
     49  CG       124.4300    6.7920    7.7520 C.ar   87  PHE87      -0.0202
     50  CD1      125.3820    7.7060    8.1890 C.ar   87  PHE87      -0.0042
     51  CD2      124.7310    5.4350    7.8260 C.ar   87  PHE87      -0.0042
     52  CE1      126.6280    7.2730    8.6560 C.ar   87  PHE87      -0.0003
     53  CE2      125.9720    5.0040    8.2970 C.ar   87  PHE87      -0.0003
     54  CZ       126.9130    5.9280    8.7110 C.ar   87  PHE87      -0.0000
     55  N        120.2510    8.7780    7.7040 N.am   88  ARG88      -0.1966
     56  CA       118.9010    9.0800    7.2800 C.3    88  ARG88       0.1729
     57  C        118.9250   10.1610    6.1920 C.2    88  ARG88       0.2617
     58  O        119.4440   11.2660    6.4340 O.2    88  ARG88      -0.2715
     59  CB       118.1040    9.5480    8.5120 C.3    88  ARG88       0.0348
     60  CG       116.6280    9.6430    8.2790 C.3    88  ARG88       0.0492
     61  CD       116.0090   10.6800    9.1630 C.3    88  ARG88       0.2205
     62  NE       115.0020   11.4710    8.4590 N.pl3  88  ARG88      -0.0865
     63  CZ       113.7390   11.0950    8.2540 C.cat  88  ARG88       0.5346
     64  NH1      113.3080    9.9160    8.6950 N.pl3  88  ARG88       0.1354
     65  NH2      112.9000   11.8920    7.6080 N.pl3  88  ARG88       0.1354
     66  N        118.3620    9.8370    5.0220 N.am   89  GLY89      -0.1940
     67  CA       118.2830   10.7690    3.9020 C.3    89  GLY89       0.2014
     68  C        116.8660   11.1460    3.5190 C.2    89  GLY89       0.2639
     69  O        115.9630   10.3150    3.6310 O.2    89  GLY89      -0.2714
     70  N        116.6590   12.4070    3.0730 N.am   90  THR90      -0.1950
     71  CA       115.3490   12.9180    2.6260 C.3    90  THR90       0.1897
     72  C        115.4140   13.4600    1.2100 C.2    90  THR90       0.2313
     73  O        116.4820   13.8820    0.7550 O.2    90  THR90      -0.2863
     74  CB       114.8150   14.0200    3.5340 C.3    90  THR90       0.1794
     75  OG1      115.7910   15.0510    3.6280 O.3    90  THR90      -0.2208
     76  CG2      114.4220   13.5230    4.9050 C.3    90  THR90       0.0378
     77  N        108.2590    9.8850   13.9710 N.3   110  TYR110     -0.1241
     78  CA       109.3390    8.9940   14.3660 C.3   110  TYR110      0.1605
     79  C        110.4820    9.1590   13.3550 C.2   110  TYR110      0.2264
     80  O        110.2500    9.5050   12.1880 O.2   110  TYR110     -0.2867
     81  CB       108.8410    7.5350   14.4660 C.3   110  TYR110      0.0534
     82  CG       107.8100    7.3060   15.5560 C.ar  110  TYR110     -0.0201
     83  CD1      108.1980    7.0490   16.8660 C.ar  110  TYR110     -0.0009
     84  CD2      106.4460    7.3420   15.2740 C.ar  110  TYR110     -0.0009
     85  CE1      107.2560    6.8510   17.8750 C.ar  110  TYR110      0.0417
     86  CE2      105.4950    7.1610   16.2770 C.ar  110  TYR110      0.0417
     87  CZ       105.9070    6.9070   17.5750 C.ar  110  TYR110      0.1957
     88  OH       104.9900    6.7160   18.5770 O.3   110  TYR110     -0.2866
     89  N        112.9950    7.2480   11.4050 N.3   112  SER112     -0.1202
     90  CA       113.5600    5.9720   10.9430 C.3   112  SER112      0.2020
     91  C        114.9430    6.2720   10.2920 C.2   112  SER112      0.2619
     92  O        115.0300    7.1600    9.4430 O.2   112  SER112     -0.2717
     93  CB       112.6100    5.2150   10.0000 C.3   112  SER112      0.2103
     94  OG       111.3510    5.8200    9.7310 O.3   112  SER112     -0.2182
     95  N        116.0310    5.6370   10.7780 N.am  113  THR113     -0.1938
     96  CA       117.4030    5.8340   10.2540 C.3   113  THR113      0.2028
     97  C        117.9940    4.4390    9.9420 C.2   113  THR113      0.2642
     98  O        117.5240    3.4580   10.5130 O.2   113  THR113     -0.2714
     99  CB       118.2990    6.6760   11.2130 C.3   113  THR113      0.1808
    100  OG1      118.8690    5.8630   12.2240 O.3   113  THR113     -0.2208
    101  CG2      117.5670    7.8260   11.8860 C.3   113  THR113      0.0379
    102  N        118.9990    4.3420    9.0530 N.am  114  SER114     -0.1949
    103  CA       119.6110    3.0660    8.6290 C.3   114  SER114      0.1924
    104  C        121.0350    2.8720    9.1320 C.2   114  SER114      0.2314
    105  O        121.6960    3.8450    9.4670 O.2   114  SER114     -0.2863
    106  CB       119.6370    3.0070    7.0990 C.3   114  SER114      0.2116
    107  OG       120.5410    2.0520    6.5560 O.3   114  SER114     -0.2180
    108  N        121.6750    2.7940    1.8020 N.3   119  VAL119     -0.1231
    109  CA       120.2090    2.6730    1.8070 C.3   119  VAL119      0.1692
    110  C        119.5720    4.0020    2.3360 C.2   119  VAL119      0.2591
    111  O        118.3970    4.2500    2.0580 O.2   119  VAL119     -0.2718
    112  CB       119.7110    1.3710    2.5180 C.3   119  VAL119      0.0266
    113  CG1      118.8800    1.6370    3.7650 C.3   119  VAL119      0.0020
    114  CG2      118.9490    0.4840    1.5420 C.3   119  VAL119      0.0020
    115  N        120.3670    4.8720    3.0140 N.am  120  ALA120     -0.1980
    116  CA       119.9330    6.1980    3.4770 C.3   120  ALA120      0.1597
    117  C        119.8670    7.1440    2.2750 C.2   120  ALA120      0.2287
    118  O        118.9780    7.9940    2.2090 O.2   120  ALA120     -0.2864
    119  CB       120.8870    6.7330    4.5270 C.3   120  ALA120      0.0319
    120  N        116.7560    6.9900   -0.0410 N.3   123  PHE123     -0.1241
    121  CA       115.5780    7.7420    0.3860 C.3   123  PHE123      0.1605
    122  C        115.6020    9.2250    0.0000 C.2   123  PHE123      0.2264
    123  O        114.6320    9.9460    0.2890 O.2   123  PHE123     -0.2867
    124  CB       115.3540    7.5900    1.8920 C.3   123  PHE123      0.0534
    125  CG       114.7650    6.2460    2.2130 C.ar  123  PHE123     -0.0203
    126  CD1      113.4050    6.0100    2.0530 C.ar  123  PHE123     -0.0042
    127  CD2      115.5760    5.1960    2.6150 C.ar  123  PHE123     -0.0042
    128  CE1      112.8680    4.7490    2.2890 C.ar  123  PHE123     -0.0003
    129  CE2      115.0420    3.9360    2.8590 C.ar  123  PHE123     -0.0003
    130  CZ       113.6890    3.7200    2.6980 C.ar  123  PHE123     -0.0000
    131  N        117.7470   -2.7730    5.1570 N.3   148  ALA148     -0.1245
    132  CA       117.7810   -1.4460    5.7490 C.3   148  ALA148      0.1562
    133  C        118.5300   -1.4370    7.0760 C.2   148  ALA148      0.2260
    134  O        119.3280   -0.5310    7.2920 O.2   148  ALA148     -0.2867
    135  CB       116.3600   -0.9410    5.9430 C.3   148  ALA148      0.0290
    136  N        117.3460   -0.8830   10.0680 N.3   150  ALA150     -0.1245
    137  CA       116.9150    0.3700   10.6550 C.3   150  ALA150      0.1562
    138  C        117.1090    0.4240   12.1550 C.2   150  ALA150      0.2260
    139  O        117.1310   -0.6150   12.8170 O.2   150  ALA150     -0.2867
    140  CB       115.4640    0.6180   10.3300 C.3   150  ALA150      0.0290
@<TRIPOS>BOND
     1   120   121    1
     2   122   123    2
     3   122   121    1
     4   121   124    1
     5    73    72    2
     6    72    71    1
     7   114   112    1
     8   108   109    1
     9   109   110    1
    10   109   112    1
    11   124   125    1
    12   126   125   ar
    13   126   128   ar
    14   111   110    2
    15   118   117    2
    16   125   127   ar
    17   117   116    1
    18   128   130   ar
    19   110   115   am
    20   112   113    1
    21   127   129   ar
    22    71    70    1
    23    71    74    1
    24   130   129   ar
    25   115   116    1
    26    70    68   am
    27    19    18    1
    28   116   119    1
    29    68    69    2
    30    68    67    1
    31    74    75    1
    32    74    76    1
    33    67    66    1
    34    24    21    1
    35    18    16   ar
    36    18    17   ar
    37    16    14   ar
    38    17    15   ar
    39    66    57   am
    40   131   132    1
    41    21    22    1
    42    21    20    1
    43   132   135    1
    44   132   133    1
    45    22    23    2
    46    14    13   ar
    47    57    58    2
    48    57    56    1
    49    15    13   ar
    50    20    10   am
    51   107   106    1
    52    13    12    1
    53   133   134    2
    54   106   103    1
    55     4     3    2
    56    56    55    1
    57    56    59    1
    58    48    49    1
    59    48    45    1
    60    10    11    2
    61    10     9    1
    62    42    41    1
    63    65    63    1
    64    55    46   am
    65    49    51   ar
    66    49    50   ar
    67    47    46    2
    68    51    53   ar
    69    46    45    1
    70     8     9    1
    71     3     2    1
    72    50    52   ar
    73    63    62    2
    74    63    64    1
    75    12     9    1
    76    60    59    1
    77    60    61    1
    78    53    54   ar
    79    45    44    1
    80    62    61    1
    81   103   102    1
    82   103   104    1
    83    52    54   ar
    84    41    43    1
    85    41    40    2
    86   102    97   am
    87   104   105    2
    88    39    40    1
    89    39    38    1
    90    27    28    2
    91    27    26    1
    92    92    91    2
    93     2     5    1
    94     2     1    1
    95     7     5    1
    96    29    26    1
    97    29    30    1
    98    94    93    1
    99    32    30   am
   100    97    96    1
   101    97    98    2
   102    37    38    1
   103    37    34    1
   104    25    26    1
   105    93    90    1
   106   136   137    1
   107    96    95    1
   108    96    99    1
   109    91    95   am
   110    91    90    1
   111     5     6    1
   112   140   137    1
   113    30    31    2
   114   137   138    1
   115    35    34    1
   116    35    36    2
   117    90    89    1
   118    34    33    1
   119    99   101    1
   120    99   100    1
   121   138   139    2
   122    80    79    2
   123    79    78    1
   124    77    78    1
   125    78    81    1
   126    81    82    1
   127    84    82   ar
   128    84    86   ar
   129    82    83   ar
   130    86    87   ar
   131    83    85   ar
   132    87    85   ar
   133    87    88    1
