@<TRIPOS>MOLECULE
tmp/6gnkC00.pdb
 202 193 0 0 0
SMALL
GASTEIGER

@<TRIPOS>ATOM
      1  N        104.6500   -1.4030   11.1480 N.3    41  TYR41      -0.1227
      2  CA       105.3270   -0.1400   10.8440 C.3    41  TYR41       0.1736
      3  C        106.4450   -0.3450    9.8000 C.2    41  TYR41       0.2596
      4  O        106.4030    0.2470    8.7260 O.2    41  TYR41      -0.2718
      5  CB       105.9130    0.5010   12.1420 C.3    41  TYR41       0.0548
      6  CG       106.7290    1.7640   11.8950 C.ar   41  TYR41      -0.0200
      7  CD1      106.1170    3.0130   11.8360 C.ar   41  TYR41      -0.0009
      8  CD2      108.1020    1.6980   11.6490 C.ar   41  TYR41      -0.0009
      9  CE1      106.8460    4.1570   11.5440 C.ar   41  TYR41       0.0417
     10  CE2      108.8330    2.8330   11.3300 C.ar   41  TYR41       0.0417
     11  CZ       108.2020    4.0610   11.2880 C.ar   41  TYR41       0.1957
     12  OH       108.9180    5.1810   10.9480 O.3    41  TYR41      -0.2866
     13  N        107.4450   -1.1670   10.1400 N.am   42  THR42      -0.1953
     14  CA       108.6630   -1.3780    9.3580 C.3    42  THR42       0.1897
     15  C        108.3530   -1.9260    8.0040 C.2    42  THR42       0.2313
     16  O        108.9170   -1.4450    7.0310 O.2    42  THR42      -0.2863
     17  CB       109.6400   -2.2240   10.1430 C.3    42  THR42       0.1794
     18  OG1      109.7850   -1.5750   11.4050 O.3    42  THR42      -0.2208
     19  CG2      111.0110   -2.3190    9.4890 C.3    42  THR42       0.0378
     20  N        104.8360    2.5710    7.9530 N.3    46  TYR46      -0.1227
     21  CA       105.6840    3.7630    8.2120 C.3    46  TYR46       0.1736
     22  C        105.1730    4.9700    7.3910 C.2    46  TYR46       0.2595
     23  O        105.1070    6.0790    7.8980 O.2    46  TYR46      -0.2718
     24  CB       107.2080    3.5000    7.9120 C.3    46  TYR46       0.0548
     25  CG       107.5110    3.0660    6.4910 C.ar   46  TYR46      -0.0200
     26  CD1      107.4900    3.9780    5.4380 C.ar   46  TYR46      -0.0009
     27  CD2      107.8040    1.7400    6.1940 C.ar   46  TYR46      -0.0009
     28  CE1      107.7030    3.5700    4.1200 C.ar   46  TYR46       0.0417
     29  CE2      107.9980    1.3180    4.8800 C.ar   46  TYR46       0.0417
     30  CZ       107.9730    2.2420    3.8510 C.ar   46  TYR46       0.1957
     31  OH       108.1930    1.8280    2.5640 O.3    46  TYR46      -0.2866
     32  N        104.7730    4.7210    6.1430 N.am   47  ALA47      -0.1980
     33  CA       104.3500    5.7610    5.2260 C.3    47  ALA47       0.1597
     34  C        103.1640    6.5240    5.7490 C.2    47  ALA47       0.2287
     35  O        103.3070    7.7400    5.9120 O.2    47  ALA47      -0.2864
     36  CB       104.0600    5.1860    3.8410 C.3    47  ALA47       0.0319
     37  N        103.8030    7.9560    9.7540 N.3    50  ASN50      -0.1240
     38  CA       104.7320    9.0940    9.7670 C.3    50  ASN50       0.1653
     39  C        104.1190   10.3360    9.1130 C.2    50  ASN50       0.2266
     40  O        104.3540   11.4460    9.5900 O.2    50  ASN50      -0.2867
     41  CB       106.0620    8.7430    9.1110 C.3    50  ASN50       0.1155
     42  CG       106.9390    7.8420    9.9490 C.2    50  ASN50       0.2627
     43  OD1      106.7350    7.6460   11.1550 O.2    50  ASN50      -0.2716
     44  ND2      107.9450    7.2680    9.3220 N.am   50  ASN50      -0.0877
     45  N        103.6810   13.6090   11.2390 N.3    54  ARG54      -0.1245
     46  CA       104.4090   14.8260   10.8010 C.3    54  ARG54       0.1563
     47  C        103.4580   15.9740   10.4480 C.2    54  ARG54       0.2260
     48  O        103.8430   17.1430   10.5570 O.2    54  ARG54      -0.2867
     49  CB       105.3160   14.5080    9.6020 C.3    54  ARG54       0.0307
     50  CG       106.4970   13.6600   10.0270 C.3    54  ARG54       0.0489
     51  CD       107.2100   13.0560    8.8600 C.3    54  ARG54       0.2205
     52  NE       108.3610   12.2750    9.3090 N.pl3  54  ARG54      -0.0865
     53  CZ       108.8890   11.2610    8.6380 C.cat  54  ARG54       0.5346
     54  NH1      108.3710   10.8820    7.4790 N.pl3  54  ARG54       0.1354
     55  NH2      109.9440   10.6220    9.1160 N.pl3  54  ARG54       0.1354
     56  N        121.2710    6.9590    7.4930 N.3    88  ARG88      -0.1231
     57  CA       119.9230    7.2800    7.0300 C.3    88  ARG88       0.1694
     58  C        119.9560    8.1560    5.7910 C.2    88  ARG88       0.2593
     59  O        120.6870    9.1240    5.7470 O.2    88  ARG88      -0.2718
     60  CB       119.1620    7.9710    8.1760 C.3    88  ARG88       0.0321
     61  CG       117.8410    8.6080    7.7940 C.3    88  ARG88       0.0489
     62  CD       117.0940    9.0920    9.0020 C.3    88  ARG88       0.2205
     63  NE       115.8670    9.7870    8.6040 N.pl3  88  ARG88      -0.0865
     64  CZ       114.7520    9.1830    8.2140 C.cat  88  ARG88       0.5346
     65  NH1      114.7030    7.8610    8.1260 N.pl3  88  ARG88       0.1354
     66  NH2      113.6880    9.8990    7.8720 N.pl3  88  ARG88       0.1354
     67  N        119.1400    7.8440    4.8050 N.am   89  GLY89      -0.1942
     68  CA       119.0540    8.6490    3.5950 C.3    89  GLY89       0.2014
     69  C        117.6400    9.1260    3.3430 C.2    89  GLY89       0.2640
     70  O        116.6910    8.3600    3.5330 O.2    89  GLY89      -0.2714
     71  N        117.4810   10.4040    2.9470 N.am   90  THR90      -0.1936
     72  CA       116.1750   10.9680    2.6090 C.3    90  THR90       0.2028
     73  C        116.2460   11.5820    1.2010 C.2    90  THR90       0.2642
     74  O        117.3300   11.9160    0.7300 O.2    90  THR90      -0.2714
     75  CB       115.6290   11.9460    3.6730 C.3    90  THR90       0.1808
     76  OG1      116.4420   13.1320    3.7300 O.3    90  THR90      -0.2208
     77  CG2      115.4390   11.2910    5.0700 C.3    90  THR90       0.0379
     78  N        115.1060   11.6510    0.5070 N.am   91  ARG91      -0.1963
     79  CA       115.0320   12.1710   -0.8580 C.3    91  ARG91       0.1729
     80  C        114.7770   13.6850   -0.8380 C.2    91  ARG91       0.2617
     81  O        115.7260   14.4470   -0.7440 O.2    91  ARG91      -0.2715
     82  CB       113.9580   11.4210   -1.6670 C.3    91  ARG91       0.0348
     83  CG       114.1490    9.9070   -1.7500 C.3    91  ARG91       0.0492
     84  CD       112.8110    9.1990   -2.0120 C.3    91  ARG91       0.2205
     85  NE       112.6570    8.0280   -1.1420 N.pl3  91  ARG91      -0.0865
     86  CZ       111.5880    7.7660   -0.4020 C.cat  91  ARG91       0.5346
     87  NH1      110.5430    8.5740   -0.4310 N.pl3  91  ARG91       0.1354
     88  NH2      111.5580    6.6880    0.3760 N.pl3  91  ARG91       0.1354
     89  N        113.5040   14.0910   -0.8100 N.am   92  GLY92      -0.1940
     90  CA       113.0610   15.4860   -0.8090 C.3    92  GLY92       0.2014
     91  C        113.1190   16.2780    0.4870 C.2    92  GLY92       0.2639
     92  O        113.3410   17.4950    0.4520 O.2    92  GLY92      -0.2714
     93  N        112.8710   15.6430    1.6210 N.am   93  GLY93      -0.1939
     94  CA       112.8350   16.3980    2.8650 C.3    93  GLY93       0.2014
     95  C        113.4100   15.7000    4.0670 C.2    93  GLY93       0.2639
     96  O        113.4810   14.4760    4.1120 O.2    93  GLY93      -0.2714
     97  N        113.8310   16.4730    5.0450 N.am   94  ASP94      -0.1957
     98  CA       114.4540   15.9260    6.2190 C.3    94  ASP94       0.1840
     99  C        114.1020   16.7980    7.3990 C.2    94  ASP94       0.2621
    100  O        114.0380   18.0130    7.2630 O.2    94  ASP94      -0.2715
    101  CB       115.9810   15.8530    5.9920 C.3    94  ASP94       0.1450
    102  CG       116.7330   15.0030    6.9830 C.2    94  ASP94       0.3671
    103  OD1      116.8910   13.7830    6.7240 O.co2  94  ASP94      -0.2456
    104  OD2      117.1850   15.5530    8.0070 O.co2  94  ASP94      -0.2456
    105  N        113.8810   16.1730    8.5510 N.am   95  ALA95      -0.1977
    106  CA       113.5380   16.8080    9.8100 C.3    95  ALA95       0.1597
    107  C        114.5840   17.7890   10.3190 C.2    95  ALA95       0.2287
    108  O        114.2460   18.7390   11.0480 O.2    95  ALA95      -0.2864
    109  CB       113.3670   15.7310   10.8570 C.3    95  ALA95       0.0319
    110  N        112.3780   14.6910   14.6970 N.3   107  ASP107     -0.1225
    111  CA       111.4140   14.2750   13.6920 C.3   107  ASP107      0.1805
    112  C        110.0880   14.0250   14.4610 C.2   107  ASP107      0.2597
    113  O        110.1190   13.4850   15.5700 O.2   107  ASP107     -0.2718
    114  CB       111.9340   13.0120   12.9580 C.3   107  ASP107      0.1424
    115  CG       111.4090   12.8020   11.5440 C.2   107  ASP107      0.3668
    116  OD1      110.1910   12.9210   11.3410 O.co2 107  ASP107     -0.2456
    117  OD2      112.2220   12.5000   10.6470 O.co2 107  ASP107     -0.2456
    118  N        108.9510   14.4490   13.9290 N.am  108  ASP108     -0.1974
    119  CA       107.6910   14.2000   14.6380 C.3   108  ASP108      0.1709
    120  C        107.2440   12.7080   14.4800 C.2   108  ASP108      0.2293
    121  O        106.5520   12.1700   15.3610 O.2   108  ASP108     -0.2864
    122  CB       106.5970   15.1860   14.1890 C.3   108  ASP108      0.1436
    123  CG       106.7140   16.5580   14.8180 C.2   108  ASP108      0.3671
    124  OD1      107.1470   16.6420   15.9910 O.co2 108  ASP108     -0.2456
    125  OD2      106.3590   17.5440   14.1490 O.co2 108  ASP108     -0.2456
    126  N        108.7980    8.6250   13.2550 N.3   110  TYR110     -0.1241
    127  CA       109.8760    7.7410   13.6910 C.3   110  TYR110      0.1605
    128  C        111.0180    7.8300   12.7140 C.2   110  TYR110      0.2264
    129  O        110.8230    7.9370   11.4880 O.2   110  TYR110     -0.2867
    130  CB       109.3870    6.2800   13.8400 C.3   110  TYR110      0.0534
    131  CG       108.3430    6.0760   14.9180 C.ar  110  TYR110     -0.0201
    132  CD1      106.9990    6.3740   14.6840 C.ar  110  TYR110     -0.0009
    133  CD2      108.6950    5.5870   16.1740 C.ar  110  TYR110     -0.0009
    134  CE1      106.0390    6.2230   15.6840 C.ar  110  TYR110      0.0417
    135  CE2      107.7470    5.4330   17.1830 C.ar  110  TYR110      0.0417
    136  CZ       106.4150    5.7360   16.9260 C.ar  110  TYR110      0.1957
    137  OH       105.4690    5.5410   17.8950 O.3   110  TYR110     -0.2866
    138  N        113.9740    6.0520   10.9210 N.3   112  SER112     -0.1202
    139  CA       114.5300    4.7690   10.4690 C.3   112  SER112      0.2020
    140  C        115.9810    4.9580   10.0900 C.2   112  SER112      0.2619
    141  O        116.3320    5.8880    9.3520 O.2   112  SER112     -0.2717
    142  CB       113.7530    4.2010    9.2800 C.3   112  SER112      0.2103
    143  OG       112.3850    3.9810    9.5710 O.3   112  SER112     -0.2182
    144  N        116.8390    4.1160   10.6360 N.am  113  THR113     -0.1938
    145  CA       118.2780    4.1590   10.3250 C.3   113  THR113      0.2028
    146  C        118.7450    2.7260   10.0030 C.2   113  THR113      0.2642
    147  O        118.0260    1.7600   10.2600 O.2   113  THR113     -0.2714
    148  CB       119.1120    4.8480   11.4330 C.3   113  THR113      0.1808
    149  OG1      119.2120    4.0190   12.5810 O.3   113  THR113     -0.2208
    150  CG2      118.6160    6.2480   11.8140 C.3   113  THR113      0.0379
    151  N        119.9060    2.6000    9.3760 N.am  114  SER114     -0.1949
    152  CA       120.4660    1.3270    8.9330 C.3   114  SER114      0.1924
    153  C        121.8560    1.1060    9.4520 C.2   114  SER114      0.2314
    154  O        122.6560    2.0310    9.4490 O.2   114  SER114     -0.2863
    155  CB       120.5020    1.3020    7.4090 C.3   114  SER114      0.2116
    156  OG       121.3550    0.2860    6.9090 O.3   114  SER114     -0.2180
    157  N        121.4260    2.8640    3.1690 N.3   120  ALA120     -0.1245
    158  CA       120.8780    4.2050    3.3750 C.3   120  ALA120      0.1562
    159  C        120.7980    5.0080    2.0730 C.2   120  ALA120      0.2260
    160  O        119.7590    5.6390    1.8450 O.2   120  ALA120     -0.2867
    161  CB       121.7100    4.9480    4.4040 C.3   120  ALA120      0.0290
    162  N        117.8030    4.5740   -0.0670 N.3   123  PHE123     -0.1241
    163  CA       116.5450    5.2120    0.3620 C.3   123  PHE123      0.1605
    164  C        116.5300    6.6790   -0.0620 C.2   123  PHE123      0.2264
    165  O        115.4810    7.1820   -0.4050 O.2   123  PHE123     -0.2867
    166  CB       116.3030    5.0650    1.8620 C.3   123  PHE123      0.0534
    167  CG       115.9610    3.6570    2.2690 C.ar  123  PHE123     -0.0203
    168  CD1      114.6590    3.1820    2.1660 C.ar  123  PHE123     -0.0042
    169  CD2      116.9410    2.7970    2.7360 C.ar  123  PHE123     -0.0042
    170  CE1      114.3490    1.8670    2.5170 C.ar  123  PHE123     -0.0003
    171  CE2      116.6300    1.4830    3.1030 C.ar  123  PHE123     -0.0003
    172  CZ       115.3330    1.0270    2.9970 C.ar  123  PHE123     -0.0000
    173  N        113.4350   -5.8740    4.8620 N.3   145  TYR145     -0.1241
    174  CA       113.5620   -5.7510    3.3980 C.3   145  TYR145      0.1605
    175  C        114.8650   -5.0370    3.0820 C.2   145  TYR145      0.2264
    176  O        115.2920   -4.2100    3.8840 O.2   145  TYR145     -0.2867
    177  CB       112.4090   -4.9730    2.7720 C.3   145  TYR145      0.0534
    178  CG       111.0840   -5.6800    2.7180 C.ar  145  TYR145     -0.0201
    179  CD1      110.8130   -6.6190    1.7240 C.ar  145  TYR145     -0.0009
    180  CD2      110.0430   -5.3080    3.5630 C.ar  145  TYR145     -0.0009
    181  CE1      109.5470   -7.2010    1.5980 C.ar  145  TYR145      0.0417
    182  CE2      108.7800   -5.8870    3.4540 C.ar  145  TYR145      0.0417
    183  CZ       108.5330   -6.8250    2.4610 C.ar  145  TYR145      0.1957
    184  OH       107.2820   -7.3650    2.3220 O.3   145  TYR145     -0.2866
    185  N        118.2010   -4.1800    5.3480 N.3   148  ALA148     -0.1245
    186  CA       118.3970   -2.8270    5.8060 C.3   148  ALA148      0.1562
    187  C        119.0040   -2.7890    7.1840 C.2   148  ALA148      0.2260
    188  O        119.7410   -1.8510    7.4520 O.2   148  ALA148     -0.2867
    189  CB       117.0850   -2.0800    5.7730 C.3   148  ALA148      0.0290
    190  N        117.7660   -2.3690   10.2290 N.3   150  ALA150     -0.1245
    191  CA       117.2560   -1.1230   10.7860 C.3   150  ALA150      0.1562
    192  C        117.2730   -1.0460   12.2990 C.2   150  ALA150      0.2260
    193  O        116.8950   -1.9970   13.0000 O.2   150  ALA150     -0.2867
    194  CB       115.8280   -0.8730   10.2940 C.3   150  ALA150      0.0290
    195  N        115.4390    1.6380   14.7240 N.3   152  LEU152     -0.1245
    196  CA       114.4640    2.7320   14.7590 C.3   152  LEU152      0.1561
    197  C        114.6180    3.5370   16.0420 C.2   152  LEU152      0.2260
    198  O        114.7990    2.9650   17.1180 O.2   152  LEU152     -0.2867
    199  CB       112.9880    2.2670   14.6290 C.3   152  LEU152      0.0270
    200  CG       112.6140    1.2270   13.5710 C.3   152  LEU152      0.0019
    201  CD1      111.1690    0.8210   13.7300 C.3   152  LEU152      0.0001
    202  CD2      112.9430    1.6840   12.1260 C.3   152  LEU152      0.0001
@<TRIPOS>BOND
     1    84    83    1
     2    84    85    1
     3    83    82    1
     4    82    79    1
     5    85    86    2
     6    79    80    1
     7    79    78    1
     8    80    89   am
     9    80    81    2
    10    89    90    1
    11    90    91    1
    12    87    86    1
    13   165   164    2
    14    86    88    1
    15   162   163    1
    16   164   163    1
    17   163   166    1
    18    92    91    2
    19    91    93   am
    20    78    73   am
    21    74    73    2
    22    73    72    1
    23   181   179   ar
    24   181   183   ar
    25    93    94    1
    26   179   178   ar
    27   160   159    2
    28   166   167    1
    29   159   158    1
    30   168   167   ar
    31   168   170   ar
    32   167   169   ar
    33   184   183    1
    34   183   182   ar
    35   170   172   ar
    36    31    30    1
    37    72    71    1
    38    72    75    1
    39   178   177    1
    40   178   180   ar
    41   169   171   ar
    42   177   174    1
    43    94    95    1
    44    71    69   am
    45   172   171   ar
    46   175   174    1
    47   175   176    2
    48   157   158    1
    49    69    70    2
    50    69    68    1
    51   158   161    1
    52   174   173    1
    53   182   180   ar
    54    68    67    1
    55    75    76    1
    56    75    77    1
    57    36    33    1
    58    30    28   ar
    59    30    29   ar
    60    95    96    2
    61    95    97   am
    62    28    26   ar
    63    67    58   am
    64    29    27   ar
    65    97    98    1
    66    33    34    1
    67    33    32    1
    68   185   186    1
    69    26    25   ar
    70    59    58    2
    71    34    35    2
    72   189   186    1
    73    58    57    1
    74   186   187    1
    75   101    98    1
    76   101   102    1
    77    32    22   am
    78    27    25   ar
    79    98    99    1
    80    25    24    1
    81   103   102   ar
    82   156   155    1
    83   102   104   ar
    84    57    56    1
    85    57    60    1
    86    16    15    2
    87   187   188    2
    88   100    99    2
    89    22    23    2
    90    22    21    1
    91    99   105   am
    92   155   152    1
    93    54    53    1
    94    61    60    1
    95    61    62    1
    96    66    64    1
    97    24    21    1
    98    20    21    1
    99    15    14    1
   100    65    64    1
   101    64    63    2
   102   105   106    1
   103    63    62    1
   104    53    55    1
   105    53    52    2
   106     4     3    2
   107    51    52    1
   108    51    50    1
   109   152   151    1
   110   152   153    1
   111    41    38    1
   112    41    42    1
   113    39    40    2
   114    39    38    1
   115   142   143    1
   116   142   139    1
   117    44    42   am
   118   141   140    2
   119    14    13    1
   120    14    17    1
   121   151   146   am
   122   154   153    2
   123    19    17    1
   124    49    50    1
   125    49    46    1
   126    37    38    1
   127     3    13   am
   128     3     2    1
   129   106   107    1
   130   106   109    1
   131    42    43    2
   132   146   147    2
   133   146   145    1
   134   140   139    1
   135   140   144   am
   136    17    18    1
   137   190   191    1
   138   194   191    1
   139   107   108    2
   140   145   144    1
   141   145   148    1
   142    47    48    2
   143    47    46    1
   144   139   138    1
   145   117   115   ar
   146   191   192    1
   147    46    45    1
   148     2     1    1
   149     2     5    1
   150    12    11    1
   151    11    10   ar
   152    11     9   ar
   153    10     8   ar
   154   116   115   ar
   155   148   150    1
   156   148   149    1
   157   129   128    2
   158     9     7   ar
   159   115   114    1
   160     8     6   ar
   161     7     6   ar
   162     6     5    1
   163   202   200    1
   164   192   193    2
   165   128   127    1
   166   114   111    1
   167   126   127    1
   168   200   201    1
   169   200   199    1
   170   127   130    1
   171   111   112    1
   172   111   110    1
   173   130   131    1
   174   118   112   am
   175   118   119    1
   176   125   123   ar
   177   122   119    1
   178   122   123    1
   179   112   113    2
   180   120   119    1
   181   120   121    2
   182   199   196    1
   183   132   131   ar
   184   132   134   ar
   185   195   196    1
   186   196   197    1
   187   123   124   ar
   188   131   133   ar
   189   134   136   ar
   190   197   198    2
   191   133   135   ar
   192   136   135   ar
   193   136   137    1
