@<TRIPOS>MOLECULE
tmp/6gnnB00.pdb
 177 171 0 0 0
SMALL
GASTEIGER

@<TRIPOS>ATOM
      1  N        131.0890   53.9320   68.4080 N.3    39  TYR39      -0.1227
      2  CA       131.5020   55.2110   68.9700 C.3    39  TYR39       0.1736
      3  C        132.5790   54.9780   70.0200 C.2    39  TYR39       0.2596
      4  O        133.7700   55.0000   69.6910 O.2    39  TYR39      -0.2718
      5  CB       130.3030   55.9520   69.5700 C.3    39  TYR39       0.0548
      6  CG       130.6240   57.3060   70.1790 C.ar   39  TYR39      -0.0200
      7  CD1      130.5870   58.4600   69.4110 C.ar   39  TYR39      -0.0009
      8  CD2      130.9250   57.4350   71.5250 C.ar   39  TYR39      -0.0009
      9  CE1      130.8790   59.7000   69.9590 C.ar   39  TYR39       0.0417
     10  CE2      131.2120   58.6650   72.0770 C.ar   39  TYR39       0.0417
     11  CZ       131.1890   59.7950   71.2950 C.ar   39  TYR39       0.1957
     12  OH       131.4760   61.0220   71.8560 O.3    39  TYR39      -0.2866
     13  N        132.1520   54.7260   71.2640 N.am   40  THR40      -0.1939
     14  CA       132.9810   54.5040   72.4490 C.3    40  THR40       0.2028
     15  C        134.4750   54.6140   72.1700 C.2    40  THR40       0.2642
     16  O        135.0810   55.6700   72.3790 O.2    40  THR40      -0.2714
     17  CB       132.6700   53.1310   73.0460 C.3    40  THR40       0.1808
     18  OG1      131.2830   52.8310   72.8610 O.3    40  THR40      -0.2208
     19  CG2      132.9730   53.1180   74.5270 C.3    40  THR40       0.0379
     20  N        135.0670   53.5230   71.6900 N.am   41  ASN41      -0.1971
     21  CA       136.3890   53.5330   71.0820 C.3    41  ASN41       0.1688
     22  C        136.3900   52.5500   69.9230 C.2    41  ASN41       0.2292
     23  O        135.9160   51.4200   70.0620 O.2    41  ASN41      -0.2864
     24  CB       137.4980   53.1740   72.0850 C.3    41  ASN41       0.1181
     25  CG       137.8920   54.3480   72.9650 C.2    41  ASN41       0.2629
     26  OD1      137.9130   54.2440   74.1890 O.2    41  ASN41      -0.2716
     27  ND2      138.2080   55.4770   72.3370 N.am   41  ASN41      -0.0877
     28  N        134.8410   57.3560   66.6810 N.3    44  TYR44      -0.1227
     29  CA       134.0140   58.3540   67.3450 C.3    44  TYR44       0.1736
     30  C        134.6240   59.7500   67.2940 C.2    44  TYR44       0.2595
     31  O        133.8890   60.7440   67.3020 O.2    44  TYR44      -0.2718
     32  CB       133.7700   57.9530   68.7990 C.3    44  TYR44       0.0548
     33  CG       134.8500   58.3920   69.7550 C.ar   44  TYR44      -0.0200
     34  CD1      136.1350   57.8710   69.6720 C.ar   44  TYR44      -0.0009
     35  CD2      134.5920   59.3450   70.7290 C.ar   44  TYR44      -0.0009
     36  CE1      137.1270   58.2790   70.5400 C.ar   44  TYR44       0.0417
     37  CE2      135.5770   59.7610   71.5990 C.ar   44  TYR44       0.0417
     38  CZ       136.8430   59.2250   71.5000 C.ar   44  TYR44       0.1957
     39  OH       137.8330   59.6320   72.3650 O.3    44  TYR44      -0.2866
     40  N        135.9600   59.8350   67.2630 N.am   45  GLN45      -0.1979
     41  CA       136.6300   61.1350   67.2390 C.3    45  GLN45       0.1601
     42  C        136.1050   62.0020   66.1050 C.2    45  GLN45       0.2287
     43  O        135.9270   63.2150   66.2670 O.2    45  GLN45      -0.2864
     44  CB       138.1450   60.9390   67.1180 C.3    45  GLN45       0.0394
     45  CG       139.0000   61.6530   68.1810 C.3    45  GLN45       0.0908
     46  CD       138.9950   63.1760   68.0990 C.2    45  GLN45       0.2608
     47  OE1      138.3520   63.7720   67.2330 O.2    45  GLN45      -0.2717
     48  NE2      139.7260   63.8130   69.0110 N.am   45  GLN45      -0.0878
     49  N        132.2350   63.3330   66.5600 N.3    48  ASN48      -0.1240
     50  CA       132.0860   64.6310   67.2040 C.3    48  ASN48       0.1653
     51  C        132.7750   65.7420   66.4200 C.2    48  ASN48       0.2266
     52  O        132.2570   66.8630   66.3630 O.2    48  ASN48      -0.2867
     53  CB       132.6250   64.5860   68.6390 C.3    48  ASN48       0.1155
     54  CG       132.0350   63.4490   69.4520 C.2    48  ASN48       0.2627
     55  OD1      130.9610   63.5860   70.0420 O.2    48  ASN48      -0.2716
     56  ND2      132.7380   62.3270   69.4980 N.am   48  ASN48      -0.0877
     57  N        130.3080   68.7480   65.9500 N.3    52  ARG52      -0.1245
     58  CA       130.8760   70.0790   66.0820 C.3    52  ARG52       0.1563
     59  C        131.2980   70.5900   64.7060 C.2    52  ARG52       0.2260
     60  O        131.4160   69.8290   63.7380 O.2    52  ARG52      -0.2867
     61  CB       132.0720   70.0550   67.0330 C.3    52  ARG52       0.0307
     62  CG       131.8020   69.3240   68.3330 C.3    52  ARG52       0.0489
     63  CD       133.0880   68.9940   69.0600 C.3    52  ARG52       0.2205
     64  NE       132.8360   68.3770   70.3580 N.pl3  52  ARG52      -0.0865
     65  CZ       133.7920   67.9540   71.1770 C.cat  52  ARG52       0.5346
     66  NH1      135.0670   68.0800   70.8330 N.pl3  52  ARG52       0.1354
     67  NH2      133.4760   67.4100   72.3430 N.pl3  52  ARG52       0.1354
     68  N        134.7520   61.7590   84.4180 N.3    85  PHE85      -0.1227
     69  CA       135.8680   62.6710   84.1960 C.3    85  PHE85       0.1736
     70  C        136.1430   62.7800   82.7000 C.2    85  PHE85       0.2595
     71  O        135.7510   61.9140   81.9150 O.2    85  PHE85      -0.2718
     72  CB       137.1400   62.2100   84.9180 C.3    85  PHE85       0.0547
     73  CG       136.9970   62.0890   86.4100 C.ar   85  PHE85      -0.0202
     74  CD1      137.2260   63.1820   87.2280 C.ar   85  PHE85      -0.0042
     75  CD2      136.6470   60.8830   86.9960 C.ar   85  PHE85      -0.0042
     76  CE1      137.1010   63.0790   88.6040 C.ar   85  PHE85      -0.0003
     77  CE2      136.5190   60.7740   88.3740 C.ar   85  PHE85      -0.0003
     78  CZ       136.7480   61.8760   89.1760 C.ar   85  PHE85      -0.0000
     79  N        136.8440   63.8520   82.3160 N.am   86  ARG86      -0.1966
     80  CA       137.1590   64.1060   80.9130 C.3    86  ARG86       0.1729
     81  C        138.2230   65.1880   80.7550 C.2    86  ARG86       0.2617
     82  O        138.0440   66.3220   81.2120 O.2    86  ARG86      -0.2715
     83  CB       135.8920   64.4910   80.1440 C.3    86  ARG86       0.0348
     84  CG       136.1300   64.9880   78.7280 C.3    86  ARG86       0.0492
     85  CD       134.8670   64.8850   77.8850 C.3    86  ARG86       0.2205
     86  NE       135.0510   65.4090   76.5340 N.pl3  86  ARG86      -0.0865
     87  CZ       134.8640   66.6830   76.2030 C.cat  86  ARG86       0.5346
     88  NH1      134.4910   67.5540   77.1280 N.pl3  86  ARG86       0.1354
     89  NH2      135.0520   67.0910   74.9550 N.pl3  86  ARG86       0.1354
     90  N        139.3330   64.8460   80.1000 N.am   87  GLY87      -0.1940
     91  CA       140.3730   65.8110   79.7900 C.3    87  GLY87       0.2014
     92  C        140.5090   66.0220   78.2970 C.2    87  GLY87       0.2639
     93  O        140.0690   65.1760   77.5120 O.2    87  GLY87      -0.2714
     94  N        141.1170   67.1340   77.8860 N.am   88  THR88      -0.1950
     95  CA       141.1960   67.4820   76.4730 C.3    88  THR88       0.1897
     96  C        142.5190   68.1650   76.1620 C.2    88  THR88       0.2313
     97  O        143.2710   68.5630   77.0540 O.2    88  THR88      -0.2863
     98  CB       140.0400   68.3970   76.0500 C.3    88  THR88       0.1794
     99  OG1      139.7530   69.3220   77.1060 O.3    88  THR88      -0.2208
    100  CG2      138.7940   67.5760   75.7240 C.3    88  THR88       0.0378
    101  N        128.9020   64.9260   71.3960 N.3   108  TYR108     -0.1241
    102  CA       128.5740   64.0840   72.5340 C.3   108  TYR108      0.1605
    103  C        129.5060   64.3670   73.7100 C.2   108  TYR108      0.2264
    104  O        130.2610   65.3410   73.7180 O.2   108  TYR108     -0.2867
    105  CB       128.6190   62.6150   72.1290 C.3   108  TYR108      0.0534
    106  CG       127.3720   62.1630   71.4160 C.ar  108  TYR108     -0.0201
    107  CD1      126.2810   61.6920   72.1280 C.ar  108  TYR108     -0.0009
    108  CD2      127.2870   62.1980   70.0300 C.ar  108  TYR108     -0.0009
    109  CE1      125.1370   61.2830   71.4870 C.ar  108  TYR108      0.0417
    110  CE2      126.1400   61.7840   69.3740 C.ar  108  TYR108      0.0417
    111  CZ       125.0700   61.3280   70.1100 C.ar  108  TYR108      0.1957
    112  OH       123.9210   60.9110   69.4790 O.3   108  TYR108     -0.2866
    113  N        131.6750   61.7770   75.7840 N.3   110  SER110     -0.1202
    114  CA       132.3580   60.5930   76.2930 C.3   110  SER110      0.2020
    115  C        133.1810   60.9410   77.5260 C.2   110  SER110      0.2619
    116  O        133.8730   61.9620   77.5560 O.2   110  SER110     -0.2717
    117  CB       133.2610   59.9970   75.2180 C.3   110  SER110      0.2103
    118  OG       132.5940   58.9830   74.5010 O.3   110  SER110     -0.2182
    119  N        133.1120   60.0850   78.5460 N.am  111  THR111     -0.1938
    120  CA       133.7660   60.3480   79.8210 C.3   111  THR111      0.2028
    121  C        134.3280   59.0540   80.4010 C.2   111  THR111      0.2642
    122  O        134.2380   57.9800   79.8000 O.2   111  THR111     -0.2714
    123  CB       132.8000   61.0000   80.8160 C.3   111  THR111      0.1808
    124  OG1      131.6070   60.2160   80.9090 O.3   111  THR111     -0.2208
    125  CG2      132.4480   62.4100   80.3860 C.3   111  THR111      0.0379
    126  N        134.9180   59.1770   81.5880 N.am  112  SER112     -0.1949
    127  CA       135.4800   58.0600   82.3310 C.3   112  SER112      0.1924
    128  C        135.3860   58.3760   83.8130 C.2   112  SER112      0.2314
    129  O        135.3840   59.5430   84.2090 O.2   112  SER112     -0.2863
    130  CB       136.9420   57.7980   81.9450 C.3   112  SER112      0.2116
    131  OG       137.6840   57.2910   83.0410 O.3   112  SER112     -0.2180
    132  N        142.8220   58.0220   83.4730 N.3   117  VAL117     -0.1231
    133  CA       142.4050   58.3910   82.1240 C.3   117  VAL117      0.1692
    134  C        141.9080   59.8220   82.0920 C.2   117  VAL117      0.2591
    135  O        141.8690   60.4460   81.0270 O.2   117  VAL117     -0.2718
    136  CB       141.3250   57.4170   81.6130 C.3   117  VAL117      0.0266
    137  CG1      141.0460   57.6410   80.1400 C.3   117  VAL117      0.0020
    138  CG2      141.7560   55.9810   81.8610 C.3   117  VAL117      0.0020
    139  N        141.5290   60.3610   83.2510 N.am  118  ALA118     -0.1980
    140  CA       141.1870   61.7730   83.3440 C.3   118  ALA118      0.1597
    141  C        142.4040   62.6520   83.0750 C.2   118  ALA118      0.2287
    142  O        142.3210   63.6410   82.3370 O.2   118  ALA118     -0.2864
    143  CB       140.6000   62.0730   84.7200 C.3   118  ALA118      0.0319
    144  N        143.7920   62.1880   78.5050 N.3   121  PHE121     -0.1227
    145  CA       143.3380   61.4450   77.3430 C.3   121  PHE121      0.1736
    146  C        143.4540   62.3390   76.1110 C.2   121  PHE121      0.2595
    147  O        142.4770   62.6420   75.4330 O.2   121  PHE121     -0.2718
    148  CB       141.9080   60.9460   77.5300 C.3   121  PHE121      0.0547
    149  CG       141.4610   60.0300   76.4420 C.ar  121  PHE121     -0.0202
    150  CD1      141.6250   58.6630   76.5660 C.ar  121  PHE121     -0.0042
    151  CD2      140.9280   60.5330   75.2700 C.ar  121  PHE121     -0.0042
    152  CE1      141.2210   57.8120   75.5610 C.ar  121  PHE121     -0.0003
    153  CE2      140.5280   59.6890   74.2600 C.ar  121  PHE121     -0.0003
    154  CZ       140.6730   58.3280   74.4050 C.ar  121  PHE121     -0.0000
    155  N        144.6790   62.7810   75.8260 N.am  122  ALA122     -0.1980
    156  CA       145.0230   63.5270   74.6190 C.3   122  ALA122      0.1597
    157  C        144.1500   64.7620   74.4230 C.2   122  ALA122      0.2287
    158  O        143.1300   64.7090   73.7220 O.2   122  ALA122     -0.2864
    159  CB       144.9330   62.6220   73.3870 C.3   122  ALA122      0.0319
    160  N        138.8010   51.8070   80.7700 N.3   147  GLU147     -0.1245
    161  CA       138.3790   53.1760   81.0330 C.3   147  GLU147      0.1567
    162  C        137.0490   53.2630   81.7750 C.2   147  GLU147      0.2260
    163  O        136.7540   54.3120   82.3590 O.2   147  GLU147     -0.2867
    164  CB       138.2930   53.9610   79.7150 C.3   147  GLU147      0.0388
    165  CG       139.6550   54.2840   79.0680 C.3   147  GLU147      0.1160
    166  CD       139.5660   54.5470   77.5620 C.2   147  GLU147      0.3649
    167  OE1      138.4370   54.6530   77.0390 O.co2 147  GLU147     -0.2457
    168  OE2      140.6260   54.6350   76.9000 O.co2 147  GLU147     -0.2457
    169  N        133.5830   53.4490   80.9190 N.3   149  GLU149     -0.1245
    170  CA       133.0560   54.6900   80.3720 C.3   149  GLU149      0.1567
    171  C        131.5660   54.8520   80.6460 C.2   149  GLU149      0.2260
    172  O        130.8130   53.8780   80.7380 O.2   149  GLU149     -0.2867
    173  CB       133.2980   54.7560   78.8620 C.3   149  GLU149      0.0388
    174  CG       134.6760   54.2700   78.4270 C.3   149  GLU149      0.1160
    175  CD       134.9010   54.3930   76.9270 C.2   149  GLU149      0.3649
    176  OE1      134.4380   55.3900   76.3270 O.co2 149  GLU149     -0.2457
    177  OE2      135.5320   53.4840   76.3430 O.co2 149  GLU149     -0.2457
@<TRIPOS>BOND
     1    60    59    2
     2    59    58    1
     3    57    58    1
     4    58    61    1
     5    42    43    2
     6    42    41    1
     7    52    51    2
     8    51    50    1
     9    49    50    1
    10    28    29    1
    11    61    62    1
    12    44    41    1
    13    44    45    1
    14    50    53    1
    15    47    46    2
    16    41    40    1
    17    40    30   am
    18    30    31    2
    19    30    29    1
    20    29    32    1
    21    46    45    1
    22    46    48   am
    23    62    63    1
    24     1     2    1
    25    53    54    1
    26    32    33    1
    27     2     5    1
    28     2     3    1
    29    63    64    1
    30   110   108   ar
    31   110   111   ar
    32     7     9   ar
    33     7     6   ar
    34    54    56   am
    35    54    55    2
    36   112   111    1
    37     5     6    1
    38    34    33   ar
    39    34    36   ar
    40     4     3    2
    41    33    35   ar
    42    22    23    2
    43    22    21    1
    44     9    11   ar
    45     3    13   am
    46   108   106   ar
    47   111   109   ar
    48     6     8   ar
    49    64    65    2
    50    36    38   ar
    51    35    37   ar
    52    66    65    1
    53    21    20    1
    54    21    24    1
    55    65    67    1
    56    13    14    1
    57    11    12    1
    58    11    10   ar
    59   101   102    1
    60   106   107   ar
    61   106   105    1
    62   109   107   ar
    63    38    37   ar
    64    38    39    1
    65     8    10   ar
    66    20    15   am
    67    24    25    1
    68   105   102    1
    69    15    16    2
    70    15    14    1
    71    27    25   am
    72    14    17    1
    73   102   103    1
    74    18    17    1
    75    25    26    2
    76    17    19    1
    77   159   156    1
    78   103   104    2
    79   158   157    2
    80   153   154   ar
    81   153   151   ar
    82   154   152   ar
    83   157   156    1
    84   118   117    1
    85   156   155    1
    86    89    87    1
    87   117   114    1
    88   151   149   ar
    89   147   146    2
    90   152   150   ar
    91   100    98    1
    92   113   114    1
    93   155   146   am
    94    98    95    1
    95    98    99    1
    96   146   145    1
    97    96    95    1
    98    96    97    2
    99    87    86    2
   100    87    88    1
   101   114   115    1
   102   176   175   ar
   103   177   175   ar
   104   149   150   ar
   105   149   148    1
   106    95    94    1
   107    86    85    1
   108   168   166   ar
   109   175   174    1
   110   167   166   ar
   111   145   148    1
   112   145   144    1
   113    93    92    2
   114   115   116    2
   115   115   119   am
   116   166   165    1
   117    85    84    1
   118    94    92   am
   119    92    91    1
   120   174   173    1
   121   119   120    1
   122    84    83    1
   123   173   170    1
   124   165   164    1
   125   164   161    1
   126    91    90    1
   127   122   121    2
   128   120   121    1
   129   120   123    1
   130    90    81   am
   131   137   136    1
   132    83    80    1
   133   170   171    1
   134   170   169    1
   135   125   123    1
   136   121   126   am
   137   171   172    2
   138    81    80    1
   139    81    82    2
   140   160   161    1
   141   123   124    1
   142    80    79    1
   143   135   134    2
   144   161   162    1
   145   126   127    1
   146   136   138    1
   147   136   133    1
   148   162   163    2
   149    71    70    2
   150   130   127    1
   151   130   131    1
   152   134   133    1
   153   134   139   am
   154   133   132    1
   155    79    70   am
   156   127   128    1
   157   142   141    2
   158    70    69    1
   159   141   140    1
   160   139   140    1
   161   140   143    1
   162   128   129    2
   163    69    68    1
   164    69    72    1
   165    72    73    1
   166    73    75   ar
   167    73    74   ar
   168    75    77   ar
   169    74    76   ar
   170    77    78   ar
   171    76    78   ar
