@<TRIPOS>MOLECULE
tmp/6gnrB00.pdb
 75 67 0 0 0
SMALL
GASTEIGER

@<TRIPOS>ATOM
      1  N         21.2790   23.2460   -2.0620 N.3     6  LYS6       -0.1245
      2  CA        20.7070   23.6940   -0.7910 C.3     6  LYS6        0.1561
      3  C         20.1730   22.4600   -0.0890 C.2     6  LYS6        0.2260
      4  O         19.1810   21.8760   -0.5290 O.2     6  LYS6       -0.2867
      5  CB        19.5920   24.7300   -0.9880 C.3     6  LYS6        0.0271
      6  CG        19.0090   25.2820    0.2990 C.3     6  LYS6        0.0035
      7  CD        19.9760   26.1790    1.0350 C.3     6  LYS6        0.0206
      8  CE        19.3670   26.7230    2.3230 C.3     6  LYS6        0.1093
      9  NZ        20.2560   27.7360    2.9660 N.3     6  LYS6       -0.1314
     10  N         18.8020   20.6200    3.4020 N.3     8  LEU8       -0.1245
     11  CA        18.1420   20.7810    4.6930 C.3     8  LEU8        0.1561
     12  C         17.9860   19.4430    5.4060 C.2     8  LEU8        0.2260
     13  O         17.8420   18.3860    4.7860 O.2     8  LEU8       -0.2867
     14  CB        16.7490   21.3980    4.5240 C.3     8  LEU8        0.0270
     15  CG        16.6680   22.7510    3.8260 C.3     8  LEU8        0.0019
     16  CD1       15.2160   23.1910    3.7270 C.3     8  LEU8        0.0001
     17  CD2       17.5040   23.8110    4.5220 C.3     8  LEU8        0.0001
     18  N         25.0580   24.8780    1.7910 N.3    45  GLU45      -0.1245
     19  CA        25.4010   25.3400    0.4580 C.3    45  GLU45       0.1567
     20  C         26.8780   25.0900    0.1770 C.2    45  GLU45       0.2260
     21  O         27.6830   24.8660    1.0810 O.2    45  GLU45      -0.2867
     22  CB        25.1100   26.8510    0.3270 C.3    45  GLU45       0.0388
     23  CG        23.6510   27.1890    0.5880 C.3    45  GLU45       0.1160
     24  CD        23.3460   28.6750    0.5530 C.2    45  GLU45       0.3649
     25  OE1       22.2760   29.0480    1.0930 O.co2  45  GLU45      -0.2457
     26  OE2       24.1470   29.4570   -0.0180 O.co2  45  GLU45      -0.2457
     27  N         19.9550   24.9900   -9.1630 N.3    97  THR97      -0.1218
     28  CA        20.0880   24.7380   -7.7390 C.3    97  THR97       0.1862
     29  C         19.4150   23.4180   -7.4150 C.2    97  THR97       0.2287
     30  O         18.2210   23.2370   -7.6750 O.2    97  THR97      -0.2866
     31  CB        19.4590   25.8620   -6.9230 C.3    97  THR97       0.1770
     32  OG1       20.1100   27.0980   -7.2420 O.3    97  THR97      -0.2211
     33  CG2       19.6330   25.5740   -5.4240 C.3    97  THR97       0.0375
     34  N         17.9860   21.2930   -4.6700 N.3    99  ALA99      -0.1231
     35  CA        17.4730   21.3290   -3.3120 C.3    99  ALA99       0.1694
     36  C         17.2780   19.9040   -2.8230 C.2    99  ALA99       0.2592
     37  O         16.8020   19.0470   -3.5610 O.2    99  ALA99      -0.2718
     38  CB        16.1470   22.0860   -3.2700 C.3    99  ALA99       0.0304
     39  N         17.6580   19.6520   -1.5750 N.am  100  LEU100     -0.1966
     40  CA        17.6710   18.3020   -1.0260 C.3   100  LEU100      0.1728
     41  C         17.2460   18.3600    0.4310 C.2   100  LEU100      0.2616
     42  O         17.8280   19.1210    1.2120 O.2   100  LEU100     -0.2715
     43  CB        19.0710   17.7020   -1.1600 C.3   100  LEU100      0.0311
     44  CG        19.2820   16.2520   -0.7450 C.3   100  LEU100      0.0022
     45  CD1       18.4470   15.3000   -1.5590 C.3   100  LEU100      0.0001
     46  CD2       20.7570   15.8930   -0.8980 C.3   100  LEU100      0.0001
     47  N         16.2330   17.5650    0.7810 N.am  101  LEU101     -0.1977
     48  CA        15.6660   17.5100    2.1290 C.3   101  LEU101      0.1596
     49  C         15.8760   16.1090    2.6780 C.2   101  LEU101      0.2287
     50  O         15.3250   15.1470    2.1440 O.2   101  LEU101     -0.2864
     51  CB        14.1770   17.8580    2.0870 C.3   101  LEU101      0.0297
     52  CG        13.4580   17.8060    3.4210 C.3   101  LEU101      0.0022
     53  CD1       13.9850   18.8470    4.3960 C.3   101  LEU101      0.0001
     54  CD2       11.9760   18.0080    3.1530 C.3   101  LEU101      0.0001
     55  N         13.9320   14.0330   -0.2730 N.3   108  THR108     -0.1218
     56  CA        13.2180   14.7150   -1.3400 C.3   108  THR108      0.1862
     57  C         14.2230   15.5720   -2.0820 C.2   108  THR108      0.2287
     58  O         14.9820   16.3250   -1.4570 O.2   108  THR108     -0.2866
     59  CB        12.1100   15.5870   -0.7610 C.3   108  THR108      0.1770
     60  OG1       11.1360   14.7490   -0.1430 O.3   108  THR108     -0.2211
     61  CG2       11.4310   16.4300   -1.8270 C.3   108  THR108      0.0375
     62  N         14.5480   18.3220   -5.4350 N.3   110  THR110     -0.1218
     63  CA        13.9260   19.1410   -6.4680 C.3   110  THR110      0.1862
     64  C         14.9890   20.0630   -7.0490 C.2   110  THR110      0.2287
     65  O         16.1410   20.0910   -6.6040 O.2   110  THR110     -0.2866
     66  CB        12.6910   19.8980   -5.9390 C.3   110  THR110      0.1770
     67  OG1       11.9310   20.4580   -7.0270 O.3   110  THR110     -0.2211
     68  CG2       13.0730   21.0040   -4.9920 C.3   110  THR110      0.0375
     69  N         15.6420   24.1010   -8.8060 N.3   112  VAL112     -0.1245
     70  CA        15.2560   25.4450   -9.2020 C.3   112  VAL112      0.1561
     71  C         16.1760   25.8320  -10.3500 C.2   112  VAL112      0.2260
     72  O         17.4040   25.8590  -10.1890 O.2   112  VAL112     -0.2867
     73  CB        15.3930   26.4410   -8.0430 C.3   112  VAL112      0.0252
     74  CG1       15.0000   27.8470   -8.4900 C.3   112  VAL112      0.0019
     75  CG2       14.5330   25.9890   -6.8750 C.3   112  VAL112      0.0019
@<TRIPOS>BOND
     1    71    72    2
     2    71    70    1
     3    70    69    1
     4    70    73    1
     5    27    28    1
     6    74    73    1
     7    73    75    1
     8    28    29    1
     9    28    31    1
    10    30    29    2
    11    32    31    1
    12    64    65    2
    13    64    63    1
    14    67    66    1
    15    31    33    1
    16    63    66    1
    17    63    62    1
    18    66    68    1
    19    34    35    1
    20    37    36    2
    21    35    38    1
    22    35    36    1
    23    36    39   am
    24    57    58    2
    25    57    56    1
    26     1     2    1
    27    61    59    1
    28    39    40    1
    29    45    44    1
    30    56    59    1
    31    56    55    1
    32    43    40    1
    33    43    44    1
    34    40    41    1
    35     5     2    1
    36     5     6    1
    37    46    44    1
    38     2     3    1
    39    59    60    1
    40     4     3    2
    41    26    24   ar
    42    20    19    1
    43    20    21    2
    44     6     7    1
    45    22    19    1
    46    22    23    1
    47    41    47   am
    48    41    42    2
    49    19    18    1
    50    24    23    1
    51    24    25   ar
    52    47    48    1
    53     7     8    1
    54    51    48    1
    55    51    52    1
    56    48    49    1
    57    50    49    2
    58     8     9    1
    59    54    52    1
    60    10    11    1
    61    52    53    1
    62    16    15    1
    63    15    17    1
    64    15    14    1
    65    14    11    1
    66    11    12    1
    67    13    12    2
