@<TRIPOS>MOLECULE
tmp/6gnsA01.pdb
 242 233 0 0 0
SMALL
GASTEIGER

@<TRIPOS>ATOM
      1  N         28.0960   -6.6680   17.3350 N.3    70  TYR70      -0.1227
      2  CA        27.6430   -6.0840   16.1050 C.3    70  TYR70       0.1736
      3  C         28.4570   -4.7900   15.7400 C.2    70  TYR70       0.2595
      4  O         29.5780   -4.5520   16.2740 O.2    70  TYR70      -0.2718
      5  CB        26.1070   -5.9640   16.1010 C.3    70  TYR70       0.0548
      6  CG        25.4530   -5.7150   14.7340 C.ar   70  TYR70      -0.0200
      7  CD1       25.7100   -6.4870   13.6510 C.ar   70  TYR70      -0.0009
      8  CD2       24.5210   -4.6580   14.5790 C.ar   70  TYR70      -0.0009
      9  CE1       25.0840   -6.2590   12.4270 C.ar   70  TYR70       0.0417
     10  CE2       23.9210   -4.3860   13.3610 C.ar   70  TYR70       0.0417
     11  CZ        24.1890   -5.2070   12.2790 C.ar   70  TYR70       0.1957
     12  OH        23.6210   -4.9350   11.0330 O.3    70  TYR70      -0.2866
     13  N         27.9030   -3.9710   14.8620 N.am   71  VAL71      -0.1966
     14  CA        28.6130   -2.8320   14.2320 C.3    71  VAL71       0.1727
     15  C         29.1330   -1.8120   15.2390 C.2    71  VAL71       0.2616
     16  O         28.3990   -1.3510   16.1300 O.2    71  VAL71      -0.2715
     17  CB        27.7450   -2.1080   13.1680 C.3    71  VAL71       0.0290
     18  CG1       28.5420   -1.0030   12.5600 C.3    71  VAL71       0.0023
     19  CG2       27.2950   -3.0830   12.0740 C.3    71  VAL71       0.0023
     20  N         30.4180   -1.5110   15.1080 N.am   72  GLU72      -0.1963
     21  CA        31.0550   -0.4480   15.8620 C.3    72  GLU72       0.1733
     22  C         31.4130    0.6930   14.9240 C.2    72  GLU72       0.2616
     23  O         31.6080    0.4620   13.7230 O.2    72  GLU72      -0.2715
     24  CB        32.3380   -0.9490   16.5450 C.3    72  GLU72       0.0429
     25  CG        32.0150   -1.9360   17.6200 C.3    72  GLU72       0.1163
     26  CD        33.2220   -2.6310   18.2430 C.2    72  GLU72       0.3649
     27  OE1       32.9840   -3.6190   18.9900 O.co2  72  GLU72      -0.2457
     28  OE2       34.3720   -2.1580   18.0160 O.co2  72  GLU72      -0.2457
     29  N         31.5040    1.9080   15.4470 N.am   73  ASP73      -0.1957
     30  CA        31.9760    2.9800   14.5900 C.3    73  ASP73       0.1840
     31  C         33.4940    2.8420   14.3170 C.2    73  ASP73       0.2622
     32  O         34.1370    2.0150   14.9210 O.2    73  ASP73      -0.2715
     33  CB        31.6680    4.3070   15.2340 C.3    73  ASP73       0.1450
     34  CG        32.6150    4.5750   16.3540 C.2    73  ASP73       0.3671
     35  OD1       32.5960    3.7540   17.2890 O.co2  73  ASP73      -0.2456
     36  OD2       33.4650    5.5050   16.2410 O.co2  73  ASP73      -0.2456
     37  N         34.0470    3.5850   13.3760 N.am   74  ASP74      -0.1971
     38  CA        35.4880    3.3990   13.0190 C.3    74  ASP74       0.1709
     39  C         36.4430    3.5070   14.2100 C.2    74  ASP74       0.2293
     40  O         37.4340    2.7980   14.2490 O.2    74  ASP74      -0.2864
     41  CB        35.9180    4.3910   11.9230 C.3    74  ASP74       0.1436
     42  CG        35.2640    4.0950   10.5420 C.2    74  ASP74       0.3671
     43  OD1       35.4650    4.8680    9.5590 O.co2  74  ASP74      -0.2456
     44  OD2       34.5600    3.0650   10.4220 O.co2  74  ASP74      -0.2456
     45  N         31.4640    3.5270   19.9320 N.3    78  PHE78      -0.1241
     46  CA        30.0340    3.0790   19.9980 C.3    78  PHE78       0.1605
     47  C         29.7910    1.7510   19.3470 C.2    78  PHE78       0.2264
     48  O         30.3850    1.4640   18.3470 O.2    78  PHE78      -0.2867
     49  CB        29.1220    4.0910   19.2860 C.3    78  PHE78       0.0534
     50  CG        29.2180    5.4890   19.8210 C.ar   78  PHE78      -0.0203
     51  CD1       28.6610    5.8060   21.0370 C.ar   78  PHE78      -0.0042
     52  CD2       29.8350    6.4930   19.0830 C.ar   78  PHE78      -0.0042
     53  CE1       28.6950    7.1240   21.5250 C.ar   78  PHE78      -0.0003
     54  CE2       29.9160    7.8190   19.5890 C.ar   78  PHE78      -0.0003
     55  CZ        29.3490    8.1280   20.8140 C.ar   78  PHE78      -0.0000
     56  N         26.2660   -0.5490   18.2010 N.3    80  PHE80      -0.1241
     57  CA        24.7680   -0.5860   18.2620 C.3    80  PHE80       0.1605
     58  C         24.3210   -1.5750   19.3190 C.2    80  PHE80       0.2264
     59  O         24.9140   -2.6510   19.4770 O.2    80  PHE80      -0.2867
     60  CB        24.1600   -1.0360   16.9400 C.3    80  PHE80       0.0534
     61  CG        24.3060   -0.0710   15.8110 C.ar   80  PHE80      -0.0203
     62  CD1       23.9230    1.2670   15.9320 C.ar   80  PHE80      -0.0042
     63  CD2       24.7610   -0.5240   14.5710 C.ar   80  PHE80      -0.0042
     64  CE1       24.0140    2.1280   14.8440 C.ar   80  PHE80      -0.0003
     65  CE2       24.8890    0.3430   13.4840 C.ar   80  PHE80      -0.0003
     66  CZ        24.4880    1.6850   13.6270 C.ar   80  PHE80      -0.0000
     67  N         20.7980   -2.8450   19.5460 N.3    82  TYR82      -0.1241
     68  CA        19.4020   -3.0150   19.1840 C.3    82  TYR82       0.1605
     69  C         18.6490   -3.7440   20.2840 C.2    82  TYR82       0.2264
     70  O         19.1040   -4.7820   20.8250 O.2    82  TYR82      -0.2867
     71  CB        19.2580   -3.7960   17.8890 C.3    82  TYR82       0.0534
     72  CG        19.6940   -3.0780   16.6010 C.ar   82  TYR82      -0.0201
     73  CD1       18.7790   -2.3550   15.8430 C.ar   82  TYR82      -0.0009
     74  CD2       20.9920   -3.1290   16.1430 C.ar   82  TYR82      -0.0009
     75  CE1       19.1460   -1.7130   14.6480 C.ar   82  TYR82       0.0417
     76  CE2       21.3760   -2.4900   14.9440 C.ar   82  TYR82       0.0417
     77  CZ        20.4490   -1.8110   14.1830 C.ar   82  TYR82       0.1957
     78  OH        20.8060   -1.1840   13.0060 O.3    82  TYR82      -0.2866
     79  N         18.4960   -7.8580    3.4170 N.3   156  ILE156     -0.1231
     80  CA        19.4280   -8.5480    4.3500 C.3   156  ILE156      0.1692
     81  C         19.9760   -7.5740    5.3730 C.2   156  ILE156      0.2592
     82  O         20.4230   -6.4590    5.0100 O.2   156  ILE156     -0.2718
     83  CB        20.6170   -9.1830    3.5950 C.3   156  ILE156      0.0266
     84  CG1       20.1720  -10.2390    2.5860 C.3   156  ILE156      0.0019
     85  CG2       21.6840   -9.7430    4.5540 C.3   156  ILE156      0.0020
     86  CD1       19.5680  -11.4980    3.2420 C.3   156  ILE156      0.0001
     87  N         20.0440   -8.0130    6.6220 N.am  157  ASN157     -0.1974
     88  CA        20.5290   -7.1490    7.7090 C.3   157  ASN157      0.1688
     89  C         21.0820   -8.0530    8.8190 C.2   157  ASN157      0.2292
     90  O         20.8970   -9.2540    8.7800 O.2   157  ASN157     -0.2864
     91  CB        19.3410   -6.3340    8.2440 C.3   157  ASN157      0.1181
     92  CG        19.7260   -5.0330    8.9210 C.2   157  ASN157      0.2629
     93  OD1       20.8840   -4.7590    9.2410 O.2   157  ASN157     -0.2716
     94  ND2       18.7020   -4.1960    9.1360 N.am  157  ASN157     -0.0877
     95  N         22.5730   -2.8650    2.9210 N.3   193  THR193     -0.1203
     96  CA        23.4190   -1.6920    3.1840 C.3   193  THR193      0.1994
     97  C         24.5470   -2.0660    4.1270 C.2   193  THR193      0.2618
     98  O         24.4790   -3.0610    4.8040 O.2   193  THR193     -0.2717
     99  CB        22.6580   -0.5150    3.7650 C.3   193  THR193      0.1784
    100  OG1       22.0860   -0.8490    5.0130 O.3   193  THR193     -0.2211
    101  CG2       21.5510    0.0410    2.8070 C.3   193  THR193      0.0376
    102  N         25.6370   -1.2920    4.0750 N.am  194  ALA194     -0.1965
    103  CA        26.7290   -1.4750    4.9680 C.3   194  ALA194      0.1728
    104  C         27.4720   -0.1370    5.1060 C.2   194  ALA194      0.2616
    105  O         27.3810    0.7350    4.2370 O.2   194  ALA194     -0.2715
    106  CB        27.6520   -2.5450    4.4360 C.3   194  ALA194      0.0334
    107  N         28.2080    0.0050    6.2060 N.am  195  GLY195     -0.1955
    108  CA        29.0630    1.1550    6.3430 C.3   195  GLY195      0.1869
    109  C         30.4190    0.9650    5.7190 C.2   195  GLY195      0.2309
    110  O         31.2450    1.9000    5.7420 O.2   195  GLY195     -0.2863
    111  N         26.2240    9.9360    6.9980 N.3   207  TYR207     -0.1241
    112  CA        25.4160   10.0850    8.1650 C.3   207  TYR207      0.1605
    113  C         25.4900   11.5290    8.6640 C.2   207  TYR207      0.2264
    114  O         26.5060   12.1400    8.5830 O.2   207  TYR207     -0.2867
    115  CB        25.8220    9.1520    9.3140 C.3   207  TYR207      0.0534
    116  CG        25.2120    7.7590    9.2210 C.ar  207  TYR207     -0.0201
    117  CD1       24.0400    7.4620    9.8370 C.ar  207  TYR207     -0.0009
    118  CD2       25.8720    6.7150    8.5160 C.ar  207  TYR207     -0.0009
    119  CE1       23.4680    6.2060    9.7750 C.ar  207  TYR207      0.0417
    120  CE2       25.3150    5.4590    8.4490 C.ar  207  TYR207      0.0417
    121  CZ        24.1000    5.2250    9.0600 C.ar  207  TYR207      0.1957
    122  OH        23.5050    3.9930    8.9560 O.3   207  TYR207     -0.2866
    123  N         24.0800   13.9250   12.1620 N.3   209  HIS209     -0.1241
    124  CA        23.5150   13.8780   13.4700 C.3   209  HIS209      0.1621
    125  C         23.1700   15.2510   14.0610 C.2   209  HIS209      0.2264
    126  O         23.7580   16.2860   13.6920 O.2   209  HIS209     -0.2867
    127  CB        24.4990   13.1030   14.3740 C.3   209  HIS209      0.0745
    128  CG        25.8410   13.7160   14.4100 C.ar  209  HIS209      0.0817
    129  ND1       26.8870   13.2600   13.6390 N.ar  209  HIS209     -0.2268
    130  CD2       26.3210   14.7770   15.1050 C.ar  209  HIS209      0.1154
    131  CE1       27.9680   13.9870   13.8780 C.ar  209  HIS209      0.1986
    132  NE2       27.6460   14.9250   14.7470 N.ar  209  HIS209     -0.2212
    133  N         26.6260   14.4330   25.3430 N.3   217  LEU217     -0.1245
    134  CA        27.4910   14.1130   24.2080 C.3   217  LEU217      0.1561
    135  C         28.9200   14.5990   24.4200 C.2   217  LEU217      0.2260
    136  O         29.8580   13.9350   23.9710 O.2   217  LEU217     -0.2867
    137  CB        26.9350   14.6570   22.8850 C.3   217  LEU217      0.0270
    138  CG        25.5390   14.1300   22.5140 C.3   217  LEU217      0.0019
    139  CD1       25.1720   14.6220   21.1130 C.3   217  LEU217      0.0001
    140  CD2       25.4930   12.6090   22.5820 C.3   217  LEU217      0.0001
    141  N         32.1410   12.3210   23.7020 N.3   221  ARG221     -0.1245
    142  CA        33.0280   12.4490   22.5400 C.3   221  ARG221      0.1563
    143  C         34.4990   12.7460   22.9180 C.2   221  ARG221      0.2260
    144  O         35.4010   12.1290   22.3850 O.2   221  ARG221     -0.2867
    145  CB        32.4750   13.4320   21.5070 C.3   221  ARG221      0.0307
    146  CG        31.2460   12.8800   20.8020 C.3   221  ARG221      0.0489
    147  CD        30.6630   13.8680   19.8000 C.3   221  ARG221      0.2205
    148  NE        31.3040   13.8230   18.4800 N.pl3 221  ARG221     -0.0865
    149  CZ        30.9080   14.5210   17.4140 C.cat 221  ARG221      0.5346
    150  NH1       29.8670   15.3450   17.4730 N.pl3 221  ARG221      0.1354
    151  NH2       31.5620   14.3970   16.2750 N.pl3 221  ARG221      0.1354
    152  N         23.0060    2.8730   21.5580 N.3   320  SER320     -0.1217
    153  CA        24.3630    2.3490   21.3460 C.3   320  SER320      0.1889
    154  C         25.0450    2.2170   22.6550 C.2   320  SER320      0.2288
    155  O         24.9690    3.1150   23.5140 O.2   320  SER320     -0.2866
    156  CB        25.1660    3.2460   20.4170 C.3   320  SER320      0.2089
    157  OG        24.7080    3.0590   19.0890 O.3   320  SER320     -0.2183
    158  N         23.9620    5.3950   24.7310 N.3   331  LEU331     -0.1245
    159  CA        23.5320    6.5720   24.0360 C.3   331  LEU331      0.1561
    160  C         22.1670    6.2880   23.4440 C.2   331  LEU331      0.2260
    161  O         22.0060    5.3200   22.7710 O.2   331  LEU331     -0.2867
    162  CB        24.5360    6.8940   22.9460 C.3   331  LEU331      0.0270
    163  CG        24.0370    7.9550   21.9720 C.3   331  LEU331      0.0019
    164  CD1       24.3140    9.3450   22.5030 C.3   331  LEU331      0.0001
    165  CD2       24.6900    7.6890   20.6250 C.3   331  LEU331      0.0001
    166  N         16.5120    7.6830   15.1270 N.3   335  TYR335     -0.1241
    167  CA        16.8090    7.6910   13.7210 C.3   335  TYR335      0.1605
    168  C         15.6040    8.1040   12.9070 C.2   335  TYR335      0.2264
    169  O         14.5400    7.5530   13.0790 O.2   335  TYR335     -0.2867
    170  CB        17.2620    6.3140   13.2650 C.3   335  TYR335      0.0534
    171  CG        18.6120    5.9940   13.7620 C.ar  335  TYR335     -0.0201
    172  CD1       19.6870    6.0060   12.9320 C.ar  335  TYR335     -0.0009
    173  CD2       18.8130    5.7290   15.1100 C.ar  335  TYR335     -0.0009
    174  CE1       20.9520    5.7490   13.4070 C.ar  335  TYR335      0.0417
    175  CE2       20.0840    5.4750   15.6230 C.ar  335  TYR335      0.0417
    176  CZ        21.1360    5.4590   14.7920 C.ar  335  TYR335      0.1957
    177  OH        22.3970    5.2770   15.3290 O.3   335  TYR335     -0.2866
    178  N         20.2840   12.2330   20.7810 N.3   364  VAL364     -0.1245
    179  CA        20.7840   12.6300   19.4860 C.3   364  VAL364      0.1561
    180  C         19.7850   12.0770   18.4930 C.2   364  VAL364      0.2260
    181  O         19.0970   11.0850   18.7960 O.2   364  VAL364     -0.2867
    182  CB        22.2010   12.0700   19.2440 C.3   364  VAL364      0.0252
    183  CG1       22.2110   10.5440   19.1260 C.3   364  VAL364      0.0019
    184  CG2       22.8530   12.7100   18.0300 C.3   364  VAL364      0.0019
    185  N         19.8100   10.9780   14.4550 N.3   366  ASN366     -0.1240
    186  CA        20.7190   10.5400   13.4290 C.3   366  ASN366      0.1653
    187  C         19.9340   10.2210   12.1520 C.2   366  ASN366      0.2266
    188  O         18.7390    9.8250   12.1960 O.2   366  ASN366     -0.2867
    189  CB        21.2950    9.1900   13.8800 C.3   366  ASN366      0.1155
    190  CG        22.7120    9.2270   14.2750 C.2   366  ASN366      0.2627
    191  OD1       23.5980    9.5210   13.4170 O.2   366  ASN366     -0.2716
    192  ND2       22.9980    8.6430   15.4590 N.am  366  ASN366     -0.0877
    193  N         28.5740   13.1860   10.1790 N.3   385  GLY385     -0.1210
    194  CA        29.3500   12.3060   11.0330 C.3   385  GLY385      0.1956
    195  C         30.5370   11.7480   10.2640 C.2   385  GLY385      0.2612
    196  O         30.8360   12.1880    9.1310 O.2   385  GLY385     -0.2717
    197  N         31.1810   10.7230   10.8090 N.am  386  ASP386     -0.1959
    198  CA        32.2420   10.0670   10.0220 C.3   386  ASP386      0.1840
    199  C         31.7360    8.8620    9.2820 C.2   386  ASP386      0.2623
    200  O         32.4350    8.3120    8.4640 O.2   386  ASP386     -0.2715
    201  CB        33.4840    9.7270   10.8400 C.3   386  ASP386      0.1450
    202  CG        33.1840    8.8840   12.0520 C.2   386  ASP386      0.3671
    203  OD1       34.0440    8.9140   12.9780 O.co2 386  ASP386     -0.2456
    204  OD2       32.1170    8.1930   12.1070 O.co2 386  ASP386     -0.2456
    205  N         30.5060    8.4750    9.5400 N.am  387  GLY387     -0.1940
    206  CA        29.9510    7.2700    8.8950 C.3   387  GLY387      0.2014
    207  C         29.4040    7.5460    7.4790 C.2   387  GLY387      0.2639
    208  O         29.0610    8.6890    7.1430 O.2   387  GLY387     -0.2714
    209  N         29.3550    6.4800    6.6600 N.am  388  HIS388     -0.1959
    210  CA        28.6410    6.5020    5.3900 C.3   388  HIS388      0.1787
    211  C         27.7710    5.2860    5.3390 C.2   388  HIS388      0.2620
    212  O         28.1230    4.2680    5.9320 O.2   388  HIS388     -0.2715
    213  CB        29.5810    6.4340    4.2310 C.3   388  HIS388      0.0785
    214  CG        30.4910    7.6090    4.1390 C.ar  388  HIS388      0.0821
    215  ND1       30.2730    8.6560    3.2600 N.ar  388  HIS388     -0.2267
    216  CD2       31.6090    7.9200    4.8200 C.ar  388  HIS388      0.1154
    217  CE1       31.2490    9.5300    3.3760 C.ar  388  HIS388      0.1986
    218  NE2       32.0570    9.1240    4.3360 N.ar  388  HIS388     -0.2212
    219  N         26.6420    5.3720    4.6430 N.am  389  LEU389     -0.1977
    220  CA        25.8600    4.1880    4.3630 C.3   389  LEU389      0.1596
    221  C         25.9170    3.9390    2.8800 C.2   389  LEU389      0.2287
    222  O         25.6230    4.8570    2.0620 O.2   389  LEU389     -0.2864
    223  CB        24.4170    4.3790    4.8400 C.3   389  LEU389      0.0297
    224  CG        23.5960    3.0800    4.8470 C.3   389  LEU389      0.0022
    225  CD1       24.2950    2.0200    5.6990 C.3   389  LEU389      0.0001
    226  CD2       22.1710    3.2970    5.2800 C.3   389  LEU389      0.0001
    227  N         16.8520    1.6520    5.8000 N.3   410  MET410     -0.1230
    228  CA        17.2110    0.3050    6.2980 C.3   410  MET410      0.1702
    229  C         17.5630    0.4190    7.7790 C.2   410  MET410      0.2592
    230  O         18.3930    1.2260    8.1690 O.2   410  MET410     -0.2718
    231  CB        18.3570   -0.2870    5.5200 C.3   410  MET410      0.0401
    232  CG        17.9180   -0.7410    4.1220 C.3   410  MET410      0.0596
    233  SD        18.7040   -2.2900    3.7570 S.3   410  MET410     -0.1393
    234  CE        18.7870   -2.1520    1.9700 C.3   410  MET410      0.0692
    235  N         16.8730   -0.3900    8.5670 N.am  411  LEU411     -0.1980
    236  CA        16.9060   -0.3240   10.0280 C.3   411  LEU411      0.1596
    237  C         18.2910   -0.7190   10.6450 C.2   411  LEU411      0.2287
    238  O         18.8520   -1.7960   10.3790 O.2   411  LEU411     -0.2864
    239  CB        15.7940   -1.2090   10.5650 C.3   411  LEU411      0.0297
    240  CG        14.3800   -0.8190   10.1700 C.3   411  LEU411      0.0022
    241  CD1       13.4030   -1.7860   10.7700 C.3   411  LEU411      0.0001
    242  CD2       14.0350    0.5750   10.6390 C.3   411  LEU411      0.0001
@<TRIPOS>BOND
     1   234   233    1
     2   222   221    2
     3    84    86    1
     4    84    83    1
     5   101    99    1
     6   221   220    1
     7    95    96    1
     8    96    99    1
     9    96    97    1
    10   215   217   ar
    11   215   214   ar
    12   217   218   ar
    13    79    80    1
    14    83    80    1
    15    83    85    1
    16   233   232    1
    17    99   100    1
    18   102    97   am
    19   102   103    1
    20   232   231    1
    21    97    98    2
    22   214   213    1
    23   214   216   ar
    24   213   210    1
    25   105   104    2
    26   218   216   ar
    27    80    81    1
    28   220   219    1
    29   220   223    1
    30   106   103    1
    31   219   211   am
    32   223   224    1
    33   224   226    1
    34   224   225    1
    35   103   104    1
    36    82    81    2
    37   104   107   am
    38   211   210    1
    39   211   212    2
    40    81    87   am
    41   210   209    1
    42   231   228    1
    43   109   110    2
    44   109   108    1
    45   227   228    1
    46   107   108    1
    47   228   229    1
    48    87    88    1
    49   209   207   am
    50   111   112    1
    51   208   207    2
    52   207   206    1
    53    88    91    1
    54    88    89    1
    55   229   230    2
    56   229   235   am
    57   112   113    1
    58   112   115    1
    59    91    92    1
    60   120   118   ar
    61   120   121   ar
    62   200   199    2
    63   118   116   ar
    64   235   236    1
    65   114   113    2
    66    90    89    2
    67   206   205    1
    68    92    94   am
    69    92    93    2
    70   122   121    1
    71   121   119   ar
    72   196   195    2
    73   116   115    1
    74   116   117   ar
    75   199   205   am
    76   199   198    1
    77    43    42   ar
    78   119   117   ar
    79   198   197    1
    80   198   201    1
    81   236   239    1
    82   236   237    1
    83   240   239    1
    84   240   242    1
    85   240   241    1
    86   193   194    1
    87   195   197   am
    88   195   194    1
    89   238   237    2
    90    44    42   ar
    91    42    41    1
    92   201   202    1
    93    12    11    1
    94    41    38    1
    95   202   204   ar
    96   202   203   ar
    97    19    17    1
    98   187   188    2
    99   187   186    1
   100   123   124    1
   101    11     9   ar
   102    11    10   ar
   103     9     7   ar
   104    18    17    1
   105   168   169    2
   106   168   167    1
   107   172   174   ar
   108   172   171   ar
   109    78    77    1
   110    38    37    1
   111    38    39    1
   112    17    14    1
   113   170   167    1
   114   170   171    1
   115    10     8   ar
   116    37    31   am
   117   174   176   ar
   118   191   190    2
   119   186   189    1
   120   186   185    1
   121   124   125    1
   122   124   127    1
   123    65    66   ar
   124    65    63   ar
   125    66    64   ar
   126   129   131   ar
   127   129   128   ar
   128     7     6   ar
   129   126   125    2
   130   167   166    1
   131    23    22    2
   132   171   173   ar
   133   131   132   ar
   134   189   190    1
   135    77    75   ar
   136    77    76   ar
   137    39    40    2
   138    14    13    1
   139    14    15    1
   140   190   192   am
   141    31    30    1
   142    31    32    2
   143   127   128    1
   144   128   130   ar
   145    63    61   ar
   146     8     6   ar
   147    30    33    1
   148    30    29    1
   149    75    73   ar
   150     6     5    1
   151   132   130   ar
   152   176   177    1
   153   176   175   ar
   154    64    62   ar
   155    13     3   am
   156    22    29   am
   157    22    21    1
   158    76    74   ar
   159    20    15   am
   160    20    21    1
   161   173   175   ar
   162    33    34    1
   163    15    16    2
   164     3     2    1
   165     3     4    2
   166    61    62   ar
   167    61    60    1
   168    73    72   ar
   169    21    24    1
   170     5     2    1
   171     2     1    1
   172    74    72   ar
   173    36    34   ar
   174   151   149    1
   175    34    35   ar
   176    24    25    1
   177    72    71    1
   178    60    57    1
   179   149   150    1
   180   149   148    2
   181    25    26    1
   182    71    68    1
   183    28    26   ar
   184   184   182    1
   185    56    57    1
   186    26    27   ar
   187    57    58    1
   188    48    47    2
   189   148   147    1
   190   180   181    2
   191   180   179    1
   192    52    54   ar
   193    52    50   ar
   194   157   156    1
   195   183   182    1
   196    68    67    1
   197    68    69    1
   198   182   179    1
   199    49    50    1
   200    49    46    1
   201    58    59    2
   202    47    46    1
   203   179   178    1
   204    54    55   ar
   205   147   146    1
   206    50    51   ar
   207    45    46    1
   208    69    70    2
   209   156   153    1
   210   165   163    1
   211   146   145    1
   212    55    53   ar
   213    51    53   ar
   214   139   138    1
   215   153   152    1
   216   153   154    1
   217   145   142    1
   218   163   164    1
   219   163   162    1
   220   144   143    2
   221   138   140    1
   222   138   137    1
   223   142   143    1
   224   142   141    1
   225   154   155    2
   226   161   160    2
   227   137   134    1
   228   162   159    1
   229   160   159    1
   230   136   135    2
   231   159   158    1
   232   134   135    1
   233   134   133    1
