@<TRIPOS>MOLECULE
tmp/6gokA00.pdb
 118 110 0 0 0
SMALL
GASTEIGER

@<TRIPOS>ATOM
      1  N         12.3590    4.6450   98.1570 N.3     2  GLU2       -0.1245
      2  CA        13.4930    3.7090   98.2740 C.3     2  GLU2        0.1567
      3  C         13.7760    3.1420   96.8680 C.2     2  GLU2        0.2260
      4  O         12.8440    2.7150   96.1620 O.2     2  GLU2       -0.2867
      5  CB        13.2250    2.5670   99.2770 C.3     2  GLU2        0.0388
      6  CG        14.4890    1.7590   99.6170 C.3     2  GLU2        0.1160
      7  CD        14.2480    0.5370  100.4980 C.2     2  GLU2        0.3649
      8  OE1       13.1290   -0.0220  100.4770 O.co2   2  GLU2       -0.2457
      9  OE2       15.1970    0.1200  101.2110 O.co2   2  GLU2       -0.2457
     10  N         14.8520    0.4580   94.0930 N.3     4  ALA4       -0.1245
     11  CA        14.8670   -1.0080   93.9800 C.3     4  ALA4        0.1562
     12  C         16.2310   -1.5940   94.3880 C.2     4  ALA4        0.2260
     13  O         16.2970   -2.6530   95.0230 O.2     4  ALA4       -0.2867
     14  CB        14.5020   -1.4600   92.5720 C.3     4  ALA4        0.0290
     15  N         16.3910   -1.3100   98.0460 N.3     7  LYS7       -0.1245
     16  CA        15.4370   -2.3400   98.4140 C.3     7  LYS7        0.1561
     17  C         16.0510   -3.7260   98.3400 C.2     7  LYS7        0.2260
     18  O         15.8840   -4.4940   99.2630 O.2     7  LYS7       -0.2867
     19  CB        14.2110   -2.2420   97.5050 C.3     7  LYS7        0.0271
     20  CG        12.9500   -2.9690   97.9590 C.3     7  LYS7        0.0035
     21  CD        11.7330   -2.0600   97.7890 C.3     7  LYS7        0.0206
     22  CE        10.4970   -2.8360   97.4060 C.3     7  LYS7        0.1093
     23  NZ         9.3380   -1.9040   97.3280 N.3     7  LYS7       -0.1314
     24  N         16.6700   -6.3350  101.5370 N.3    11  GLN11      -0.1231
     25  CA        15.9190   -7.5740  101.5610 C.3    11  GLN11       0.1698
     26  C         16.7700   -8.8380  101.4090 C.2    11  GLN11       0.2592
     27  O         16.3140   -9.9170  101.8090 O.2    11  GLN11      -0.2718
     28  CB        14.8690   -7.5310  100.4660 C.3    11  GLN11       0.0381
     29  CG        13.7670   -6.5200  100.7310 C.3    11  GLN11       0.0905
     30  CD        12.6010   -6.6480   99.7660 C.2    11  GLN11       0.2608
     31  OE1       11.5040   -6.2280  100.0670 O.2    11  GLN11      -0.2717
     32  NE2       12.8420   -7.2330   98.6020 N.am   11  GLN11      -0.0878
     33  N         17.9720   -8.7230  100.8300 N.am   12  HIS12      -0.1976
     34  CA        18.7520   -9.9100  100.4370 C.3    12  HIS12       0.1656
     35  C         20.2370   -9.9420  100.8310 C.2    12  HIS12       0.2291
     36  O         20.8280  -11.0150  100.9180 O.2    12  HIS12      -0.2864
     37  CB        18.6070  -10.1250   98.9370 C.3    12  HIS12       0.0771
     38  CG        17.1930  -10.3570   98.5050 C.ar   12  HIS12       0.0820
     39  ND1       16.5520  -11.5710   98.6610 N.ar   12  HIS12      -0.2267
     40  CD2       16.2860   -9.5220   97.9410 C.ar   12  HIS12       0.1154
     41  CE1       15.3160  -11.4740   98.2020 C.ar   12  HIS12       0.1986
     42  NE2       15.1340  -10.2440   97.7500 N.ar   12  HIS12      -0.2212
     43  N          5.9300  -12.0990  105.0370 N.3    41  LYS41      -0.1245
     44  CA         6.4760  -12.4920  103.7440 C.3    41  LYS41       0.1561
     45  C          6.7030  -13.9920  103.7920 C.2    41  LYS41       0.2260
     46  O          7.4780  -14.4490  104.6330 O.2    41  LYS41      -0.2867
     47  CB         7.7940  -11.7930  103.4240 C.3    41  LYS41       0.0271
     48  CG         8.2960  -12.1580  102.0340 C.3    41  LYS41       0.0035
     49  CD         9.3360  -11.1870  101.5020 C.3    41  LYS41       0.0206
     50  CE         9.4220  -11.2840   99.9860 C.3    41  LYS41       0.1093
     51  NZ        10.3100  -10.2320   99.4300 N.3    41  LYS41      -0.1314
     52  N         10.0200  -15.1700   85.1740 N.3    67  ASN67      -0.1240
     53  CA         8.9390  -14.4440   84.4940 C.3    67  ASN67       0.1653
     54  C          9.1880  -14.2170   83.0080 C.2    67  ASN67       0.2266
     55  O          8.5240  -13.3880   82.4030 O.2    67  ASN67      -0.2867
     56  CB         8.6800  -13.0720   85.1850 C.3    67  ASN67       0.1155
     57  CG         9.8920  -12.1070   85.1350 C.2    67  ASN67       0.2627
     58  OD1       10.8910  -12.3520   84.4370 O.2    67  ASN67      -0.2716
     59  ND2        9.8110  -11.0140   85.9140 N.am   67  ASN67      -0.0877
     60  N         11.7700  -12.8910   81.4160 N.3    69  GLN69      -0.1245
     61  CA        12.6850  -11.8090   81.0540 C.3    69  GLN69       0.1566
     62  C         14.1400  -12.2800   80.9250 C.2    69  GLN69       0.2260
     63  O         14.5550  -13.2520   81.5440 O.2    69  GLN69      -0.2867
     64  CB        12.6050  -10.6900   82.0800 C.3    69  GLN69       0.0367
     65  CG        11.3160   -9.9030   82.0660 C.3    69  GLN69       0.0905
     66  CD        11.4780   -8.5990   82.8340 C.2    69  GLN69       0.2608
     67  OE1       10.9330   -8.4250   83.9400 O.2    69  GLN69      -0.2717
     68  NE2       12.2710   -7.6810   82.2710 N.am   69  GLN69      -0.0878
     69  N         16.8980  -10.4280   81.7690 N.3    71  ASN71      -0.1240
     70  CA        17.8140   -9.6760   82.6590 C.3    71  ASN71       0.1653
     71  C         18.1830  -10.3890   83.9980 C.2    71  ASN71       0.2266
     72  O         18.5210   -9.7210   84.9720 O.2    71  ASN71      -0.2867
     73  CB        17.2870   -8.2320   82.9130 C.3    71  ASN71       0.1155
     74  CG        15.9850   -8.2020   83.6790 C.2    71  ASN71       0.2627
     75  OD1       15.1230   -9.0640   83.4770 O.2    71  ASN71      -0.2716
     76  ND2       15.8350   -7.2160   84.5830 N.am   71  ASN71      -0.0877
     77  N         18.1310  -10.8100   89.1370 N.3   109  ALA109     -0.1245
     78  CA        17.7870   -9.9280   88.0150 C.3   109  ALA109      0.1562
     79  C         18.4510   -8.5720   88.2360 C.2   109  ALA109      0.2260
     80  O         18.4210   -8.0250   89.3560 O.2   109  ALA109     -0.2867
     81  CB        16.2790   -9.7480   87.8830 C.3   109  ALA109      0.0290
     82  N         19.2440   -4.5330   86.6360 N.3   111  GLU111     -0.1245
     83  CA        18.8040   -3.4250   85.7950 C.3   111  GLU111      0.1567
     84  C         19.4860   -2.1330   86.2980 C.2   111  GLU111      0.2260
     85  O         20.0350   -2.0870   87.4200 O.2   111  GLU111     -0.2867
     86  CB        17.2570   -3.3230   85.7430 C.3   111  GLU111      0.0388
     87  CG        16.5630   -2.8610   87.0180 C.3   111  GLU111      0.1160
     88  CD        15.0250   -2.8880   86.9480 C.2   111  GLU111      0.3649
     89  OE1       14.4280   -3.5520   86.0690 O.co2 111  GLU111     -0.2457
     90  OE2       14.3980   -2.2370   87.8160 O.co2 111  GLU111     -0.2457
     91  N         18.2660   -6.0580   91.4700 N.3   118  VAL118     -0.1231
     92  CA        17.0170   -5.5050   92.0110 C.3   118  VAL118      0.1692
     93  C         16.0010   -6.6090   92.3610 C.2   118  VAL118      0.2592
     94  O         14.7920   -6.3460   92.3960 O.2   118  VAL118     -0.2718
     95  CB        16.3960   -4.5020   90.9930 C.3   118  VAL118      0.0266
     96  CG1       17.4180   -3.4330   90.6150 C.3   118  VAL118      0.0020
     97  CG2       15.8890   -5.2050   89.7330 C.3   118  VAL118      0.0020
     98  N         16.4910   -7.8290   92.6100 N.am  119  HIS119     -0.1962
     99  CA        15.6450   -9.0250   92.6230 C.3   119  HIS119      0.1787
    100  C         16.4330  -10.3260   92.7470 C.2   119  HIS119      0.2620
    101  O         17.4520  -10.5150   92.0670 O.2   119  HIS119     -0.2715
    102  CB        14.8760   -9.0860   91.3240 C.3   119  HIS119      0.0785
    103  CG        14.0500  -10.3200   91.1430 C.ar  119  HIS119      0.0821
    104  ND1       12.7630  -10.4260   91.6320 N.ar  119  HIS119     -0.2267
    105  CD2       14.3000  -11.4720   90.4740 C.ar  119  HIS119      0.1154
    106  CE1       12.2670  -11.6040   91.2870 C.ar  119  HIS119      0.1986
    107  NE2       13.1810  -12.2570   90.5860 N.ar  119  HIS119     -0.2212
    108  N         15.9230  -11.2260   93.5880 N.am  120  PHE120     -0.1974
    109  CA        16.4710  -12.5580   93.7850 C.3   120  PHE120      0.1639
    110  C         15.4710  -13.5310   93.1990 C.2   120  PHE120      0.2290
    111  O         14.3260  -13.6160   93.6410 O.2   120  PHE120     -0.2864
    112  CB        16.7050  -12.8480   95.2670 C.3   120  PHE120      0.0560
    113  CG        17.4600  -14.1210   95.5390 C.ar  120  PHE120     -0.0200
    114  CD1       16.7880  -15.3380   95.6360 C.ar  120  PHE120     -0.0042
    115  CD2       18.8390  -14.0980   95.7440 C.ar  120  PHE120     -0.0042
    116  CE1       17.4700  -16.5050   95.9260 C.ar  120  PHE120     -0.0003
    117  CE2       19.5330  -15.2620   96.0290 C.ar  120  PHE120     -0.0003
    118  CZ        18.8450  -16.4690   96.1170 C.ar  120  PHE120     -0.0000
@<TRIPOS>BOND
     1    62    61    1
     2    62    63    2
     3    61    60    1
     4    61    64    1
     5    69    70    1
     6    65    64    1
     7    65    66    1
     8    68    66   am
     9    55    54    2
    10    70    73    1
    11    70    71    1
    12    66    67    2
    13    73    74    1
    14    54    53    1
    15    75    74    2
    16    74    76   am
    17    71    72    2
    18    58    57    2
    19    53    52    1
    20    53    56    1
    21    57    56    1
    22    57    59   am
    23    86    83    1
    24    86    87    1
    25    83    84    1
    26    83    82    1
    27    89    88   ar
    28    84    85    2
    29    88    87    1
    30    88    90   ar
    31    81    78    1
    32    78    79    1
    33    78    77    1
    34    79    80    2
    35    97    95    1
    36   105   107   ar
    37   105   103   ar
    38   107   106   ar
    39    96    95    1
    40    95    92    1
    41   103   102    1
    42   103   104   ar
    43   106   104   ar
    44   102    99    1
    45    91    92    1
    46    92    93    1
    47   101   100    2
    48    93    94    2
    49    93    98   am
    50    14    11    1
    51    98    99    1
    52    99   100    1
    53   100   108   am
    54   110   111    2
    55   110   109    1
    56   108   109    1
    57   109   112    1
    58    11    10    1
    59    11    12    1
    60    12    13    2
    61   112   113    1
    62   113   114   ar
    63   113   115   ar
    64   114   116   ar
    65   115   117   ar
    66   116   118   ar
    67   117   118   ar
    68     4     3    2
    69     3     2    1
    70    23    22    1
    71    22    21    1
    72    19    20    1
    73    19    16    1
    74    42    40   ar
    75    42    41   ar
    76    21    20    1
    77    40    38   ar
    78    15    16    1
    79     1     2    1
    80    41    39   ar
    81     2     5    1
    82    17    16    1
    83    17    18    2
    84    38    39   ar
    85    38    37    1
    86    32    30   am
    87    37    34    1
    88     5     6    1
    89    51    50    1
    90     6     7    1
    91    30    31    2
    92    30    29    1
    93    50    49    1
    94    34    33    1
    95    34    35    1
    96    28    29    1
    97    28    25    1
    98     8     7   ar
    99     7     9   ar
   100    33    26   am
   101    35    36    2
   102    26    25    1
   103    26    27    2
   104    49    48    1
   105    24    25    1
   106    48    47    1
   107    47    44    1
   108    44    45    1
   109    44    43    1
   110    45    46    2
