@<TRIPOS>MOLECULE
tmp/6gomA01.pdb
 100 97 0 0 0
SMALL
GASTEIGER

@<TRIPOS>ATOM
      1  N         67.3890   97.5800   19.1160 N.3     8  LYS8       -0.1231
      2  CA        68.3230   98.1330   18.1690 C.3     8  LYS8        0.1693
      3  C         67.7660   98.0440   16.7300 C.2     8  LYS8        0.2592
      4  O         67.6470   96.9350   16.1790 O.2     8  LYS8       -0.2718
      5  CB        69.6810   97.4310   18.2570 C.3     8  LYS8        0.0285
      6  CG        70.3960   97.6670   19.5970 C.3     8  LYS8        0.0035
      7  CD        71.7830   97.0490   19.5930 C.3     8  LYS8        0.0206
      8  CE        72.8190   97.8200   20.4310 C.3     8  LYS8        0.1093
      9  NZ        72.3850   98.0030   21.8420 N.3     8  LYS8       -0.1314
     10  N         67.4020   99.1830   16.1650 N.am    9  LEU9       -0.1966
     11  CA        66.7110   99.2640   14.8610 C.3     9  LEU9        0.1728
     12  C         67.6700   99.8820   13.8420 C.2     9  LEU9        0.2616
     13  O         68.3920  100.8450   14.1490 O.2     9  LEU9       -0.2715
     14  CB        65.4390  100.1110   14.9620 C.3     9  LEU9        0.0311
     15  CG        64.4980   99.8410   16.1290 C.3     9  LEU9        0.0022
     16  CD1       63.2000  100.6660   16.0200 C.3     9  LEU9        0.0001
     17  CD2       64.1320   98.3670   16.2110 C.3     9  LEU9        0.0001
     18  N         67.6900   99.3630   12.6130 N.am   10  VAL10      -0.1977
     19  CA        68.5150   99.8930   11.5400 C.3    10  VAL10       0.1596
     20  C         67.6500  100.2700   10.3210 C.2    10  VAL10       0.2287
     21  O         66.7890   99.4640    9.9220 O.2    10  VAL10      -0.2864
     22  CB        69.5660   98.8480   11.0930 C.3    10  VAL10       0.0276
     23  CG1       70.4710   99.4220   10.0130 C.3    10  VAL10       0.0022
     24  CG2       70.4170   98.3720   12.2900 C.3    10  VAL10       0.0022
     25  N         73.2580  108.0950   14.6050 N.3    42  SER42      -0.1202
     26  CA        72.4810  107.3030   15.5770 C.3    42  SER42       0.2020
     27  C         71.6360  108.1820   16.5160 C.2    42  SER42       0.2619
     28  O         72.0290  109.3310   16.8350 O.2    42  SER42      -0.2717
     29  CB        73.3890  106.3140   16.3170 C.3    42  SER42       0.2103
     30  OG        74.1030  106.9840   17.2520 O.3    42  SER42      -0.2182
     31  N         70.4480  107.6920   16.8830 N.am   43  TYR43      -0.1961
     32  CA        69.4490  108.4590   17.6380 C.3    43  TYR43       0.1771
     33  C         68.8400  107.5440   18.7010 C.2    43  TYR43       0.2619
     34  O         68.9120  106.2990   18.6140 O.2    43  TYR43      -0.2715
     35  CB        68.2870  108.8980   16.7190 C.3    43  TYR43       0.0574
     36  CG        68.6820  109.7850   15.5610 C.ar   43  TYR43      -0.0198
     37  CD1       69.2480  109.2670   14.3940 C.ar   43  TYR43      -0.0009
     38  CD2       68.5560  111.1500   15.6640 C.ar   43  TYR43      -0.0009
     39  CE1       69.6580  110.1160   13.3640 C.ar   43  TYR43       0.0417
     40  CE2       68.9640  111.9910   14.6480 C.ar   43  TYR43       0.0417
     41  CZ        69.5220  111.4630   13.4940 C.ar   43  TYR43       0.1957
     42  OH        69.8920  112.3210   12.4840 O.3    43  TYR43      -0.2866
     43  N         68.2650  108.1190   19.7730 N.am   44  ARG44      -0.1977
     44  CA        67.5010  107.3490   20.7770 C.3    44  ARG44       0.1597
     45  C         66.1850  108.0370   21.1470 C.2    44  ARG44       0.2287
     46  O         66.1200  109.2930   21.2230 O.2    44  ARG44      -0.2864
     47  CB        68.3340  107.2390   22.0460 C.3    44  ARG44       0.0334
     48  CG        67.7710  106.4440   23.2010 C.3    44  ARG44       0.0492
     49  CD        68.8050  106.2980   24.2380 C.3    44  ARG44       0.2205
     50  NE        69.6680  105.1500   24.0410 N.pl3  44  ARG44      -0.0865
     51  CZ        70.8540  105.0310   24.6270 C.cat  44  ARG44       0.5346
     52  NH1       71.4330  106.0400   25.3180 N.pl3  44  ARG44       0.1354
     53  NH2       71.5000  103.8630   24.5160 N.pl3  44  ARG44       0.1354
     54  N         66.9130  102.4640   19.9080 N.3    56  ASP56      -0.1225
     55  CA        68.2260  102.9200   19.4690 C.3    56  ASP56       0.1805
     56  C         68.2320  102.7590   17.9310 C.2    56  ASP56       0.2598
     57  O         68.1530  101.6330   17.4470 O.2    56  ASP56      -0.2718
     58  CB        69.2850  102.0210   20.0550 C.3    56  ASP56       0.1424
     59  CG        69.4690  102.2170   21.5650 C.2    56  ASP56       0.3668
     60  OD1       69.0030  103.1980   22.1660 O.co2  56  ASP56      -0.2456
     61  OD2       70.0550  101.2950   22.1550 O.co2  56  ASP56      -0.2456
     62  N         68.2380  103.8680   17.2100 N.am   57  ILE57      -0.1966
     63  CA        67.9820  103.8550   15.7730 C.3    57  ILE57       0.1727
     64  C         69.2890  104.2680   15.0280 C.2    57  ILE57       0.2616
     65  O         69.8590  105.3490   15.2920 O.2    57  ILE57      -0.2715
     66  CB        66.8820  104.8070   15.4000 C.3    57  ILE57       0.0290
     67  CG1       65.5750  104.3250   16.0790 C.3    57  ILE57       0.0022
     68  CG2       66.6570  104.8730   13.8940 C.3    57  ILE57       0.0023
     69  CD1       64.5460  105.4300   16.1590 C.3    57  ILE57       0.0001
     70  N         69.7100  103.4110   14.1160 N.am   58  LEU58      -0.1977
     71  CA        70.9180  103.6800   13.2670 C.3    58  LEU58       0.1596
     72  C         70.4530  103.9900   11.8300 C.2    58  LEU58       0.2287
     73  O         69.8310  103.1190   11.1870 O.2    58  LEU58      -0.2864
     74  CB        71.8410  102.4480   13.2790 C.3    58  LEU58       0.0297
     75  CG        73.2240  102.7750   12.6990 C.3    58  LEU58       0.0022
     76  CD1       74.1380  101.7040   13.3210 C.3    58  LEU58       0.0001
     77  CD2       73.3660  102.7900   11.2490 C.3    58  LEU58       0.0001
     78  N         78.2490   97.0440   11.9400 N.3    73  TYR73      -0.1241
     79  CA        77.0640   97.6410   12.6430 C.3    73  TYR73       0.1605
     80  C         75.7400   96.9800   12.2800 C.2    73  TYR73       0.2264
     81  O         74.8510   96.9260   13.1010 O.2    73  TYR73      -0.2867
     82  CB        77.0600   99.1650   12.4630 C.3    73  TYR73       0.0534
     83  CG        76.6930   99.7140   11.1180 C.ar   73  TYR73      -0.0201
     84  CD1       75.3850   99.4680   10.5780 C.ar   73  TYR73      -0.0009
     85  CD2       77.4830  100.5570   10.4120 C.ar   73  TYR73      -0.0009
     86  CE1       75.0090   99.9790    9.3530 C.ar   73  TYR73       0.0417
     87  CE2       77.1100  101.0740    9.1800 C.ar   73  TYR73       0.0417
     88  CZ        75.8410  100.7540    8.6760 C.ar   73  TYR73       0.1957
     89  OH        75.3520  101.3010    7.4820 O.3    73  TYR73      -0.2866
     90  N         74.8320   93.9500   14.5640 N.3    76  THR76      -0.1203
     91  CA        74.2990   94.3250   15.9130 C.3    76  THR76       0.1994
     92  C         72.8140   94.7180   15.8380 C.2    76  THR76       0.2618
     93  O         72.1370   94.5700   16.8470 O.2    76  THR76      -0.2717
     94  CB        75.1070   95.4670   16.5380 C.3    76  THR76       0.1784
     95  OG1       74.9190   96.6850   15.8070 O.3    76  THR76      -0.2211
     96  CG2       76.6170   95.1970   16.5120 C.3    76  THR76       0.0376
     97  N         72.2870   95.1080   14.6950 N.am   77  GLY77      -0.1956
     98  CA        70.8490   95.3400   14.5520 C.3    77  GLY77       0.1869
     99  C         69.9470   94.1700   14.8590 C.2    77  GLY77       0.2309
    100  O         70.2240   93.0750   14.4220 O.2    77  GLY77      -0.2863
@<TRIPOS>BOND
     1    89    88    1
     2    88    87   ar
     3    88    86   ar
     4    87    85   ar
     5    86    84   ar
     6    21    20    2
     7    23    22    1
     8    20    19    1
     9    85    83   ar
    10    84    83   ar
    11    22    19    1
    12    22    24    1
    13    83    82    1
    14    73    72    2
    15    77    75    1
    16    19    18    1
    17    72    71    1
    18    78    79    1
    19    80    79    1
    20    80    81    2
    21    82    79    1
    22    42    41    1
    23    18    12   am
    24    75    74    1
    25    75    76    1
    26    71    74    1
    27    71    70    1
    28    39    41   ar
    29    39    37   ar
    30    41    40   ar
    31    12    13    2
    32    12    11    1
    33    68    66    1
    34    70    64   am
    35    37    36   ar
    36   100    99    2
    37    98    97    1
    38    98    99    1
    39    90    91    1
    40    25    26    1
    41    40    38   ar
    42    97    92   am
    43    11    14    1
    44    11    10    1
    45    14    15    1
    46    64    65    2
    47    64    63    1
    48    66    63    1
    49    66    67    1
    50    36    38   ar
    51    36    35    1
    52    26    29    1
    53    26    27    1
    54    63    62    1
    55    95    94    1
    56    92    91    1
    57    92    93    2
    58    91    94    1
    59    16    15    1
    60    67    69    1
    61    15    17    1
    62    10     3   am
    63     4     3    2
    64    29    30    1
    65    96    94    1
    66    27    28    2
    67    27    31   am
    68    35    32    1
    69     3     2    1
    70    31    32    1
    71    62    56   am
    72    57    56    2
    73    32    33    1
    74    56    55    1
    75     2     5    1
    76     2     1    1
    77     5     6    1
    78    34    33    2
    79    33    43   am
    80    55    54    1
    81    55    58    1
    82     7     6    1
    83     7     8    1
    84    43    44    1
    85    58    59    1
    86     8     9    1
    87    44    45    1
    88    44    47    1
    89    45    46    2
    90    59    61   ar
    91    59    60   ar
    92    47    48    1
    93    48    49    1
    94    50    49    1
    95    50    51    2
    96    53    51    1
    97    51    52    1
