@<TRIPOS>MOLECULE
tmp/6gonC00.pdb
 75 67 0 0 0
SMALL
GASTEIGER

@<TRIPOS>ATOM
      1  N         17.4720   -3.8150   45.7630 N.3     6  LYS6       -0.1245
      2  CA        17.6670   -2.7000   44.8410 C.3     6  LYS6        0.1561
      3  C         16.4000   -1.8770   44.9000 C.2     6  LYS6        0.2260
      4  O         15.3340   -2.3700   44.5390 O.2     6  LYS6       -0.2867
      5  CB        17.9340   -3.2090   43.4240 C.3     6  LYS6        0.0271
      6  CG        18.1980   -2.1110   42.4190 C.3     6  LYS6        0.0035
      7  CD        19.5460   -1.4140   42.6930 C.3     6  LYS6        0.0206
      8  CE        20.0200   -0.5030   41.5630 C.3     6  LYS6        0.1093
      9  NZ        21.3770    0.0830   41.8680 N.3     6  LYS6       -0.1314
     10  N         14.4070    1.6950   43.8930 N.3     8  LEU8       -0.1245
     11  CA        14.3510    2.8100   42.9640 C.3     8  LEU8        0.1561
     12  C         13.1990    3.7410   43.3240 C.2     8  LEU8        0.2260
     13  O         12.1730    3.3210   43.8710 O.2     8  LEU8       -0.2867
     14  CB        14.1570    2.3120   41.5430 C.3     8  LEU8        0.0270
     15  CG        15.2460    1.4310   40.9510 C.3     8  LEU8        0.0019
     16  CD1       14.8550    1.0610   39.5140 C.3     8  LEU8        0.0001
     17  CD2       16.6180    2.0670   40.9560 C.3     8  LEU8        0.0001
     18  N         21.2290    0.1680   47.2090 N.3    45  GLU45      -0.1245
     19  CA        21.6290   -1.1940   47.5600 C.3    45  GLU45       0.1567
     20  C         22.1720   -1.2450   48.9820 C.2    45  GLU45       0.2260
     21  O         22.5280   -0.2230   49.5560 O.2    45  GLU45      -0.2867
     22  CB        22.6990   -1.6980   46.6000 C.3    45  GLU45       0.0388
     23  CG        22.2540   -1.6910   45.1660 C.3    45  GLU45       0.1160
     24  CD        23.3200   -2.1820   44.2220 C.2    45  GLU45       0.3649
     25  OE1       24.2380   -2.9010   44.6740 O.co2  45  GLU45      -0.2457
     26  OE2       23.2360   -1.8460   43.0280 O.co2  45  GLU45      -0.2457
     27  N         17.6680  -11.4020   44.7440 N.3    97  THR97      -0.1218
     28  CA        17.6450   -9.9440   44.6570 C.3    97  THR97       0.1862
     29  C         16.1900   -9.5030   44.7590 C.2    97  THR97       0.2287
     30  O         15.3420   -9.9950   44.0100 O.2    97  THR97      -0.2866
     31  CB        18.2360   -9.4410   43.3460 C.3    97  THR97       0.1770
     32  OG1       19.6080   -9.8530   43.2590 O.3    97  THR97      -0.2211
     33  CG2       18.1590   -7.9230   43.2730 C.3    97  THR97       0.0375
     34  N         13.8630   -6.3960   44.2950 N.3    99  ALA99      -0.1231
     35  CA        13.7800   -5.0730   43.7080 C.3    99  ALA99       0.1694
     36  C         12.4800   -4.4240   44.1390 C.2    99  ALA99       0.2592
     37  O         11.4530   -5.0880   44.3040 O.2    99  ALA99      -0.2718
     38  CB        13.8500   -5.1400   42.1810 C.3    99  ALA99       0.0304
     39  N         12.5370   -3.1210   44.3560 N.am  100  LEU100     -0.1966
     40  CA        11.4110   -2.3820   44.8850 C.3   100  LEU100      0.1728
     41  C         11.3960   -1.0280   44.2020 C.2   100  LEU100      0.2616
     42  O         12.3820   -0.2850   44.2680 O.2   100  LEU100     -0.2715
     43  CB        11.5420   -2.2330   46.3980 C.3   100  LEU100      0.0311
     44  CG        10.4560   -1.5580   47.1980 C.3   100  LEU100      0.0022
     45  CD1        9.1910   -2.3640   47.1750 C.3   100  LEU100      0.0001
     46  CD2       10.9700   -1.3900   48.6200 C.3   100  LEU100      0.0001
     47  N         10.2670   -0.6950   43.5930 N.am  101  LEU101     -0.1977
     48  CA        10.0730    0.5580   42.8810 C.3   101  LEU101      0.1596
     49  C          9.0310    1.3740   43.6270 C.2   101  LEU101      0.2287
     50  O          7.8700    0.9550   43.7440 O.2   101  LEU101     -0.2864
     51  CB         9.6160    0.3150   41.4480 C.3   101  LEU101      0.0297
     52  CG         9.3590    1.5840   40.6540 C.3   101  LEU101      0.0022
     53  CD1       10.6170    2.3630   40.3410 C.3   101  LEU101      0.0001
     54  CD2        8.6540    1.1720   39.3890 C.3   101  LEU101      0.0001
     55  N          6.0160   -1.4110   43.5170 N.3   108  THR108     -0.1218
     56  CA         6.1350   -2.6630   42.7830 C.3   108  THR108      0.1862
     57  C          7.3060   -3.4160   43.3740 C.2   108  THR108      0.2287
     58  O          8.3890   -2.8460   43.5300 O.2   108  THR108     -0.2866
     59  CB         6.3720   -2.4020   41.3090 C.3   108  THR108      0.1770
     60  OG1        5.2210   -1.7740   40.7320 O.3   108  THR108     -0.2211
     61  CG2        6.6420   -3.7090   40.5660 C.3   108  THR108      0.0375
     62  N          9.5080   -7.0540   43.1720 N.3   110  THR110     -0.1218
     63  CA         9.8580   -8.1740   42.3070 C.3   110  THR110      0.1862
     64  C         11.0570   -8.9250   42.8870 C.2   110  THR110      0.2287
     65  O         11.7530   -8.4240   43.7760 O.2   110  THR110     -0.2866
     66  CB        10.1820   -7.6820   40.8910 C.3   110  THR110      0.1770
     67  OG1        9.0290   -7.0330   40.3350 O.3   110  THR110     -0.2211
     68  CG2       10.5780   -8.8330   40.0210 C.3   110  THR110      0.0375
     69  N         14.4710  -11.5130   41.6580 N.3   112  VAL112     -0.1245
     70  CA        15.3090  -12.2680   40.7340 C.3   112  VAL112      0.1561
     71  C         16.0050  -13.3450   41.5560 C.2   112  VAL112      0.2260
     72  O         16.7570  -13.0230   42.4880 O.2   112  VAL112     -0.2867
     73  CB        16.3320  -11.3720   40.0320 C.3   112  VAL112      0.0252
     74  CG1       17.1650  -12.1760   39.0630 C.3   112  VAL112      0.0019
     75  CG2       15.6290  -10.2280   39.2860 C.3   112  VAL112      0.0019
@<TRIPOS>BOND
     1    74    73    1
     2    75    73    1
     3    54    52    1
     4    16    15    1
     5    68    66    1
     6    73    70    1
     7    67    66    1
     8    53    52    1
     9    61    59    1
    10    52    51    1
    11    60    59    1
    12    70    71    1
    13    70    69    1
    14    66    63    1
    15    15    17    1
    16    15    14    1
    17    59    56    1
    18    51    48    1
    19    14    11    1
    20    71    72    2
    21     8     9    1
    22     8     7    1
    23    38    35    1
    24    63    64    1
    25    63    62    1
    26     6     7    1
    27     6     5    1
    28    56    57    1
    29    56    55    1
    30    48    47    1
    31    48    49    1
    32    64    65    2
    33    11    12    1
    34    11    10    1
    35    26    24   ar
    36    32    31    1
    37    33    31    1
    38    12    13    2
    39    31    28    1
    40    57    58    2
    41     5     2    1
    42    47    41   am
    43    49    50    2
    44    35    36    1
    45    35    34    1
    46    30    29    2
    47    36    37    2
    48    36    39   am
    49    41    42    2
    50    41    40    1
    51    24    25   ar
    52    24    23    1
    53    39    40    1
    54     4     3    2
    55    28    27    1
    56    28    29    1
    57     2     3    1
    58     2     1    1
    59    40    43    1
    60    23    22    1
    61    43    44    1
    62    22    19    1
    63    45    44    1
    64    44    46    1
    65    18    19    1
    66    19    20    1
    67    20    21    2
