@<TRIPOS>MOLECULE
tmp/6gopY00.pdb
 98 91 0 0 0
SMALL
GASTEIGER

@<TRIPOS>ATOM
      1  N         56.6470 -150.9170    7.6570 N.3     1  THR1       -0.1218
      2  CA        56.8090 -152.1700    6.8890 C.3     1  THR1        0.1862
      3  C         56.2600 -151.8800    5.5360 C.2     1  THR1        0.2287
      4  O         55.1960 -151.2870    5.3890 O.2     1  THR1       -0.2866
      5  CB        56.0580 -153.3580    7.5070 C.3     1  THR1        0.1770
      6  OG1       56.6070 -153.5840    8.7990 O.3     1  THR1       -0.2211
      7  CG2       56.2320 -154.6590    6.7070 C.3     1  THR1        0.0375
      8  N         63.1320 -152.7570    8.1450 N.3    19  ARG19      -0.1231
      9  CA        63.0240 -152.0750    9.4350 C.3    19  ARG19       0.1694
     10  C         61.9760 -152.7030   10.3630 C.2    19  ARG19       0.2592
     11  O         60.8440 -152.9710    9.9500 O.2    19  ARG19      -0.2718
     12  CB        62.7240 -150.5900    9.2240 C.3    19  ARG19       0.0321
     13  CG        62.3110 -149.8420   10.4870 C.3    19  ARG19       0.0489
     14  CD        62.3100 -148.3490   10.2600 C.3    19  ARG19       0.2205
     15  NE        63.6140 -147.8730    9.8090 N.pl3  19  ARG19      -0.0865
     16  CZ        63.8520 -146.6790    9.2640 C.cat  19  ARG19       0.5346
     17  NH1       62.8760 -145.7860    9.0970 N.pl3  19  ARG19       0.1354
     18  NH2       65.0890 -146.3690    8.8860 N.pl3  19  ARG19       0.1354
     19  N         62.3670 -152.9100   11.6190 N.am   20  ALA20      -0.1966
     20  CA        61.4550 -153.3210   12.6760 C.3    20  ALA20       0.1728
     21  C         61.3960 -152.1990   13.6860 C.2    20  ALA20       0.2616
     22  O         62.4340 -151.7540   14.1720 O.2    20  ALA20      -0.2715
     23  CB        61.9430 -154.5900   13.3400 C.3    20  ALA20       0.0334
     24  N         60.1870 -151.7420   14.0000 N.am   21  THR21      -0.1951
     25  CA        60.0070 -150.7000   15.0070 C.3    21  THR21       0.1897
     26  C         59.0950 -151.1510   16.1270 C.2    21  THR21       0.2313
     27  O         58.0850 -151.8050   15.8840 O.2    21  THR21      -0.2863
     28  CB        59.4150 -149.4060   14.4250 C.3    21  THR21       0.1794
     29  OG1       58.0550 -149.6240   14.0310 O.3    21  THR21      -0.2208
     30  CG2       60.2280 -148.9250   13.2410 C.3    21  THR21       0.0378
     31  N         56.9840 -149.1940   18.4970 N.3    23  GLY23      -0.1225
     32  CA        56.5330 -147.8180   18.6780 C.3    23  GLY23       0.1811
     33  C         57.3950 -146.8880   17.8410 C.2    23  GLY23       0.2280
     34  O         57.4350 -147.0230   16.6160 O.2    23  GLY23      -0.2866
     35  N         66.1630 -156.4360    9.2710 N.3    31  VAL31      -0.1245
     36  CA        65.1690 -157.5000    9.4550 C.3    31  VAL31       0.1561
     37  C         64.8620 -158.1920    8.1300 C.2    31  VAL31       0.2260
     38  O         64.7260 -157.5420    7.1010 O.2    31  VAL31      -0.2867
     39  CB        63.8900 -156.9540   10.1630 C.3    31  VAL31       0.0252
     40  CG1       62.6180 -157.6960    9.7700 C.3    31  VAL31       0.0019
     41  CG2       64.0730 -157.0380   11.6650 C.3    31  VAL31       0.0019
     42  N         62.2010 -159.8430    6.0000 N.3    33  LYS33      -0.1245
     43  CA        60.7340 -159.8960    5.9020 C.3    33  LYS33       0.1561
     44  C         60.2350 -160.8290    4.8050 C.2    33  LYS33       0.2260
     45  O         59.0620 -160.7890    4.4370 O.2    33  LYS33      -0.2867
     46  CB        60.1690 -158.4960    5.6960 C.3    33  LYS33       0.0271
     47  CG        60.5340 -157.5800    6.8320 C.3    33  LYS33       0.0035
     48  CD        59.8520 -156.2400    6.7520 C.3    33  LYS33       0.0206
     49  CE        60.3110 -155.3970    7.9160 C.3    33  LYS33       0.1093
     50  NZ        59.6050 -154.1050    7.9120 N.3    33  LYS33      -0.1314
     51  N         56.4370 -161.0460    5.0370 N.3    45  MET45      -0.1230
     52  CA        55.9550 -160.8810    6.4090 C.3    45  MET45       0.1702
     53  C         55.6380 -159.4280    6.7240 C.2    45  MET45       0.2592
     54  O         56.4880 -158.5520    6.5580 O.2    45  MET45      -0.2718
     55  CB        57.0030 -161.3730    7.4010 C.3    45  MET45       0.0401
     56  CG        57.6190 -162.7140    7.0460 C.3    45  MET45       0.0596
     57  SD        58.4560 -163.4390    8.4570 S.3    45  MET45      -0.1393
     58  CE        59.8340 -162.3210    8.6060 C.3    45  MET45       0.0692
     59  N         54.4170 -159.1900    7.1990 N.am   46  ALA46      -0.1966
     60  CA        54.0010 -157.8820    7.7140 C.3    46  ALA46       0.1728
     61  C         53.0990 -158.0880    8.9160 C.2    46  ALA46       0.2617
     62  O         52.4570 -159.1310    9.0290 O.2    46  ALA46      -0.2715
     63  CB        53.2770 -157.0860    6.6460 C.3    46  ALA46       0.0334
     64  N         53.0410 -157.0830    9.7920 N.am   47  GLY47      -0.1940
     65  CA        52.3090 -157.1730   11.0610 C.3    47  GLY47       0.2014
     66  C         53.1970 -157.7910   12.1210 C.2    47  GLY47       0.2639
     67  O         54.3020 -157.3040   12.3650 O.2    47  GLY47      -0.2714
     68  N         52.7270 -158.8740   12.7370 N.am   48  GLY48      -0.1939
     69  CA        53.4620 -159.5600   13.8050 C.3    48  GLY48       0.2014
     70  C         54.6600 -160.3370   13.2920 C.2    48  GLY48       0.2638
     71  O         54.5000 -161.2330   12.4640 O.2    48  GLY48      -0.2714
     72  N         55.8500 -159.9880   13.7920 N.am   49  ALA49      -0.1977
     73  CA        57.1220 -160.6220   13.3930 C.3    49  ALA49       0.1597
     74  C         57.1090 -162.1160   13.6220 C.2    49  ALA49       0.2287
     75  O         57.3790 -162.8950   12.7100 O.2    49  ALA49      -0.2864
     76  CB        58.2860 -160.0170   14.1720 C.3    49  ALA49       0.0319
     77  N         51.5570 -153.3560    4.5910 N.3   130  GLY130     -0.1210
     78  CA        52.3630 -152.6900    5.6130 C.3   130  GLY130      0.1956
     79  C         52.0000 -151.2230    5.7710 C.2   130  GLY130      0.2612
     80  O         51.2220 -150.6760    4.9900 O.2   130  GLY130     -0.2717
     81  N         52.5790 -150.5850    6.7870 N.am  131  SER131     -0.1952
     82  CA        52.3380 -149.1630    7.0680 C.3   131  SER131      0.1924
     83  C         52.7440 -148.2310    5.9160 C.2   131  SER131      0.2314
     84  O         52.1910 -147.1330    5.7870 O.2   131  SER131     -0.2863
     85  CB        53.0870 -148.7520    8.3290 C.3   131  SER131      0.2116
     86  OG        54.4650 -149.0480    8.1970 O.3   131  SER131     -0.2180
     87  N         58.0580 -145.8530    9.6470 N.3   170  TYR170     -0.1241
     88  CA        58.2330 -147.2410   10.0870 C.3   170  TYR170      0.1605
     89  C         58.7950 -148.1760    9.0100 C.2   170  TYR170      0.2264
     90  O         58.8990 -149.3870    9.2350 O.2   170  TYR170     -0.2867
     91  CB        56.9030 -147.8350   10.5570 C.3   170  TYR170      0.0534
     92  CG        56.1120 -147.0200   11.5460 C.ar  170  TYR170     -0.0201
     93  CD1       56.7310 -146.3650   12.6120 C.ar  170  TYR170     -0.0009
     94  CD2       54.7280 -146.9460   11.4430 C.ar  170  TYR170     -0.0009
     95  CE1       55.9910 -145.6360   13.5270 C.ar  170  TYR170      0.0417
     96  CE2       53.9810 -146.2210   12.3550 C.ar  170  TYR170      0.0417
     97  CZ        54.6160 -145.5680   13.3940 C.ar  170  TYR170      0.1957
     98  OH        53.8770 -144.8450   14.2970 O.3   170  TYR170     -0.2866
@<TRIPOS>BOND
     1    45    44    2
     2    77    78    1
     3    44    43    1
     4    80    79    2
     5    51    52    1
     6     4     3    2
     7     3     2    1
     8    78    79    1
     9    46    43    1
    10    46    47    1
    11    79    81   am
    12    84    83    2
    13    43    42    1
    14    83    82    1
    15    52    53    1
    16    52    55    1
    17    54    53    2
    18    63    60    1
    19     7     5    1
    20    53    59   am
    21    48    47    1
    22    48    49    1
    23    81    82    1
    24     2     5    1
    25     2     1    1
    26    56    55    1
    27    56    57    1
    28    82    85    1
    29    38    37    2
    30    59    60    1
    31     5     6    1
    32    60    61    1
    33    50    49    1
    34    37    36    1
    35     8     9    1
    36    86    85    1
    37    57    58    1
    38    18    16    1
    39    61    62    2
    40    61    64   am
    41    89    90    2
    42    89    88    1
    43    17    16    1
    44    12     9    1
    45    12    13    1
    46    16    15    2
    47    35    36    1
    48     9    10    1
    49    36    39    1
    50    87    88    1
    51    40    39    1
    52    64    65    1
    53    15    14    1
    54    11    10    2
    55    88    91    1
    56    39    41    1
    57    14    13    1
    58    10    19   am
    59    91    92    1
    60    65    66    1
    61    94    92   ar
    62    94    96   ar
    63    92    93   ar
    64    19    20    1
    65    66    67    2
    66    66    68   am
    67    96    97   ar
    68    71    70    2
    69    93    95   ar
    70    20    23    1
    71    20    21    1
    72    75    74    2
    73    68    69    1
    74    30    28    1
    75    70    72   am
    76    70    69    1
    77    73    74    1
    78    73    72    1
    79    73    76    1
    80    97    95   ar
    81    97    98    1
    82    21    24   am
    83    21    22    2
    84    24    25    1
    85    29    28    1
    86    28    25    1
    87    25    26    1
    88    27    26    2
    89    34    33    2
    90    33    32    1
    91    31    32    1
