@<TRIPOS>MOLECULE
tmp/6gopN00.pdb
 107 98 0 0 0
SMALL
GASTEIGER

@<TRIPOS>ATOM
      1  N         43.8620 -142.7000   63.3430 N.3     1  THR1       -0.1218
      2  CA        43.7280 -141.4780   64.1880 C.3     1  THR1        0.1862
      3  C         42.6810 -141.7430   65.2550 C.2     1  THR1        0.2287
      4  O         41.5900 -142.2290   64.9590 O.2     1  THR1       -0.2866
      5  CB        43.3100 -140.2910   63.3320 C.3     1  THR1        0.1770
      6  OG1       44.3420 -140.1040   62.3530 O.3     1  THR1       -0.2211
      7  CG2       43.1240 -138.9910   64.1400 C.3     1  THR1        0.0375
      8  N         50.0750 -140.1030   65.3470 N.3    19  ARG19      -0.1231
      9  CA        50.5270 -140.7000   64.0850 C.3    19  ARG19       0.1694
     10  C         49.8990 -140.0780   62.8400 C.2    19  ARG19       0.2593
     11  O         48.6880 -139.9120   62.7720 O.2    19  ARG19      -0.2718
     12  CB        50.2980 -142.2060   64.1230 C.3    19  ARG19       0.0321
     13  CG        50.3470 -142.9100   62.7730 C.3    19  ARG19       0.0489
     14  CD        50.1750 -144.3980   62.9620 C.3    19  ARG19       0.2205
     15  NE        51.2590 -144.9670   63.7530 N.pl3  19  ARG19      -0.0865
     16  CZ        51.3720 -146.2520   64.0580 C.cat  19  ARG19       0.5346
     17  NH1       50.4670 -147.1360   63.6400 N.pl3  19  ARG19       0.1354
     18  NH2       52.4060 -146.6590   64.7790 N.pl3  19  ARG19       0.1354
     19  N         50.7380 -139.7560   61.8580 N.am   20  THR20      -0.1939
     20  CA        50.2920 -139.3110   60.5360 C.3    20  THR20       0.2028
     21  C         50.7610 -140.3510   59.5260 C.2    20  THR20       0.2642
     22  O         51.9470 -140.6830   59.5010 O.2    20  THR20      -0.2714
     23  CB        50.8990 -137.9410   60.1720 C.3    20  THR20       0.1808
     24  OG1       50.6330 -137.0060   61.2220 O.3    20  THR20      -0.2208
     25  CG2       50.3070 -137.3940   58.8860 C.3    20  THR20       0.0379
     26  N         49.8440 -140.8630   58.7020 N.am   21  THR21      -0.1950
     27  CA        50.1990 -141.8720   57.6980 C.3    21  THR21       0.1897
     28  C         49.7210 -141.5250   56.3130 C.2    21  THR21       0.2313
     29  O         48.6100 -141.0300   56.1130 O.2    21  THR21      -0.2863
     30  CB        49.6640 -143.2830   58.0030 C.3    21  THR21       0.1794
     31  OG1       48.3810 -143.2010   58.6140 O.3    21  THR21      -0.2208
     32  CG2       50.5710 -144.0180   58.9330 C.3    21  THR21       0.0378
     33  N         48.9940 -143.8140   53.6500 N.3    23  GLY23      -0.1225
     34  CA        48.7960 -145.2610   53.5420 C.3    23  GLY23       0.1811
     35  C         49.2600 -145.9870   54.8040 C.2    23  GLY23       0.2280
     36  O         48.6610 -145.8290   55.8670 O.2    23  GLY23      -0.2866
     37  N         53.1320 -136.4800   65.9050 N.3    31  THR31      -0.1218
     38  CA        52.1850 -135.4430   65.4860 C.3    31  THR31       0.1862
     39  C         51.4030 -134.8280   66.6510 C.2    31  THR31       0.2287
     40  O         51.0180 -135.5310   67.5990 O.2    31  THR31      -0.2866
     41  CB        51.1770 -136.0580   64.4900 C.3    31  THR31       0.1770
     42  OG1       51.8910 -136.5930   63.3720 O.3    31  THR31      -0.2211
     43  CG2       50.1390 -135.0520   63.9960 C.3    31  THR31       0.0375
     44  N         47.9630 -133.3350   67.2130 N.3    33  LYS33      -0.1245
     45  CA        46.6220 -133.2150   66.6430 C.3    33  LYS33       0.1561
     46  C         45.6980 -132.4020   67.5430 C.2    33  LYS33       0.2260
     47  O         44.5170 -132.2270   67.2260 O.2    33  LYS33      -0.2867
     48  CB        46.0270 -134.6000   66.3930 C.3    33  LYS33       0.0271
     49  CG        47.0100 -135.5580   65.7570 C.3    33  LYS33       0.0035
     50  CD        46.3960 -136.9020   65.4560 C.3    33  LYS33       0.0206
     51  CE        47.4160 -137.7540   64.7320 C.3    33  LYS33       0.1093
     52  NZ        46.8130 -139.0020   64.1990 N.3    33  LYS33      -0.1314
     53  N         41.8460 -132.8740   65.8350 N.3    45  ARG45      -0.1231
     54  CA        41.9070 -132.9700   64.3760 C.3    45  ARG45       0.1694
     55  C         41.9690 -134.4050   63.8430 C.2    45  ARG45       0.2593
     56  O         42.8750 -135.1700   64.1850 O.2    45  ARG45      -0.2718
     57  CB        43.0950 -132.1700   63.8740 C.3    45  ARG45       0.0321
     58  CG        42.8960 -130.6840   64.0720 C.3    45  ARG45       0.0489
     59  CD        43.8700 -129.8790   63.2520 C.3    45  ARG45       0.2205
     60  NE        45.2270 -129.9800   63.7730 N.pl3  45  ARG45      -0.0865
     61  CZ        46.2570 -130.5880   63.1760 C.cat  45  ARG45       0.5346
     62  NH1       46.1430 -131.1890   61.9910 N.pl3  45  ARG45       0.1354
     63  NH2       47.4390 -130.5880   63.7800 N.pl3  45  ARG45       0.1354
     64  N         40.9880 -134.7370   62.9980 N.am   46  SER46      -0.1938
     65  CA        40.9090 -136.0200   62.2900 C.3    46  SER46       0.2055
     66  C         40.5950 -135.7600   60.8180 C.2    46  SER46       0.2644
     67  O         40.0680 -134.7070   60.4560 O.2    46  SER46      -0.2714
     68  CB        39.8370 -136.9350   62.9050 C.3    46  SER46       0.2130
     69  OG        38.5230 -136.4560   62.6600 O.3    46  SER46      -0.2179
     70  N         40.9100 -136.7340   59.9770 N.am   47  GLY47      -0.1939
     71  CA        40.7320 -136.5920   58.5370 C.3    47  GLY47       0.2014
     72  C         41.9930 -136.1170   57.8290 C.2    47  GLY47       0.2640
     73  O         43.0690 -136.6560   58.0380 O.2    47  GLY47      -0.2714
     74  N         41.8550 -135.1210   56.9640 N.am   48  SER48      -0.1935
     75  CA        42.9950 -134.5790   56.2330 C.3    48  SER48       0.2055
     76  C         43.8200 -133.6650   57.1300 C.2    48  SER48       0.2642
     77  O         43.2700 -132.8180   57.8340 O.2    48  SER48      -0.2714
     78  CB        42.5210 -133.7830   55.0260 C.3    48  SER48       0.2130
     79  OG        43.5680 -132.9760   54.5120 O.3    48  SER48      -0.2179
     80  N         45.1400 -133.8290   57.0870 N.am   49  ALA49      -0.1977
     81  CA        46.0480 -132.9490   57.8220 C.3    49  ALA49       0.1597
     82  C         46.0320 -131.5510   57.2390 C.2    49  ALA49       0.2287
     83  O         45.8900 -130.5840   57.9650 O.2    49  ALA49      -0.2864
     84  CB        47.4590 -133.5100   57.8210 C.3    49  ALA49       0.0319
     85  N         42.3820 -129.8480   57.8570 N.3    52  THR52      -0.1218
     86  CA        42.1640 -129.5150   59.2700 C.3    52  THR52       0.1862
     87  C         43.1040 -128.4150   59.7820 C.2    52  THR52       0.2287
     88  O         42.7120 -127.6270   60.6400 O.2    52  THR52      -0.2866
     89  CB        42.2730 -130.7530   60.1860 C.3    52  THR52       0.1770
     90  OG1       43.5490 -131.3880   60.0170 O.3    52  THR52      -0.2211
     91  CG2       41.1670 -131.7360   59.8950 C.3    52  THR52       0.0375
     92  N         37.8590 -140.1770   64.6270 N.3   128  GLY128     -0.1210
     93  CA        38.9980 -140.7510   63.9190 C.3   128  GLY128      0.1956
     94  C         38.7970 -142.2470   63.7360 C.2   128  GLY128      0.2612
     95  O         37.9050 -142.8440   64.3380 O.2   128  GLY128     -0.2717
     96  N         39.6340 -142.8480   62.8950 N.am  129  SER129     -0.1952
     97  CA        39.5240 -144.2710   62.5580 C.3   129  SER129      0.1924
     98  C         39.5670 -145.1820   63.7890 C.2   129  SER129      0.2314
     99  O         38.8050 -146.1380   63.8880 O.2   129  SER129     -0.2863
    100  CB        40.6380 -144.6650   61.5940 C.3   129  SER129      0.2116
    101  OG        41.9020 -144.4220   62.1720 O.3   129  SER129     -0.2180
    102  N         46.1620 -147.1940   61.8790 N.3   168  SER168     -0.1217
    103  CA        46.2790 -145.7670   61.5860 C.3   168  SER168      0.1889
    104  C         46.5940 -144.8950   62.8250 C.2   168  SER168      0.2288
    105  O         46.9940 -143.7370   62.6770 O.2   168  SER168     -0.2866
    106  CB        45.0090 -145.2710   60.8780 C.3   168  SER168      0.2089
    107  OG        44.6730 -146.1010   59.7730 O.3   168  SER168     -0.2183
@<TRIPOS>BOND
     1    34    33    1
     2    34    35    1
     3    79    78    1
     4    35    36    2
     5    78    75    1
     6    29    28    2
     7    75    74    1
     8    75    76    1
     9    28    27    1
    10    74    72   am
    11    80    76   am
    12    80    81    1
    13    76    77    2
    14    82    81    1
    15    82    83    2
    16    27    30    1
    17    27    26    1
    18    84    81    1
    19    72    73    2
    20    72    71    1
    21    85    86    1
    22    30    31    1
    23    30    32    1
    24    71    70    1
    25    26    21   am
    26    25    23    1
    27    86    87    1
    28    86    89    1
    29    22    21    2
    30    21    20    1
    31   107   106    1
    32    87    88    2
    33    91    89    1
    34    70    66   am
    35    90    89    1
    36    23    20    1
    37    23    24    1
    38    67    66    2
    39    20    19    1
    40    66    65    1
    41   106   103    1
    42   103   102    1
    43   103   104    1
    44   100   101    1
    45   100    97    1
    46    19    10   am
    47    62    61    1
    48    65    68    1
    49    65    64    1
    50     6     5    1
    51    97    96    1
    52    97    98    1
    53    69    68    1
    54   105   104    2
    55    11    10    2
    56    13    14    1
    57    13    12    1
    58    10     9    1
    59    96    94   am
    60    14    15    1
    61    64    55   am
    62    61    60    2
    63    61    63    1
    64    59    60    1
    65    59    58    1
    66     5     7    1
    67     5     2    1
    68     1     2    1
    69    42    41    1
    70    17    16    1
    71    94    93    1
    72    94    95    2
    73    15    16    2
    74    98    99    2
    75    55    56    2
    76    55    54    1
    77    57    58    1
    78    57    54    1
    79    93    92    1
    80    43    41    1
    81    16    18    1
    82     9    12    1
    83     9     8    1
    84     2     3    1
    85    52    51    1
    86    54    53    1
    87    41    38    1
    88    51    50    1
    89     4     3    2
    90    50    49    1
    91    38    37    1
    92    38    39    1
    93    49    48    1
    94    48    45    1
    95    45    44    1
    96    45    46    1
    97    39    40    2
    98    47    46    2
