@<TRIPOS>MOLECULE
tmp/6gopH00.pdb
 111 103 0 0 0
SMALL
GASTEIGER

@<TRIPOS>ATOM
      1  N         64.8610 -139.1600   45.0870 N.3     1  THR1       -0.1218
      2  CA        65.2300 -137.9060   45.7880 C.3     1  THR1        0.1862
      3  C         65.2450 -138.1740   47.2720 C.2     1  THR1        0.2287
      4  O         64.3200 -138.7840   47.8270 O.2     1  THR1       -0.2866
      5  CB        64.2240 -136.7870   45.5160 C.3     1  THR1        0.1770
      6  OG1       64.1330 -136.5980   44.0900 O.3     1  THR1       -0.2211
      7  CG2       64.6300 -135.4540   46.1820 C.3     1  THR1        0.0375
      8  N         70.4450 -135.8310   42.1330 N.3    19  ARG19      -0.1231
      9  CA        69.9120 -136.5180   40.9490 C.3    19  ARG19       0.1694
     10  C         68.4710 -136.1190   40.6500 C.2    19  ARG19       0.2593
     11  O         67.6170 -136.1690   41.5350 O.2    19  ARG19      -0.2718
     12  CB        70.0040 -138.0350   41.1370 C.3    19  ARG19       0.0321
     13  CG        68.9800 -138.8430   40.3380 C.3    19  ARG19       0.0489
     14  CD        69.1180 -140.3370   40.5440 C.3    19  ARG19       0.2205
     15  NE        70.4420 -140.8400   40.2020 N.pl3  19  ARG19      -0.0865
     16  CZ        70.7900 -142.1250   40.2060 C.cat  19  ARG19       0.5346
     17  NH1       69.9160 -143.0730   40.5310 N.pl3  19  ARG19       0.1354
     18  NH2       72.0320 -142.4650   39.8750 N.pl3  19  ARG19       0.1354
     19  N         68.1980 -135.7540   39.4000 N.am   20  SER20      -0.1938
     20  CA        66.8220 -135.5960   38.9460 C.3    20  SER20       0.2055
     21  C         66.5970 -136.5150   37.7680 C.2    20  SER20       0.2643
     22  O         67.3800 -136.5370   36.8260 O.2    20  SER20      -0.2714
     23  CB        66.4950 -134.1480   38.5920 C.3    20  SER20       0.2130
     24  OG        67.1860 -133.7110   37.4440 O.3    20  SER20      -0.2179
     25  N         65.5190 -137.2790   37.8410 N.am   21  THR21      -0.1950
     26  CA        65.2170 -138.2780   36.8470 C.3    21  THR21       0.1897
     27  C         63.8830 -137.9800   36.2140 C.2    21  THR21       0.2313
     28  O         62.9640 -137.4940   36.8810 O.2    21  THR21      -0.2863
     29  CB        65.1300 -139.6770   37.4690 C.3    21  THR21       0.1794
     30  OG1       63.9570 -139.7630   38.2910 O.3    21  THR21      -0.2208
     31  CG2       66.3680 -139.9730   38.3080 C.3    21  THR21       0.0378
     32  N         61.3130 -140.4270   34.3760 N.3    23  GLY23      -0.1225
     33  CA        61.1170 -141.8540   34.1840 C.3    23  GLY23       0.1811
     34  C         62.2980 -142.6000   34.7870 C.2    23  GLY23       0.2280
     35  O         62.7160 -142.2790   35.9010 O.2    23  GLY23      -0.2866
     36  N         72.2020 -132.1760   40.3130 N.3    31  CYS31      -0.1221
     37  CA        71.1080 -131.2720   40.6210 C.3    31  CYS31       0.1808
     38  C         71.4180 -130.3650   41.7980 C.2    31  CYS31       0.2601
     39  O         72.3670 -130.6080   42.5440 O.2    31  CYS31      -0.2717
     40  CB        69.8790 -132.1000   40.9820 C.3    31  CYS31       0.0970
     41  SG        68.3830 -131.4570   40.2460 S.3    31  CYS31      -0.0800
     42  N         70.5870 -129.3400   41.9700 N.am   32  ALA32      -0.1965
     43  CA        70.6230 -128.4610   43.1420 C.3    32  ALA32       0.1728
     44  C         69.2250 -128.3980   43.7480 C.2    32  ALA32       0.2616
     45  O         68.3980 -127.5830   43.3340 O.2    32  ALA32      -0.2715
     46  CB        71.1000 -127.0730   42.7490 C.3    32  ALA32       0.0334
     47  N         68.9660 -129.2560   44.7320 N.am   33  LYS33      -0.1977
     48  CA        67.6430 -129.3200   45.3760 C.3    33  LYS33       0.1596
     49  C         67.5470 -128.4450   46.6160 C.2    33  LYS33       0.2287
     50  O         66.4940 -128.3840   47.2470 O.2    33  LYS33      -0.2864
     51  CB        67.3010 -130.7530   45.7360 C.3    33  LYS33       0.0298
     52  CG        67.5720 -131.6940   44.5910 C.3    33  LYS33       0.0038
     53  CD        67.0220 -133.0750   44.8410 C.3    33  LYS33       0.0206
     54  CE        67.5380 -134.0090   43.7660 C.3    33  LYS33       0.1093
     55  NZ        66.8360 -135.3140   43.7840 N.3    33  LYS33      -0.1314
     56  N         67.3230 -124.8460   47.8360 N.3    35  HIS35      -0.1241
     57  CA        66.9420 -123.5100   47.3950 C.3    35  HIS35       0.1621
     58  C         67.0990 -122.5360   48.5480 C.2    35  HIS35       0.2264
     59  O         66.9690 -122.9090   49.7120 O.2    35  HIS35      -0.2867
     60  CB        65.4900 -123.4830   46.9050 C.3    35  HIS35       0.0745
     61  CG        65.0880 -124.6940   46.1190 C.ar   35  HIS35       0.0817
     62  ND1       65.3560 -124.8370   44.7750 N.ar   35  HIS35      -0.2268
     63  CD2       64.4310 -125.8180   46.4950 C.ar   35  HIS35       0.1154
     64  CE1       64.8840 -126.0000   44.3560 C.ar   35  HIS35       0.1986
     65  NE2       64.3180 -126.6150   45.3800 N.ar   35  HIS35      -0.2212
     66  N         64.0370 -129.4610   48.3770 N.3    45  GLY45      -0.1210
     67  CA        62.8200 -129.6900   47.5980 C.3    45  GLY45       0.1956
     68  C         62.7470 -131.0530   46.9480 C.2    45  GLY45       0.2612
     69  O         63.7310 -131.5400   46.3920 O.2    45  GLY45      -0.2717
     70  N         61.5620 -131.6540   47.0170 N.am   46  ALA46      -0.1965
     71  CA        61.2790 -132.9460   46.3980 C.3    46  ALA46       0.1728
     72  C         59.9550 -132.8590   45.6620 C.2    46  ALA46       0.2617
     73  O         59.1650 -131.9490   45.9070 O.2    46  ALA46      -0.2715
     74  CB        61.2150 -134.0330   47.4510 C.3    46  ALA46       0.0334
     75  N         59.7150 -133.8150   44.7710 N.am   47  GLY47      -0.1940
     76  CA        58.5120 -133.8220   43.9350 C.3    47  GLY47       0.2014
     77  C         58.7600 -133.2170   42.5620 C.2    47  GLY47       0.2640
     78  O         59.8030 -133.4600   41.9590 O.2    47  GLY47      -0.2714
     79  N         57.7940 -132.4440   42.0610 N.am   48  THR48      -0.1936
     80  CA        57.9030 -131.7990   40.7510 C.3    48  THR48       0.2028
     81  C         58.9110 -130.6500   40.7910 C.2    48  THR48       0.2642
     82  O         58.6740 -129.6200   41.4160 O.2    48  THR48      -0.2714
     83  CB        56.5420 -131.2860   40.2570 C.3    48  THR48       0.1808
     84  OG1       55.5900 -132.3570   40.2870 O.3    48  THR48      -0.2208
     85  CG2       56.6420 -130.7500   38.8240 C.3    48  THR48       0.0379
     86  N         60.0240 -130.8550   40.0930 N.am   49  ALA49      -0.1977
     87  CA        61.1850 -129.9460   40.0620 C.3    49  ALA49       0.1597
     88  C         60.9200 -128.4850   39.7310 C.2    49  ALA49       0.2287
     89  O         61.5020 -127.5840   40.3370 O.2    49  ALA49      -0.2864
     90  CB        62.2090 -130.4950   39.0820 C.3    49  ALA49       0.0319
     91  N         58.9340 -127.0240   42.8400 N.3    52  THR52      -0.1218
     92  CA        59.7500 -126.7500   44.0360 C.3    52  THR52       0.1862
     93  C         60.5960 -125.5060   43.8100 C.2    52  THR52       0.2287
     94  O         60.6870 -124.6460   44.6800 O.2    52  THR52      -0.2866
     95  CB        60.6960 -127.9070   44.4430 C.3    52  THR52       0.1770
     96  OG1       61.7300 -128.0770   43.4620 O.3    52  THR52      -0.2211
     97  CG2       59.9420 -129.2000   44.6240 C.3    52  THR52       0.0375
     98  N         60.6770 -137.4990   50.1820 N.3   128  GLY128     -0.1210
     99  CA        60.9650 -138.0620   48.8590 C.3   128  GLY128      0.1956
    100  C         61.0160 -139.5740   48.8150 C.2   128  GLY128      0.2612
    101  O         60.6860 -140.2440   49.7960 O.2   128  GLY128     -0.2717
    102  N         61.4280 -140.1090   47.6670 N.am  129  SER129     -0.1952
    103  CA        61.5160 -141.5700   47.4600 C.3   129  SER129      0.1924
    104  C         62.6220 -142.2380   48.2800 C.2   129  SER129      0.2314
    105  O         62.5100 -143.4180   48.6350 O.2   129  SER129     -0.2863
    106  CB        61.7220 -141.9070   45.9800 C.3   129  SER129      0.2116
    107  OG        62.8920 -141.2840   45.4660 O.3   129  SER129     -0.2180
    108  N         65.8090 -143.6780   42.7460 N.3   168  GLY168     -0.1225
    109  CA        65.4560 -142.2940   42.4570 C.3   168  GLY168      0.1811
    110  C         66.4410 -141.2830   43.0130 C.2   168  GLY168      0.2280
    111  O         66.3030 -140.0890   42.7530 O.2   168  GLY168     -0.2866
@<TRIPOS>BOND
     1    33    32    1
     2    33    34    1
     3    34    35    2
     4    27    26    1
     5    27    28    2
     6    22    21    2
     7    26    29    1
     8    26    25    1
     9    24    23    1
    10    29    30    1
    11    29    31    1
    12    21    25   am
    13    21    20    1
    14    23    20    1
    15    85    83    1
    16    20    19    1
    17    90    87    1
    18    19    10   am
    19    88    87    1
    20    88    89    2
    21    18    16    1
    22    87    86    1
    23    86    81   am
    24    15    16    2
    25    15    14    1
    26    16    17    1
    27    41    40    1
    28    83    84    1
    29    83    80    1
    30    36    37    1
    31    13    14    1
    32    13    12    1
    33    37    40    1
    34    37    38    1
    35    10     9    1
    36    10    11    2
    37    80    81    1
    38    80    79    1
    39    81    82    2
    40     9    12    1
    41     9     8    1
    42    38    42   am
    43    38    39    2
    44    78    77    2
    45    42    43    1
    46    79    77   am
    47   109   108    1
    48   109   110    1
    49    77    76    1
    50    46    43    1
    51   111   110    2
    52    91    92    1
    53    43    44    1
    54    45    44    2
    55    96    95    1
    56    44    47   am
    57    54    55    1
    58    54    53    1
    59    93    92    1
    60    93    94    2
    61    76    75    1
    62    92    95    1
    63     6     5    1
    64    64    62   ar
    65    64    65   ar
    66    95    97    1
    67    52    53    1
    68    52    51    1
    69    47    48    1
    70    75    72   am
    71    62    61   ar
    72     1     2    1
    73    48    51    1
    74    48    49    1
    75    65    63   ar
    76   107   106    1
    77     5     2    1
    78     5     7    1
    79    72    73    2
    80    72    71    1
    81     2     3    1
    82   106   103    1
    83    61    63   ar
    84    61    60    1
    85    69    68    2
    86    71    70    1
    87    71    74    1
    88    49    50    2
    89    60    57    1
    90    68    70   am
    91    68    67    1
    92     3     4    2
    93    57    56    1
    94    57    58    1
    95   103   102    1
    96   103   104    1
    97    67    66    1
    98   102   100   am
    99   104   105    2
   100    58    59    2
   101   100    99    1
   102   100   101    2
   103    99    98    1
