@<TRIPOS>MOLECULE
tmp/6gotA00.pdb
 150 146 0 0 0
SMALL
GASTEIGER

@<TRIPOS>ATOM
      1  N         -0.6800   -2.0830    6.3310 N.3    61  HIS61      -0.1241
      2  CA        -0.8630   -2.8900    7.5580 C.3    61  HIS61       0.1621
      3  C         -2.2840   -3.3580    7.8830 C.2    61  HIS61       0.2264
      4  O         -2.4530   -4.2250    8.6300 O.2    61  HIS61      -0.2867
      5  CB        -0.1990   -2.3140    8.8050 C.3    61  HIS61       0.0745
      6  CG        -0.5200   -0.9080    9.1240 C.ar   61  HIS61       0.0817
      7  ND1        0.2530    0.1440    8.6950 N.ar   61  HIS61      -0.2268
      8  CD2       -1.4660   -0.3780    9.9260 C.ar   61  HIS61       0.1154
      9  CE1       -0.2330    1.2640    9.1900 C.ar   61  HIS61       0.1986
     10  NE2       -1.2590    0.9730    9.9640 N.ar   61  HIS61      -0.2212
     11  N        -12.6100    6.1550   11.1800 N.3    89  GLN89      -0.1245
     12  CA       -12.3380    4.9950   10.3360 C.3    89  GLN89       0.1566
     13  C        -12.6210    3.7250   11.1020 C.2    89  GLN89       0.2260
     14  O        -12.6310    3.7480   12.3400 O.2    89  GLN89      -0.2867
     15  CB       -10.8820    4.9590    9.7750 C.3    89  GLN89       0.0367
     16  CG        -9.7800    5.1970   10.8150 C.3    89  GLN89       0.0905
     17  CD        -9.0970    3.9350   11.2910 C.2    89  GLN89       0.2608
     18  OE1       -9.6310    2.8220   11.2070 O.2    89  GLN89      -0.2717
     19  NE2       -7.8560    4.1100   11.7560 N.am   89  GLN89      -0.0878
     20  N        -11.1680   -0.5580   10.9100 N.3    91  HIS91      -0.1241
     21  CA       -10.3300   -1.5330   10.2850 C.3    91  HIS91       0.1621
     22  C        -10.3840   -2.8140   11.0920 C.2    91  HIS91       0.2264
     23  O        -11.0120   -2.8430   12.1320 O.2    91  HIS91      -0.2867
     24  CB        -8.8730   -1.0360   10.2440 C.3    91  HIS91       0.0745
     25  CG        -8.3220   -0.7440   11.6140 C.ar   91  HIS91       0.0817
     26  ND1       -8.4990    0.4780   12.2620 N.ar   91  HIS91      -0.2268
     27  CD2       -7.6700   -1.5430   12.4900 C.ar   91  HIS91       0.1154
     28  CE1       -7.9620    0.4090   13.4710 C.ar   91  HIS91       0.1986
     29  NE2       -7.4500   -0.8010   13.6330 N.ar   91  HIS91      -0.2212
     30  N         -8.0650   -6.5630   12.3830 N.3    93  HIS93      -0.1241
     31  CA        -6.8330   -7.3440   12.5570 C.3    93  HIS93       0.1621
     32  C         -7.2350   -8.8070   12.4670 C.2    93  HIS93       0.2264
     33  O         -8.2890   -9.1790   13.0060 O.2    93  HIS93      -0.2867
     34  CB        -6.2190   -7.1100   13.9320 C.3    93  HIS93       0.0745
     35  CG        -5.9500   -5.6800   14.2100 C.ar   93  HIS93       0.0817
     36  ND1       -4.7230   -5.0920   13.9420 N.ar   93  HIS93      -0.2268
     37  CD2       -6.7590   -4.6980   14.6850 C.ar   93  HIS93       0.1154
     38  CE1       -4.7780   -3.8150   14.3110 C.ar   93  HIS93       0.1986
     39  NE2       -6.0190   -3.5380   14.7040 N.ar   93  HIS93      -0.2212
     40  N        -11.9840   -2.7240   14.8360 N.3   116  HIS116     -0.1241
     41  CA       -11.7870   -1.5120   15.6200 C.3   116  HIS116      0.1621
     42  C        -12.4520   -0.3800   14.9120 C.2   116  HIS116      0.2264
     43  O        -12.0560    0.0040   13.7770 O.2   116  HIS116     -0.2867
     44  CB       -10.2690   -1.2140   15.7240 C.3   116  HIS116      0.0745
     45  CG        -9.5530   -2.2060   16.5690 C.ar  116  HIS116      0.0817
     46  ND1       -8.1750   -2.4110   16.5390 N.ar  116  HIS116     -0.2268
     47  CD2      -10.0470   -3.0380   17.5120 C.ar  116  HIS116      0.1154
     48  CE1       -7.8710   -3.3270   17.4470 C.ar  116  HIS116      0.1986
     49  NE2       -8.9830   -3.7290   18.0410 N.ar  116  HIS116     -0.2212
     50  N        -12.8150    3.4160   15.1870 N.3   118  VAL118     -0.1245
     51  CA       -11.9690    4.4230   15.8180 C.3   118  VAL118      0.1561
     52  C        -12.6390    5.7760   15.8380 C.2   118  VAL118      0.2260
     53  O        -13.0710    6.2930   14.7650 O.2   118  VAL118     -0.2867
     54  CB       -10.6200    4.5500   15.0530 C.3   118  VAL118      0.0252
     55  CG1       -9.7370    5.6460   15.6860 C.3   118  VAL118      0.0019
     56  CG2       -9.8840    3.1990   14.9390 C.3   118  VAL118      0.0019
     57  N         -8.1940   14.7440   14.7210 N.3   127  PHE127     -0.1227
     58  CA        -7.6300   13.4670   15.1310 C.3   127  PHE127      0.1736
     59  C         -6.1850   13.6070   15.5490 C.2   127  PHE127      0.2596
     60  O         -5.7550   13.0010   16.5580 O.2   127  PHE127     -0.2718
     61  CB        -7.7480   12.4550   13.9710 C.3   127  PHE127      0.0547
     62  CG        -7.1330   11.1110   14.2610 C.ar  127  PHE127     -0.0202
     63  CD1       -7.8630   10.1220   14.9400 C.ar  127  PHE127     -0.0042
     64  CD2       -5.8420   10.8270   13.8780 C.ar  127  PHE127     -0.0042
     65  CE1       -7.3430    8.8930   15.2200 C.ar  127  PHE127     -0.0003
     66  CE2       -5.2990    9.5870   14.1450 C.ar  127  PHE127     -0.0003
     67  CZ        -6.0360    8.6160   14.8470 C.ar  127  PHE127     -0.0000
     68  N         -5.4170   14.3810   14.7700 N.am  128  GLY128     -0.1957
     69  CA        -4.0020   14.5370   15.1010 C.3   128  GLY128      0.1869
     70  C         -3.7990   15.2060   16.4650 C.2   128  GLY128      0.2309
     71  O         -2.8220   14.9210   17.1730 O.2   128  GLY128     -0.2863
     72  N         -4.8880   12.4470   19.4030 N.3   131  VAL131     -0.1245
     73  CA        -3.9290   11.3650   19.7990 C.3   131  VAL131      0.1561
     74  C         -2.8520   11.8090   20.7970 C.2   131  VAL131      0.2260
     75  O         -2.1860   10.9730   21.4090 O.2   131  VAL131     -0.2867
     76  CB        -3.2580   10.6350   18.6010 C.3   131  VAL131      0.0252
     77  CG1       -4.3390    9.9750   17.7520 C.3   131  VAL131      0.0019
     78  CG2       -2.3960   11.5960   17.7700 C.3   131  VAL131      0.0019
     79  N        -11.9840    3.6700   21.1270 N.3   139  VAL139     -0.1245
     80  CA       -11.9950    2.6440   20.0920 C.3   139  VAL139      0.1561
     81  C        -12.9720    1.5830   20.5500 C.2   139  VAL139      0.2260
     82  O        -12.8390    1.0620   21.6540 O.2   139  VAL139     -0.2867
     83  CB       -10.6260    2.0500   19.7140 C.3   139  VAL139      0.0252
     84  CG1      -10.7990    1.0300   18.5570 C.3   139  VAL139      0.0019
     85  CG2       -9.6810    3.1550   19.2740 C.3   139  VAL139      0.0019
     86  N         -3.0160    3.0970   21.1470 N.3   194  LEU194     -0.1231
     87  CA        -3.0840    2.5570   19.7870 C.3   194  LEU194      0.1693
     88  C         -2.3400    1.2280   19.8550 C.2   194  LEU194      0.2593
     89  O         -1.3000    1.0960   20.5940 O.2   194  LEU194     -0.2718
     90  CB        -2.3720    3.4840   18.7780 C.3   194  LEU194      0.0284
     91  CG        -2.7860    4.9660   18.7810 C.3   194  LEU194      0.0019
     92  CD1       -1.8320    5.7270   17.8980 C.3   194  LEU194      0.0001
     93  CD2       -4.2170    5.1280   18.2830 C.3   194  LEU194      0.0001
     94  N         -2.7740    0.2680   19.0430 N.am  195  THR195     -0.1939
     95  CA        -2.0370   -1.0200   19.0210 C.3   195  THR195      0.2028
     96  C         -1.0550   -1.0890   17.8580 C.2   195  THR195      0.2643
     97  O         -0.4640   -2.1240   17.6620 O.2   195  THR195     -0.2714
     98  CB        -2.9990   -2.1900   18.8980 C.3   195  THR195      0.1808
     99  OG1       -3.6480   -2.0790   17.6190 O.3   195  THR195     -0.2208
    100  CG2       -4.0470   -2.1880   20.0700 C.3   195  THR195      0.0379
    101  N         -0.9120   -0.0280   17.0650 N.am  196  THR196     -0.1937
    102  CA         0.1780    0.0660   16.0710 C.3   196  THR196      0.2013
    103  C          1.0070    1.3100   16.4050 C.2   196  THR196      0.2484
    104  O          0.5120    2.2410   17.0600 O.2   196  THR196     -0.2729
    105  CB        -0.3920    0.2230   14.6300 C.3   196  THR196      0.1807
    106  OG1       -1.2820    1.3490   14.5620 O.3   196  THR196     -0.2208
    107  CG2       -1.1790   -1.0170   14.1650 C.3   196  THR196      0.0379
    108  N          2.2620    1.3480   15.9280 N.am  197  PRO197     -0.2715
    109  CA         3.0180    2.5990   16.0930 C.3   197  PRO197      0.1521
    110  C          2.1920    3.7550   15.5660 C.2   197  PRO197      0.2440
    111  O          1.5190    3.6250   14.5310 O.2   197  PRO197     -0.2731
    112  CB         4.2220    2.3520   15.1620 C.3   197  PRO197      0.0310
    113  CG         4.4980    0.9360   15.4290 C.3   197  PRO197      0.0237
    114  CD         3.0990    0.3110   15.3080 C.3   197  PRO197      0.0939
    115  N          2.2340    4.9120   16.2110 N.am  198  PRO198     -0.2727
    116  CA         3.1460    5.2650   17.3120 C.3   198  PRO198      0.1402
    117  C          2.7980    4.8120   18.7690 C.2   198  PRO198      0.2269
    118  O          3.4430    5.2790   19.7480 O.2   198  PRO198     -0.2865
    119  CB         3.1990    6.8140   17.1880 C.3   198  PRO198      0.0296
    120  CG         1.8940    7.1840   16.5430 C.3   198  PRO198      0.0237
    121  CD         1.5420    6.0680   15.6180 C.3   198  PRO198      0.0939
    122  N          0.5060    5.4360   20.8190 N.3   200  LEU200     -0.1245
    123  CA         0.2140    6.5480   21.7630 C.3   200  LEU200      0.1561
    124  C         -0.8300    6.1260   22.7790 C.2   200  LEU200      0.2260
    125  O         -1.8400    5.4380   22.4110 O.2   200  LEU200     -0.2867
    126  CB        -0.2870    7.8020   21.0260 C.3   200  LEU200      0.0270
    127  CG         0.8150    8.2960   20.0640 C.3   200  LEU200      0.0019
    128  CD1        0.2490    9.3400   19.1090 C.3   200  LEU200      0.0001
    129  CD2        2.0010    8.8920   20.8310 C.3   200  LEU200      0.0001
    130  N         -6.1680    6.1990   24.3000 N.3   203  VAL203     -0.1245
    131  CA        -7.3970    5.4470   23.9220 C.3   203  VAL203      0.1561
    132  C         -8.1710    4.9820   25.1440 C.2   203  VAL203      0.2260
    133  O         -7.6180    4.3750   26.0700 O.2   203  VAL203     -0.2867
    134  CB        -7.0900    4.2110   23.0370 C.3   203  VAL203      0.0252
    135  CG1       -8.4060    3.4870   22.7040 C.3   203  VAL203      0.0019
    136  CG2       -6.3500    4.6110   21.7360 C.3   203  VAL203      0.0019
    137  N        -10.5760    2.1950   25.6720 N.3   205  TRP205     -0.1241
    138  CA       -10.9910    1.0160   24.9200 C.3   205  TRP205      0.1605
    139  C        -12.3520    0.5440   25.4130 C.2   205  TRP205      0.2264
    140  O        -12.5950    0.5130   26.6110 O.2   205  TRP205     -0.2867
    141  CB        -9.9500   -0.1340   25.1500 C.3   205  TRP205      0.0550
    142  CG        -8.8610    0.0120   24.1750 C.ar  205  TRP205      0.0003
    143  CD1       -7.6040    0.5670   24.3740 C.ar  205  TRP205      0.0946
    144  CD2       -8.8990   -0.4280   22.8020 C.ar  205  TRP205      0.0152
    145  NE1       -6.9060    0.5500   23.1690 N.ar  205  TRP205     -0.2442
    146  CE2       -7.6570   -0.0990   22.2210 C.ar  205  TRP205      0.0810
    147  CE3       -9.8760   -1.0870   22.0200 C.ar  205  TRP205      0.0012
    148  CZ2       -7.3700   -0.3490   20.8700 C.ar  205  TRP205      0.0191
    149  CZ3       -9.5980   -1.3560   20.6860 C.ar  205  TRP205      0.0001
    150  CH2       -8.3380   -1.0070   20.1270 C.ar  205  TRP205      0.0015
@<TRIPOS>BOND
     1     1     2    1
     2     2     3    1
     3     2     5    1
     4     3     4    2
     5     7     6   ar
     6     7     9   ar
     7     5     6    1
     8     6     8   ar
     9     9    10   ar
    10    15    12    1
    11    15    16    1
    12     8    10   ar
    13    24    21    1
    14    24    25    1
    15    21    20    1
    16    21    22    1
    17    12    13    1
    18    12    11    1
    19    16    17    1
    20    22    23    2
    21    13    14    2
    22    18    17    2
    23    17    19   am
    24    25    26   ar
    25    25    27   ar
    26    26    28   ar
    27    30    31    1
    28    32    31    1
    29    32    33    2
    30    27    29   ar
    31    31    34    1
    32    28    29   ar
    33    43    42    2
    34    64    66   ar
    35    64    62   ar
    36    34    35    1
    37    36    35   ar
    38    36    38   ar
    39    61    62    1
    40    61    58    1
    41    66    67   ar
    42   107   105    1
    43    35    37   ar
    44    62    63   ar
    45    38    39   ar
    46   111   110    2
    47   106   105    1
    48   105   102    1
    49    37    39   ar
    50    57    58    1
    51    53    52    2
    52    68    69    1
    53    68    59   am
    54    40    41    1
    55    67    65   ar
    56    42    41    1
    57    56    54    1
    58    63    65   ar
    59    54    55    1
    60    54    51    1
    61    69    70    1
    62    58    59    1
    63   112   113    1
    64   112   109    1
    65    50    51    1
    66   114   113    1
    67   114   108    1
    68    59    60    2
    69   110   109    1
    70   110   115   am
    71   121   115    1
    72   121   120    1
    73    41    44    1
    74    44    45    1
    75    51    52    1
    76   108   109    1
    77   108   103   am
    78   102   103    1
    79   102   101    1
    80   115   116    1
    81   103   104    2
    82    70    71    2
    83    46    45   ar
    84    46    48   ar
    85   120   119    1
    86    45    47   ar
    87   101    96   am
    88   119   116    1
    89   116   117    1
    90    48    49   ar
    91    47    49   ar
    92    99    98    1
    93    97    96    2
    94    77    76    1
    95    78    76    1
    96    96    95    1
    97    92    91    1
    98    93    91    1
    99    84    83    1
   100    76    73    1
   101   117   118    2
   102    90    91    1
   103    90    87    1
   104    98    95    1
   105    98   100    1
   106    95    94    1
   107    94    88   am
   108   128   127    1
   109    85    83    1
   110    72    73    1
   111    83    80    1
   112    87    88    1
   113    87    86    1
   114    73    74    1
   115    88    89    2
   116   127   129    1
   117   127   126    1
   118    80    81    1
   119    80    79    1
   120   150   149   ar
   121   150   148   ar
   122    81    82    2
   123   149   147   ar
   124    74    75    2
   125   122   123    1
   126   148   146   ar
   127   126   123    1
   128   136   134    1
   129   123   124    1
   130   147   144   ar
   131   146   144   ar
   132   146   145   ar
   133   125   124    2
   134   135   134    1
   135   144   142   ar
   136   134   131    1
   137   145   143   ar
   138   131   130    1
   139   131   132    1
   140   142   143   ar
   141   142   141    1
   142   138   141    1
   143   138   139    1
   144   138   137    1
   145   132   133    2
   146   139   140    2
