@<TRIPOS>MOLECULE
tmp/6gp8A00.pdb
 168 159 0 0 0
SMALL
GASTEIGER

@<TRIPOS>ATOM
      1  N         13.8090    3.6040    3.8080 N.3    53  GLU53      -0.1231
      2  CA        12.4190    3.3090    4.0970 C.3    53  GLU53       0.1699
      3  C         12.0450    3.6890    5.5310 C.2    53  GLU53       0.2592
      4  O         10.9380    4.1230    5.7680 O.2    53  GLU53      -0.2718
      5  CB        12.2320    1.7960    3.8530 C.3    53  GLU53       0.0402
      6  CG        12.3970    1.4220    2.3800 C.3    53  GLU53       0.1161
      7  CD        11.4090    2.1450    1.4440 C.2    53  GLU53       0.3649
      8  OE1       10.2390    2.4130    1.8460 O.co2  53  GLU53      -0.2457
      9  OE2       11.9190    2.6940    0.4260 O.co2  53  GLU53      -0.2457
     10  N         12.9340    3.4300    6.5340 N.am   54  LEU54      -0.1980
     11  CA        12.5770    3.8020    7.8960 C.3    54  LEU54       0.1596
     12  C         12.5520    5.3250    8.0820 C.2    54  LEU54       0.2287
     13  O         11.6570    5.8140    8.7690 O.2    54  LEU54      -0.2864
     14  CB        13.6130    3.1860    8.8460 C.3    54  LEU54       0.0297
     15  CG        13.7400    1.6650    8.6440 C.3    54  LEU54       0.0022
     16  CD1       14.7460    1.0280    9.6170 C.3    54  LEU54       0.0001
     17  CD2       12.3910    0.9820    8.9490 C.3    54  LEU54       0.0001
     18  N         11.8820    7.4370    5.7790 N.3    56  SER56      -0.1202
     19  CA        10.6460    7.8100    5.0980 C.3    56  SER56       0.2020
     20  C          9.4240    7.7240    5.9990 C.2    56  SER56       0.2619
     21  O          8.5090    8.5720    5.9720 O.2    56  SER56      -0.2717
     22  CB        10.4090    6.9540    3.8820 C.3    56  SER56       0.2103
     23  OG        10.9850    7.6600    2.8340 O.3    56  SER56      -0.2182
     24  N          9.3140    6.6320    6.7370 N.am   57  ASN57      -0.1960
     25  CA         8.2010    6.4190    7.6550 C.3    57  ASN57       0.1819
     26  C          8.2260    7.4730    8.7390 C.2    57  ASN57       0.2622
     27  O          7.1840    7.9920    9.1770 O.2    57  ASN57      -0.2715
     28  CB         8.2810    5.0140    8.2720 C.3    57  ASN57       0.1195
     29  CG         7.9780    3.9610    7.2510 C.2    57  ASN57       0.2630
     30  OD1        7.2640    4.2800    6.2750 O.2    57  ASN57      -0.2716
     31  ND2        8.3940    2.7320    7.4900 N.am   57  ASN57      -0.0877
     32  N          9.4190    7.7810    9.2860 N.am   58  SER58      -0.1950
     33  CA         9.4810    8.7950   10.3220 C.3    58  SER58       0.1924
     34  C          9.0280   10.1500    9.7710 C.2    58  SER58       0.2314
     35  O          8.3420   10.9180   10.4660 O.2    58  SER58      -0.2863
     36  CB        10.9010    8.9380   10.8140 C.3    58  SER58       0.2116
     37  OG        11.3000    7.7380   11.5170 O.3    58  SER58      -0.2180
     38  N          7.0030   10.7200    7.3120 N.3    60  ASP60      -0.1225
     39  CA         5.5480   10.6830    7.2220 C.3    60  ASP60       0.1805
     40  C          4.8630   10.9810    8.5700 C.2    60  ASP60       0.2597
     41  O          3.8200   11.6050    8.6060 O.2    60  ASP60      -0.2718
     42  CB         4.9690    9.3510    6.6780 C.3    60  ASP60       0.1424
     43  CG         5.2760    9.0460    5.2180 C.2    60  ASP60       0.3668
     44  OD1        5.7260    9.9390    4.5150 O.co2  60  ASP60      -0.2456
     45  OD2        5.1810    7.8610    4.8680 O.co2  60  ASP60      -0.2456
     46  N          5.3460   10.3510    9.6670 N.am   61  ALA61      -0.1979
     47  CA         4.7740   10.4710   11.0220 C.3    61  ALA61       0.1597
     48  C          4.9610   11.9060   11.5270 C.2    61  ALA61       0.2287
     49  O          4.1000   12.3880   12.2820 O.2    61  ALA61      -0.2864
     50  CB         5.4200    9.4100   11.9640 C.3    61  ALA61       0.0319
     51  N          2.4670   14.1540    9.7320 N.3    64  LYS64      -0.1245
     52  CA         1.1790   14.0540   10.4160 C.3    64  LYS64       0.1561
     53  C          1.0250   14.9800   11.6230 C.2    64  LYS64       0.2260
     54  O         -0.0600   15.4050   11.9140 O.2    64  LYS64      -0.2867
     55  CB         0.7690   12.6210   10.7360 C.3    64  LYS64       0.0271
     56  CG         0.5150   11.8180    9.4590 C.3    64  LYS64       0.0035
     57  CD         0.4470   10.3880    9.7120 C.3    64  LYS64       0.0206
     58  CE         0.2370    9.5560    8.4320 C.3    64  LYS64       0.1093
     59  NZ         0.3630    8.1020    8.7780 N.3    64  LYS64      -0.1314
     60  N         12.0980    8.9520   16.1270 N.3    99  ASP99      -0.1239
     61  CA        11.4280   10.1850   15.6680 C.3    99  ASP99       0.1674
     62  C         10.4010   10.6710   16.7020 C.2    99  ASP99       0.2266
     63  O         10.0050    9.9350   17.6340 O.2    99  ASP99      -0.2867
     64  CB        10.7030    9.9700   14.3020 C.3    99  ASP99       0.1410
     65  CG         9.4620    9.0350   14.3240 C.2    99  ASP99       0.3668
     66  OD1        8.5240    9.3320   15.1120 O.co2  99  ASP99      -0.2456
     67  OD2        9.5640    7.9100   13.6960 O.co2  99  ASP99      -0.2456
     68  N          3.8700   11.1080   15.0910 N.3   102  ILE102     -0.1231
     69  CA         2.6810   10.9150   15.9120 C.3   102  ILE102      0.1692
     70  C          2.7140    9.6040   16.7070 C.2   102  ILE102      0.2593
     71  O          1.8570    9.4440   17.5550 O.2   102  ILE102     -0.2718
     72  CB         1.4800   10.8160   14.9390 C.3   102  ILE102      0.0266
     73  CG1        1.7220    9.7950   13.8480 C.3   102  ILE102      0.0019
     74  CG2        1.1530   12.2100   14.3680 C.3   102  ILE102      0.0020
     75  CD1        0.3610    9.3570   13.2010 C.3   102  ILE102      0.0001
     76  N          3.6260    8.6490   16.4290 N.am  103  GLY103     -0.1942
     77  CA         3.5690    7.3530   17.1100 C.3   103  GLY103      0.2014
     78  C          2.3950    6.4980   16.6260 C.2   103  GLY103      0.2638
     79  O          1.6630    6.8430   15.7020 O.2   103  GLY103     -0.2714
     80  N          2.3340    5.2970   17.2190 N.am  104  MET104     -0.1976
     81  CA         1.3130    4.3260   16.8970 C.3   104  MET104      0.1605
     82  C          0.6200    3.8770   18.1940 C.2   104  MET104      0.2287
     83  O          1.2650    3.6310   19.2270 O.2   104  MET104     -0.2864
     84  CB         1.9940    3.0940   16.2880 C.3   104  MET104      0.0413
     85  CG         2.3920    3.3720   14.8240 C.3   104  MET104      0.0598
     86  SD         3.2430    2.0330   13.9870 S.3   104  MET104     -0.1393
     87  CE         4.9030    2.2340   14.5970 C.3   104  MET104      0.0692
     88  N         -0.9350   -2.4080   11.4040 N.3   112  ASN112     -0.1225
     89  CA        -0.1240   -1.7390   10.3710 C.3   112  ASN112      0.1785
     90  C          1.1920   -2.4670   10.0960 C.2   112  ASN112      0.2597
     91  O          1.9000   -2.2490    9.0810 O.2   112  ASN112     -0.2718
     92  CB         0.1470   -0.2410   10.6300 C.3   112  ASN112      0.1169
     93  CG        -1.1110    0.5960   10.8540 C.2   112  ASN112      0.2627
     94  OD1       -2.2280    0.1500   10.5570 O.2   112  ASN112     -0.2716
     95  ND2       -1.0080    1.8380   11.3370 N.am  112  ASN112     -0.0877
     96  N          1.6020   -3.2690   11.1100 N.am  113  LEU113     -0.1980
     97  CA         2.9350   -3.8740   11.1000 C.3   113  LEU113      0.1596
     98  C          2.7340   -5.3840   11.1850 C.2   113  LEU113      0.2287
     99  O          3.4280   -6.0760   11.8710 O.2   113  LEU113     -0.2864
    100  CB         3.8550   -3.3320   12.2130 C.3   113  LEU113      0.0297
    101  CG         4.2350   -1.8470   12.0560 C.3   113  LEU113      0.0022
    102  CD1        5.1210   -1.4630   13.2560 C.3   113  LEU113      0.0001
    103  CD2        4.9550   -1.5960   10.7460 C.3   113  LEU113      0.0001
    104  N         10.0700    0.1950   -1.9290 N.3   138  GLY138     -0.1210
    105  CA         9.4790    1.4390   -1.4780 C.3   138  GLY138      0.1956
    106  C          8.3000    1.7870   -2.3790 C.2   138  GLY138      0.2611
    107  O          7.6080    2.7190   -2.0180 O.2   138  GLY138     -0.2717
    108  N          8.1140    1.1200   -3.5150 N.am  139  GLN139     -0.1979
    109  CA         6.9430    1.5130   -4.3360 C.3   139  GLN139      0.1601
    110  C          5.7710    0.5590   -4.2010 C.2   139  GLN139      0.2287
    111  O          4.6780    0.7880   -4.7990 O.2   139  GLN139     -0.2864
    112  CB         7.3760    1.6490   -5.7750 C.3   139  GLN139      0.0394
    113  CG         8.2500    2.8630   -5.9480 C.3   139  GLN139      0.0908
    114  CD         8.8080    2.7130   -7.3310 C.2   139  GLN139      0.2608
    115  OE1        8.0990    2.9560   -8.3030 O.2   139  GLN139     -0.2717
    116  NE2       10.0230    2.1870   -7.4220 N.am  139  GLN139     -0.0878
    117  N          4.4830   -0.5840   -1.1200 N.3   141  GLY141     -0.1210
    118  CA         3.7630   -0.3230    0.1300 C.3   141  GLY141      0.1956
    119  C          4.1590   -1.2710    1.2680 C.2   141  GLY141      0.2612
    120  O          3.3580   -1.5030    2.1870 O.2   141  GLY141     -0.2717
    121  N          5.3810   -1.8390    1.1810 N.am  142  VAL142     -0.1965
    122  CA         5.8150   -2.7810    2.2170 C.3   142  VAL142      0.1727
    123  C          7.2700   -2.4680    2.6160 C.2   142  VAL142      0.2617
    124  O          8.0060   -3.3750    3.1140 O.2   142  VAL142     -0.2715
    125  CB         5.7240   -4.2600    1.7330 C.3   142  VAL142      0.0290
    126  CG1        4.2760   -4.7500    1.6510 C.3   142  VAL142      0.0023
    127  CG2        6.3760   -4.4690    0.3570 C.3   142  VAL142      0.0023
    128  N          7.6380   -1.1850    2.5510 N.am  143  GLY143     -0.1940
    129  CA         9.0270   -0.8140    2.8180 C.3   143  GLY143      0.2014
    130  C          9.5120   -1.0820    4.2430 C.2   143  GLY143      0.2639
    131  O         10.7310   -1.2460    4.4400 O.2   143  GLY143     -0.2714
    132  N          8.6380   -1.1630    5.2640 N.am  144  PHE144     -0.1959
    133  CA         9.1170   -1.3820    6.6290 C.3   144  PHE144      0.1771
    134  C          9.8860   -2.7180    6.7180 C.2   144  PHE144      0.2619
    135  O         10.9020   -2.8070    7.4450 O.2   144  PHE144     -0.2715
    136  CB         7.9110   -1.3970    7.5930 C.3   144  PHE144      0.0574
    137  CG         8.2280   -1.9390    8.9690 C.ar  144  PHE144     -0.0200
    138  CD1        8.8160   -1.1030    9.9230 C.ar  144  PHE144     -0.0042
    139  CD2        8.0150   -3.2980    9.2590 C.ar  144  PHE144     -0.0042
    140  CE1        9.0960   -1.5650   11.2070 C.ar  144  PHE144     -0.0003
    141  CE2        8.3070   -3.7610   10.5360 C.ar  144  PHE144     -0.0003
    142  CZ         8.9460   -2.9270   11.4480 C.ar  144  PHE144     -0.0000
    143  N          9.4550   -3.7210    5.9380 N.am  145  TYR145     -0.1974
    144  CA        10.0490   -5.0750    6.0830 C.3   145  TYR145      0.1639
    145  C         11.4850   -5.0720    5.5640 C.2   145  TYR145      0.2290
    146  O         12.2060   -6.0520    5.7490 O.2   145  TYR145     -0.2864
    147  CB         9.1260   -6.1640    5.4840 C.3   145  TYR145      0.0560
    148  CG         7.7600   -6.0960    6.1430 C.ar  145  TYR145     -0.0198
    149  CD1        7.5520   -6.7250    7.3880 C.ar  145  TYR145     -0.0009
    150  CD2        6.7200   -5.3550    5.5920 C.ar  145  TYR145     -0.0009
    151  CE1        6.3520   -6.6130    8.0740 C.ar  145  TYR145      0.0417
    152  CE2        5.4940   -5.2680    6.2680 C.ar  145  TYR145      0.0417
    153  CZ         5.3060   -5.8790    7.4950 C.ar  145  TYR145      0.1957
    154  OH         4.0980   -5.7150    8.1450 O.3   145  TYR145     -0.2866
    155  N          8.2450    7.3310   17.7980 N.3   190  THR190     -0.1218
    156  CA         8.5530    5.9280   17.6020 C.3   190  THR190      0.1862
    157  C         10.0630    5.7380   17.5510 C.2   190  THR190      0.2287
    158  O         10.8180    6.5950   16.9820 O.2   190  THR190     -0.2866
    159  CB         7.9900    5.4560   16.2540 C.3   190  THR190      0.1770
    160  OG1        6.5970    5.6670   16.2350 O.3   190  THR190     -0.2211
    161  CG2        8.3010    4.0070   15.9810 C.3   190  THR190      0.0375
    162  N         12.7030    2.6910   16.2510 N.3   192  VAL192     -0.1245
    163  CA        12.8570    1.3780   15.6390 C.3   192  VAL192      0.1561
    164  C         14.2560    0.9330   16.0090 C.2   192  VAL192      0.2260
    165  O         15.2420    1.5580   15.5810 O.2   192  VAL192     -0.2867
    166  CB        12.6510    1.4460   14.1200 C.3   192  VAL192      0.0252
    167  CG1       12.9030    0.0380   13.4770 C.3   192  VAL192      0.0019
    168  CG2       11.2760    1.9470   13.7440 C.3   192  VAL192      0.0019
@<TRIPOS>BOND
     1   115   114    2
     2   116   114   am
     3   114   113    1
     4   113   112    1
     5   112   109    1
     6   111   110    2
     7   109   110    1
     8   109   108    1
     9   108   106   am
    10   106   107    2
    11   106   105    1
    12   104   105    1
    13   117   118    1
    14   118   119    1
    15   127   125    1
    16     9     7   ar
    17   121   119   am
    18   121   122    1
    19   119   120    2
    20     7     8   ar
    21     7     6    1
    22   126   125    1
    23   125   122    1
    24   122   123    1
    25     6     5    1
    26   128   123   am
    27   128   129    1
    28   123   124    2
    29   129   130    1
    30    23    22    1
    31     1     2    1
    32     5     2    1
    33    22    19    1
    34     2     3    1
    35   130   131    2
    36   130   132   am
    37    44    43   ar
    38    45    43   ar
    39    19    18    1
    40    19    20    1
    41    43    42    1
    42   132   133    1
    43   147   144    1
    44   147   148    1
    45     3     4    2
    46     3    10   am
    47   145   146    2
    48   145   144    1
    49   150   148   ar
    50   150   152   ar
    51   143   144    1
    52   143   134   am
    53    21    20    2
    54    20    24   am
    55   148   149   ar
    56   152   153   ar
    57    30    29    2
    58    10    11    1
    59   133   134    1
    60   133   136    1
    61    42    39    1
    62   134   135    2
    63    24    25    1
    64    39    38    1
    65    39    40    1
    66    29    31   am
    67    29    28    1
    68   149   151   ar
    69   153   151   ar
    70   153   154    1
    71   136   137    1
    72    25    28    1
    73    25    26    1
    74    11    12    1
    75    11    14    1
    76    12    13    2
    77    58    59    1
    78    58    57    1
    79    40    41    2
    80    40    46   am
    81    15    14    1
    82    15    17    1
    83    15    16    1
    84    26    27    2
    85    26    32   am
    86   137   139   ar
    87   137   138   ar
    88    91    90    2
    89   139   141   ar
    90    32    33    1
    91    56    57    1
    92    56    55    1
    93    46    47    1
    94    51    52    1
    95    34    33    1
    96    34    35    2
    97   138   140   ar
    98    90    89    1
    99    90    96   am
   100    33    36    1
   101    89    92    1
   102    89    88    1
   103    52    55    1
   104    52    53    1
   105   141   142   ar
   106    94    93    2
   107    92    93    1
   108   103   101    1
   109    36    37    1
   110    93    95   am
   111    47    48    1
   112    47    50    1
   113    97    96    1
   114    97    98    1
   115    97   100    1
   116    98    99    2
   117   140   142   ar
   118    48    49    2
   119    53    54    2
   120   101   100    1
   121   101   102    1
   122    75    73    1
   123   167   166    1
   124    67    65   ar
   125   168   166    1
   126    73    72    1
   127    86    87    1
   128    86    85    1
   129   166   163    1
   130    64    65    1
   131    64    61    1
   132    65    66   ar
   133    74    72    1
   134    85    84    1
   135    72    69    1
   136    68    69    1
   137   165   164    2
   138   163   164    1
   139   163   162    1
   140    61    60    1
   141    61    62    1
   142    79    78    2
   143    69    70    1
   144   161   159    1
   145   160   159    1
   146   159   156    1
   147    84    81    1
   148    76    70   am
   149    76    77    1
   150    78    77    1
   151    78    80   am
   152    62    63    2
   153    70    71    2
   154    81    80    1
   155    81    82    1
   156   158   157    2
   157   157   156    1
   158   156   155    1
   159    82    83    2
