@<TRIPOS>MOLECULE
tmp/6gpaA00.pdb
 119 119 0 0 0
SMALL
GASTEIGER

@<TRIPOS>ATOM
      1  N         -4.6660   -5.8340  -42.2970 N.3    15  TRP15      -0.1241
      2  CA        -5.3760   -5.3450  -41.1250 C.3    15  TRP15       0.1605
      3  C         -5.4530   -6.4120  -40.0230 C.2    15  TRP15       0.2264
      4  O         -5.8350   -6.0870  -38.8830 O.2    15  TRP15      -0.2867
      5  CB        -6.7990   -4.9040  -41.4680 C.3    15  TRP15       0.0550
      6  CG        -6.9970   -3.4660  -41.7920 C.ar   15  TRP15       0.0003
      7  CD1       -6.3550   -2.3740  -41.2820 C.ar   15  TRP15       0.0946
      8  CD2       -7.9950   -2.9610  -42.6950 C.ar   15  TRP15       0.0152
      9  NE1       -6.8680   -1.2250  -41.8310 N.ar   15  TRP15      -0.2442
     10  CE2       -7.8930   -1.5540  -42.6800 C.ar   15  TRP15       0.0810
     11  CE3       -8.9830   -3.5600  -43.4850 C.ar   15  TRP15       0.0012
     12  CZ2       -8.7350   -0.7460  -43.4460 C.ar   15  TRP15       0.0191
     13  CZ3       -9.7770   -2.7600  -44.2690 C.ar   15  TRP15       0.0001
     14  CH2       -9.6560   -1.3740  -44.2490 C.ar   15  TRP15       0.0015
     15  N         -1.2910    5.3850  -45.8750 N.3    93  TRP93      -0.1227
     16  CA        -1.8910    4.8540  -47.0890 C.3    93  TRP93       0.1737
     17  C         -1.3080    5.5700  -48.2970 C.2    93  TRP93       0.2595
     18  O         -1.3520    6.7890  -48.3280 O.2    93  TRP93      -0.2718
     19  CB        -3.4130    5.0760  -47.0720 C.3    93  TRP93       0.0564
     20  CG        -4.1300    4.4860  -45.9010 C.ar   93  TRP93       0.0003
     21  CD1       -4.5500    5.1110  -44.7670 C.ar   93  TRP93       0.0946
     22  CD2       -4.5010    3.1140  -45.7690 C.ar   93  TRP93       0.0152
     23  NE1       -5.1670    4.2070  -43.9480 N.ar   93  TRP93      -0.2442
     24  CE2       -5.1750    2.9840  -44.5500 C.ar   93  TRP93       0.0810
     25  CE3       -4.3640    2.0040  -46.5950 C.ar   93  TRP93       0.0012
     26  CZ2       -5.6720    1.7540  -44.1150 C.ar   93  TRP93       0.0191
     27  CZ3       -4.8690    0.7980  -46.1720 C.ar   93  TRP93       0.0001
     28  CH2       -5.5390    0.6850  -44.9620 C.ar   93  TRP93       0.0015
     29  N         -0.8770    4.8030  -49.3090 N.am   94  ALA94      -0.1966
     30  CA        -0.5110    5.3060  -50.6200 C.3    94  ALA94       0.1728
     31  C         -1.5820    4.8850  -51.6150 C.2    94  ALA94       0.2616
     32  O         -1.9460    3.7110  -51.6890 O.2    94  ALA94      -0.2715
     33  CB         0.8450    4.7970  -51.0670 C.3    94  ALA94       0.0334
     34  N         -2.1230    5.8650  -52.3250 N.am   95  ASP95      -0.1971
     35  CA        -3.1570    5.6490  -53.3170 C.3    95  ASP95       0.1709
     36  C         -3.0920    6.7960  -54.3190 C.2    95  ASP95       0.2293
     37  O         -2.2730    7.6890  -54.1980 O.2    95  ASP95      -0.2864
     38  CB        -4.5270    5.4680  -52.6750 C.3    95  ASP95       0.1436
     39  CG        -5.0560    6.6980  -51.9670 C.2    95  ASP95       0.3671
     40  OD1       -4.7860    7.8190  -52.4340 O.co2  95  ASP95      -0.2456
     41  OD2       -5.7370    6.5150  -50.9360 O.co2  95  ASP95      -0.2456
     42  N         -2.9510   10.2120  -52.8200 N.3    98  HIS98      -0.1241
     43  CA        -2.0880   10.3420  -51.6240 C.3    98  HIS98       0.1621
     44  C         -0.8240    9.5110  -51.8180 C.2    98  HIS98       0.2264
     45  O         -0.8410    8.3030  -51.5800 O.2    98  HIS98      -0.2867
     46  CB        -2.8210    9.9010  -50.3440 C.3    98  HIS98       0.0745
     47  CG        -4.1430   10.5690  -50.1840 C.ar   98  HIS98       0.0817
     48  ND1       -5.3000   10.0500  -50.7500 N.ar   98  HIS98      -0.2268
     49  CD2       -4.4880   11.7630  -49.6330 C.ar   98  HIS98       0.1154
     50  CE1       -6.3110   10.8760  -50.5190 C.ar   98  HIS98       0.1986
     51  NE2       -5.8390   11.9410  -49.8450 N.ar   98  HIS98      -0.2212
     52  N          2.3990    1.4210  -54.4660 N.3   142  ASN142     -0.1225
     53  CA         1.0070    0.9720  -54.4150 C.3   142  ASN142      0.1785
     54  C          0.1160    1.9830  -55.1240 C.2   142  ASN142      0.2597
     55  O          0.0680    3.1520  -54.7010 O.2   142  ASN142     -0.2718
     56  CB         0.5060    0.8290  -52.9690 C.3   142  ASN142      0.1169
     57  CG        -0.8870    0.2460  -52.8990 C.2   142  ASN142      0.2627
     58  OD1       -1.0070   -0.9690  -52.9820 O.2   142  ASN142     -0.2716
     59  ND2       -1.9210    1.0610  -52.7070 N.am  142  ASN142     -0.0877
     60  N         -0.5880    1.5240  -56.1600 N.am  143  GLU143     -0.1979
     61  CA        -1.4660    2.3550  -56.9850 C.3   143  GLU143      0.1602
     62  C         -0.7700    3.6850  -57.3120 C.2   143  GLU143      0.2287
     63  O         -1.3230    4.7870  -57.0980 O.2   143  GLU143     -0.2864
     64  CB        -2.8280    2.5630  -56.3350 C.3   143  GLU143      0.0415
     65  CG        -3.6500    1.2880  -56.1820 C.3   143  GLU143      0.1163
     66  CD        -5.0530    1.4970  -55.6160 C.2   143  GLU143      0.3649
     67  OE1       -5.2710    2.5490  -54.9380 O.co2 143  GLU143     -0.2457
     68  OE2       -5.9670    0.6120  -55.8300 O.co2 143  GLU143     -0.2457
     69  N         -5.3680   -6.1220  -56.4950 N.3   255  GLU255     -0.1245
     70  CA        -6.4910   -5.8870  -55.6240 C.3   255  GLU255      0.1567
     71  C         -7.8000   -6.0370  -56.3960 C.2   255  GLU255      0.2260
     72  O         -7.9110   -5.5170  -57.5110 O.2   255  GLU255     -0.2867
     73  CB        -6.4970   -4.4560  -55.0930 C.3   255  GLU255      0.0388
     74  CG        -5.2800   -4.1280  -54.2750 C.3   255  GLU255      0.1160
     75  CD        -5.2580   -2.7570  -53.6300 C.2   255  GLU255      0.3649
     76  OE1       -6.3300   -2.0710  -53.5940 O.co2 255  GLU255     -0.2457
     77  OE2       -4.1690   -2.3800  -53.1500 O.co2 255  GLU255     -0.2457
     78  N         -8.8930   -7.7970  -51.6640 N.3   284  TRP284     -0.1241
     79  CA        -8.3500   -6.8510  -50.6840 C.3   284  TRP284      0.1605
     80  C         -9.1390   -6.8960  -49.3660 C.2   284  TRP284      0.2264
     81  O        -10.2920   -6.5520  -49.3080 O.2   284  TRP284     -0.2867
     82  CB        -8.2910   -5.4340  -51.2540 C.3   284  TRP284      0.0550
     83  CG        -7.4120   -4.5550  -50.4130 C.ar  284  TRP284      0.0003
     84  CD1       -6.0500   -4.5470  -50.4270 C.ar  284  TRP284      0.0946
     85  CD2       -7.8020   -3.6200  -49.3990 C.ar  284  TRP284      0.0152
     86  NE1       -5.5650   -3.6580  -49.5150 N.ar  284  TRP284     -0.2442
     87  CE2       -6.6050   -3.0690  -48.8680 C.ar  284  TRP284      0.0810
     88  CE3       -9.0200   -3.1800  -48.8940 C.ar  284  TRP284      0.0012
     89  CZ2       -6.6020   -2.0680  -47.8980 C.ar  284  TRP284      0.0191
     90  CZ3       -9.0180   -2.2270  -47.8990 C.ar  284  TRP284      0.0001
     91  CH2       -7.8280   -1.6760  -47.4220 C.ar  284  TRP284      0.0015
     92  N        -12.6820    0.6300  -40.0940 N.3   293  ASN293     -0.1225
     93  CA       -11.8470    1.7980  -40.3260 C.3   293  ASN293      0.1785
     94  C        -12.7900    2.9450  -40.7100 C.2   293  ASN293      0.2597
     95  O        -13.7380    3.2570  -39.9850 O.2   293  ASN293     -0.2718
     96  CB       -10.7080    1.5480  -41.3280 C.3   293  ASN293      0.1169
     97  CG        -9.7210    2.7040  -41.4230 C.2   293  ASN293      0.2627
     98  OD1       -9.3450    3.2690  -40.3930 O.2   293  ASN293     -0.2716
     99  ND2       -9.2890    3.0670  -42.6240 N.am  293  ASN293     -0.0877
    100  N        -12.6200    3.5010  -41.8980 N.am  294  ASP294     -0.1974
    101  CA       -13.3510    4.7150  -42.2260 C.3   294  ASP294      0.1709
    102  C        -14.7920    4.4160  -42.7100 C.2   294  ASP294      0.2293
    103  O        -15.3920    5.3010  -43.2780 O.2   294  ASP294     -0.2864
    104  CB       -12.5500    5.5230  -43.2590 C.3   294  ASP294      0.1436
    105  CG       -12.1880    4.7380  -44.5200 C.2   294  ASP294      0.3671
    106  OD1      -12.5190    3.4890  -44.5870 O.co2 294  ASP294     -0.2456
    107  OD2      -11.5510    5.3600  -45.4150 O.co2 294  ASP294     -0.2456
    108  N        -15.3530    1.0780  -44.3350 N.3   296  TYR296     -0.1241
    109  CA       -15.0400    0.2090  -45.4910 C.3   296  TYR296      0.1605
    110  C        -16.1520   -0.8290  -45.7170 C.2   296  TYR296      0.2264
    111  O        -16.4920   -1.5450  -44.7950 O.2   296  TYR296     -0.2867
    112  CB       -13.7070   -0.5160  -45.2990 C.3   296  TYR296      0.0534
    113  CG       -13.1570   -1.0620  -46.5890 C.ar  296  TYR296     -0.0201
    114  CD1      -12.8960   -0.1790  -47.6240 C.ar  296  TYR296     -0.0009
    115  CD2      -12.9360   -2.4160  -46.8100 C.ar  296  TYR296     -0.0009
    116  CE1      -12.4370   -0.6210  -48.8530 C.ar  296  TYR296      0.0417
    117  CE2      -12.4520   -2.8730  -48.0280 C.ar  296  TYR296      0.0417
    118  CZ       -12.1980   -1.9680  -49.0570 C.ar  296  TYR296      0.1957
    119  OH       -11.7340   -2.3030  -50.3120 O.3   296  TYR296     -0.2866
@<TRIPOS>BOND
     1    72    71    2
     2    62    63    2
     3    62    61    1
     4    61    64    1
     5    61    60    1
     6    69    70    1
     7    71    70    1
     8    64    65    1
     9    65    66    1
    10    60    54   am
    11    68    66   ar
    12    70    73    1
    13    66    67   ar
    14    54    55    2
    15    54    53    1
    16    73    74    1
    17    52    53    1
    18    53    56    1
    19    36    37    2
    20    36    35    1
    21    74    75    1
    22    75    76   ar
    23    75    77   ar
    24    35    38    1
    25    35    34    1
    26    58    57    2
    27    56    57    1
    28    57    59   am
    29    42    43    1
    30    38    39    1
    31    40    39   ar
    32    34    31   am
    33    39    41   ar
    34    44    43    1
    35    44    45    2
    36    32    31    2
    37    78    79    1
    38    43    46    1
    39    31    30    1
    40    82    79    1
    41    82    83    1
    42    33    30    1
    43    48    50   ar
    44    48    47   ar
    45    79    80    1
    46    30    29    1
    47    50    51   ar
    48    84    83   ar
    49    84    86   ar
    50    83    85   ar
    51    46    47    1
    52   119   118    1
    53    47    49   ar
    54    51    49   ar
    55    86    87   ar
    56    85    88   ar
    57    85    87   ar
    58    80    81    2
    59    29    17   am
    60   118   116   ar
    61   118   117   ar
    62    88    90   ar
    63    87    89   ar
    64   116   114   ar
    65    18    17    2
    66    17    16    1
    67   117   115   ar
    68    90    91   ar
    69    89    91   ar
    70   114   113   ar
    71    16    19    1
    72    16    15    1
    73    19    20    1
    74   115   113   ar
    75    25    27   ar
    76    25    22   ar
    77   113   112    1
    78    27    28   ar
    79    20    22   ar
    80    20    21   ar
    81    22    24   ar
    82   110   109    1
    83   110   111    2
    84   109   112    1
    85   109   108    1
    86   107   105   ar
    87    28    26   ar
    88    21    23   ar
    89   106   105   ar
    90    24    26   ar
    91    24    23   ar
    92   105   104    1
    93    13    14   ar
    94    13    11   ar
    95    14    12   ar
    96    11     8   ar
    97    12    10   ar
    98   103   102    2
    99   104   101    1
   100   102   101    1
   101     8    10   ar
   102     8     6   ar
   103    10     9   ar
   104    99    97   am
   105     1     2    1
   106   101   100    1
   107   100    94   am
   108     9     7   ar
   109     6     5    1
   110     6     7   ar
   111     5     2    1
   112    97    96    1
   113    97    98    2
   114    96    93    1
   115     2     3    1
   116    94    93    1
   117    94    95    2
   118    93    92    1
   119     3     4    2
