@<TRIPOS>MOLECULE
tmp/6gpbA02.pdb
 86 79 0 0 0
SMALL
GASTEIGER

@<TRIPOS>ATOM
      1  N         57.7080   18.4420   45.2750 N.3   388  GLN388     -0.1245
      2  CA        58.8440   17.5580   45.1220 C.3   388  GLN388      0.1566
      3  C         58.5250   16.4330   44.1620 C.2   388  GLN388      0.2260
      4  O         59.2800   16.1020   43.2460 O.2   388  GLN388     -0.2867
      5  CB        59.2410   16.9430   46.4570 C.3   388  GLN388      0.0367
      6  CG        59.7730   18.0010   47.3940 C.3   388  GLN388      0.0905
      7  CD        60.2190   17.4600   48.7370 C.2   388  GLN388      0.2608
      8  OE1       60.2060   16.2540   48.9970 O.2   388  GLN388     -0.2717
      9  NE2       60.6590   18.3260   49.6370 N.am  388  GLN388     -0.0878
     10  N         58.3620   17.4910   40.6570 N.3   391  TYR391     -0.1227
     11  CA        59.6930   17.6970   40.1340 C.3   391  TYR391      0.1736
     12  C         60.3180   16.3610   39.7520 C.2   391  TYR391      0.2595
     13  O         60.9650   16.2050   38.7120 O.2   391  TYR391     -0.2718
     14  CB        60.5200   18.3650   41.1820 C.3   391  TYR391      0.0548
     15  CG        60.3840   19.8710   41.2310 C.ar  391  TYR391     -0.0200
     16  CD1       60.1960   20.6220   40.0860 C.ar  391  TYR391     -0.0009
     17  CD2       60.5480   20.4960   42.4490 C.ar  391  TYR391     -0.0009
     18  CE1       60.1890   22.0080   40.1600 C.ar  391  TYR391      0.0417
     19  CE2       60.5440   21.8720   42.5310 C.ar  391  TYR391      0.0417
     20  CZ        60.3700   22.6210   41.3860 C.ar  391  TYR391      0.1957
     21  OH        60.4340   24.0030   41.4920 O.3   391  TYR391     -0.2866
     22  N         60.1400   15.3530   40.5880 N.am  392  GLU392     -0.1979
     23  CA        60.7090   14.0610   40.3080 C.3   392  GLU392      0.1602
     24  C         60.0220   13.4620   39.0910 C.2   392  GLU392      0.2287
     25  O         60.6740   12.8200   38.2570 O.2   392  GLU392     -0.2864
     26  CB        60.5240   13.1660   41.5230 C.3   392  GLU392      0.0415
     27  CG        61.8120   12.9110   42.3090 C.3   392  GLU392      0.1163
     28  CD        62.8340   12.1280   41.5200 C.2   392  GLU392      0.3649
     29  OE1       62.6550   10.9120   41.2880 O.co2 392  GLU392     -0.2457
     30  OE2       63.8400   12.7050   41.1090 O.co2 392  GLU392     -0.2457
     31  N         58.6260   15.0130   36.5840 N.3   394  ASN394     -0.1225
     32  CA        59.1300   15.7800   35.4640 C.3   394  ASN394      0.1785
     33  C         60.4640   15.2580   35.0390 C.2   394  ASN394      0.2597
     34  O         60.6120   14.9200   33.8660 O.2   394  ASN394     -0.2718
     35  CB        59.3150   17.2300   35.8150 C.3   394  ASN394      0.1169
     36  CG        59.7400   18.0980   34.6390 C.2   394  ASN394      0.2627
     37  OD1       59.2810   18.0090   33.4970 O.2   394  ASN394     -0.2716
     38  ND2       60.5900   19.0590   34.9310 N.am  394  ASN394     -0.0877
     39  N         61.3680   15.0980   36.0120 N.am  395  GLN395     -0.1979
     40  CA        62.6980   14.5580   35.7790 C.3   395  GLN395      0.1601
     41  C         62.6520   13.3420   34.9070 C.2   395  GLN395      0.2287
     42  O         63.1410   13.2900   33.7740 O.2   395  GLN395     -0.2864
     43  CB        63.3710   14.0690   37.0190 C.3   395  GLN395      0.0394
     44  CG        64.0540   15.1010   37.8360 C.3   395  GLN395      0.0908
     45  CD        65.3900   15.4950   37.2490 C.2   395  GLN395      0.2608
     46  OE1       65.5980   15.4380   36.0320 O.2   395  GLN395     -0.2717
     47  NE2       66.3160   15.8610   38.1380 N.am  395  GLN395     -0.0878
     48  N         61.3100   13.6360   31.4900 N.3   398  LEU398     -0.1245
     49  CA        62.1520   14.2480   30.5110 C.3   398  LEU398      0.1561
     50  C         63.2900   13.3100   30.1900 C.2   398  LEU398      0.2260
     51  O         63.7880   13.2660   29.0650 O.2   398  LEU398     -0.2867
     52  CB        62.6890   15.5600   31.0450 C.3   398  LEU398      0.0270
     53  CG        61.6820   16.6910   31.1910 C.3   398  LEU398      0.0019
     54  CD1       62.3860   17.8740   31.8210 C.3   398  LEU398      0.0001
     55  CD2       61.0870   17.0570   29.8310 C.3   398  LEU398      0.0001
     56  N         58.5220   20.0220   29.1530 N.3   416  SER416     -0.1217
     57  CA        58.6470   19.9590   30.5870 C.3   416  SER416      0.1889
     58  C         57.3320   20.2810   31.2750 C.2   416  SER416      0.2288
     59  O         56.5020   21.0290   30.7550 O.2   416  SER416     -0.2866
     60  CB        59.7290   20.9340   31.0430 C.3   416  SER416      0.2089
     61  OG        60.0030   20.6720   32.4150 O.3   416  SER416     -0.2183
     62  N         57.4280   21.9500   33.7910 N.3   418  VAL418     -0.1245
     63  CA        57.6060   23.2110   34.4760 C.3   418  VAL418      0.1561
     64  C         57.9100   24.2560   33.4340 C.2   418  VAL418      0.2260
     65  O         58.7890   24.0710   32.6010 O.2   418  VAL418     -0.2867
     66  CB        58.7400   23.0830   35.4590 C.3   418  VAL418      0.0252
     67  CG1       58.9690   24.4120   36.1340 C.3   418  VAL418      0.0019
     68  CG2       58.3850   22.0290   36.4950 C.3   418  VAL418      0.0019
     69  N         59.3690   27.4520   32.5460 N.3   420  GLU420     -0.1245
     70  CA        60.3760   28.3130   33.1040 C.3   420  GLU420      0.1567
     71  C         60.1060   29.7150   32.6300 C.2   420  GLU420      0.2260
     72  O         59.4230   29.9280   31.6310 O.2   420  GLU420     -0.2867
     73  CB        61.7710   27.9630   32.6060 C.3   420  GLU420      0.0388
     74  CG        62.3400   26.6170   32.9620 C.3   420  GLU420      0.1160
     75  CD        62.4640   26.4840   34.4500 C.2   420  GLU420      0.3649
     76  OE1       63.3690   27.0330   35.0810 O.co2 420  GLU420     -0.2457
     77  OE2       61.6260   25.8290   35.0400 O.co2 420  GLU420     -0.2457
     78  N         57.9300   31.0550   37.1270 N.3   424  LYS424     -0.1245
     79  CA        58.0900   29.6530   36.8110 C.3   424  LYS424      0.1561
     80  C         56.7720   29.0710   37.2810 C.2   424  LYS424      0.2260
     81  O         56.3210   29.4070   38.3880 O.2   424  LYS424     -0.2867
     82  CB        59.3020   29.1870   37.6110 C.3   424  LYS424      0.0271
     83  CG        59.9620   27.8490   37.3570 C.3   424  LYS424      0.0035
     84  CD        61.0520   27.7970   38.4260 C.3   424  LYS424      0.0206
     85  CE        61.8160   26.4710   38.5420 C.3   424  LYS424      0.1093
     86  NZ        62.7710   26.3400   37.4690 N.3   424  LYS424     -0.1314
@<TRIPOS>BOND
     1    51    50    2
     2    56    57    1
     3    55    53    1
     4    50    49    1
     5    49    52    1
     6    49    48    1
     7    57    60    1
     8    57    58    1
     9    59    58    2
    10    60    61    1
    11    52    53    1
    12    53    54    1
    13    72    71    2
    14    69    70    1
    15    65    64    2
    16    73    74    1
    17    73    70    1
    18    71    70    1
    19    74    75    1
    20    64    63    1
    21    37    36    2
    22    42    41    2
    23    62    63    1
    24    34    33    2
    25    75    77   ar
    26    75    76   ar
    27    63    66    1
    28    36    38   am
    29    36    35    1
    30    41    40    1
    31    33    32    1
    32    33    39   am
    33    66    67    1
    34    66    68    1
    35    32    35    1
    36    32    31    1
    37    40    39    1
    38    40    43    1
    39    46    45    2
    40    79    78    1
    41    79    80    1
    42    79    82    1
    43    43    44    1
    44    45    44    1
    45    45    47   am
    46    80    81    2
    47    83    82    1
    48    83    84    1
    49    86    85    1
    50    25    24    2
    51    84    85    1
    52    13    12    2
    53    24    23    1
    54    12    11    1
    55    12    22   am
    56    16    18   ar
    57    16    15   ar
    58    11    10    1
    59    11    14    1
    60    18    20   ar
    61    23    22    1
    62    23    26    1
    63    30    28   ar
    64    14    15    1
    65    15    17   ar
    66    29    28   ar
    67    20    21    1
    68    20    19   ar
    69    28    27    1
    70    26    27    1
    71    17    19   ar
    72     4     3    2
    73     3     2    1
    74     2     1    1
    75     2     5    1
    76     5     6    1
    77     6     7    1
    78     7     8    2
    79     7     9   am
