@<TRIPOS>MOLECULE
tmp/6gpbA01.pdb
 90 82 0 0 0
SMALL
GASTEIGER

@<TRIPOS>ATOM
      1  N         58.6260   15.0130   36.5840 N.3   394  ASN394     -0.1225
      2  CA        59.1300   15.7800   35.4640 C.3   394  ASN394      0.1785
      3  C         60.4640   15.2580   35.0390 C.2   394  ASN394      0.2597
      4  O         60.6120   14.9200   33.8660 O.2   394  ASN394     -0.2718
      5  CB        59.3150   17.2300   35.8150 C.3   394  ASN394      0.1169
      6  CG        59.7400   18.0980   34.6390 C.2   394  ASN394      0.2627
      7  OD1       59.2810   18.0090   33.4970 O.2   394  ASN394     -0.2716
      8  ND2       60.5900   19.0590   34.9310 N.am  394  ASN394     -0.0877
      9  N         61.3680   15.0980   36.0120 N.am  395  GLN395     -0.1979
     10  CA        62.6980   14.5580   35.7790 C.3   395  GLN395      0.1601
     11  C         62.6520   13.3420   34.9070 C.2   395  GLN395      0.2287
     12  O         63.1410   13.2900   33.7740 O.2   395  GLN395     -0.2864
     13  CB        63.3710   14.0690   37.0190 C.3   395  GLN395      0.0394
     14  CG        64.0540   15.1010   37.8360 C.3   395  GLN395      0.0908
     15  CD        65.3900   15.4950   37.2490 C.2   395  GLN395      0.2608
     16  OE1       65.5980   15.4380   36.0320 O.2   395  GLN395     -0.2717
     17  NE2       66.3160   15.8610   38.1380 N.am  395  GLN395     -0.0878
     18  N         61.3100   13.6360   31.4900 N.3   398  LEU398     -0.1245
     19  CA        62.1520   14.2480   30.5110 C.3   398  LEU398      0.1561
     20  C         63.2900   13.3100   30.1900 C.2   398  LEU398      0.2260
     21  O         63.7880   13.2660   29.0650 O.2   398  LEU398     -0.2867
     22  CB        62.6890   15.5600   31.0450 C.3   398  LEU398      0.0270
     23  CG        61.6820   16.6910   31.1910 C.3   398  LEU398      0.0019
     24  CD1       62.3860   17.8740   31.8210 C.3   398  LEU398      0.0001
     25  CD2       61.0870   17.0570   29.8310 C.3   398  LEU398      0.0001
     26  N         66.8250   19.3600   22.1940 N.3   409  VAL409     -0.1231
     27  CA        66.8400   20.1390   23.4080 C.3   409  VAL409      0.1692
     28  C         65.5360   20.9070   23.4660 C.2   409  VAL409      0.2592
     29  O         64.9280   21.0110   24.5290 O.2   409  VAL409     -0.2718
     30  CB        68.0450   21.1090   23.4050 C.3   409  VAL409      0.0266
     31  CG1       68.2660   21.6780   24.7920 C.3   409  VAL409      0.0020
     32  CG2       69.3080   20.3690   23.0160 C.3   409  VAL409      0.0020
     33  N         65.0040   21.4140   22.3590 N.am  410  ASP410     -0.1974
     34  CA        63.7890   22.1770   22.4920 C.3   410  ASP410      0.1709
     35  C         62.6110   21.3420   22.8460 C.2   410  ASP410      0.2293
     36  O         61.6470   21.8630   23.3940 O.2   410  ASP410     -0.2864
     37  CB        63.4450   22.9180   21.2370 C.3   410  ASP410      0.1436
     38  CG        64.2870   24.1640   21.3070 C.2   410  ASP410      0.3671
     39  OD1       65.5000   24.0610   21.1410 O.co2 410  ASP410     -0.2456
     40  OD2       63.7540   25.2330   21.6050 O.co2 410  ASP410     -0.2456
     41  N         62.7190   19.1300   25.0970 N.3   412  LEU412     -0.1231
     42  CA        62.7440   19.1350   26.5450 C.3   412  LEU412      0.1693
     43  C         62.1800   20.4290   27.0500 C.2   412  LEU412      0.2591
     44  O         61.5190   20.4670   28.0870 O.2   412  LEU412     -0.2718
     45  CB        64.1420   19.0130   27.0900 C.3   412  LEU412      0.0284
     46  CG        64.8290   17.6610   27.1660 C.3   412  LEU412      0.0019
     47  CD1       64.7770   16.8960   25.8590 C.3   412  LEU412      0.0001
     48  CD2       66.2710   17.9390   27.5410 C.3   412  LEU412      0.0001
     49  N         62.4790   21.4910   26.3350 N.am  413  ARG413     -0.1980
     50  CA        61.9820   22.7920   26.6790 C.3   413  ARG413      0.1597
     51  C         60.4660   22.7810   26.6370 C.2   413  ARG413      0.2287
     52  O         59.8300   23.1430   27.6260 O.2   413  ARG413     -0.2864
     53  CB        62.5930   23.7300   25.6770 C.3   413  ARG413      0.0334
     54  CG        62.3490   25.2210   25.7290 C.3   413  ARG413      0.0492
     55  CD        61.4500   25.6790   24.5860 C.3   413  ARG413      0.2205
     56  NE        60.0990   25.6700   25.1000 N.pl3 413  ARG413     -0.0865
     57  CZ        59.0680   26.1830   24.4110 C.cat 413  ARG413      0.5346
     58  NH1       59.2680   26.6040   23.1360 N.pl3 413  ARG413      0.1354
     59  NH2       57.8380   26.1460   24.9800 N.pl3 413  ARG413      0.1354
     60  N         58.5220   20.0220   29.1530 N.3   416  SER416     -0.1217
     61  CA        58.6470   19.9590   30.5870 C.3   416  SER416      0.1889
     62  C         57.3320   20.2810   31.2750 C.2   416  SER416      0.2288
     63  O         56.5020   21.0290   30.7550 O.2   416  SER416     -0.2866
     64  CB        59.7290   20.9340   31.0430 C.3   416  SER416      0.2089
     65  OG        60.0030   20.6720   32.4150 O.3   416  SER416     -0.2183
     66  N         57.4280   21.9500   33.7910 N.3   418  VAL418     -0.1245
     67  CA        57.6060   23.2110   34.4760 C.3   418  VAL418      0.1561
     68  C         57.9100   24.2560   33.4340 C.2   418  VAL418      0.2260
     69  O         58.7890   24.0710   32.6010 O.2   418  VAL418     -0.2867
     70  CB        58.7400   23.0830   35.4590 C.3   418  VAL418      0.0252
     71  CG1       58.9690   24.4120   36.1340 C.3   418  VAL418      0.0019
     72  CG2       58.3850   22.0290   36.4950 C.3   418  VAL418      0.0019
     73  N         59.3690   27.4520   32.5460 N.3   420  GLU420     -0.1245
     74  CA        60.3760   28.3130   33.1040 C.3   420  GLU420      0.1567
     75  C         60.1060   29.7150   32.6300 C.2   420  GLU420      0.2260
     76  O         59.4230   29.9280   31.6310 O.2   420  GLU420     -0.2867
     77  CB        61.7710   27.9630   32.6060 C.3   420  GLU420      0.0388
     78  CG        62.3400   26.6170   32.9620 C.3   420  GLU420      0.1160
     79  CD        62.4640   26.4840   34.4500 C.2   420  GLU420      0.3649
     80  OE1       63.3690   27.0330   35.0810 O.co2 420  GLU420     -0.2457
     81  OE2       61.6260   25.8290   35.0400 O.co2 420  GLU420     -0.2457
     82  N         57.9300   31.0550   37.1270 N.3   424  LYS424     -0.1245
     83  CA        58.0900   29.6530   36.8110 C.3   424  LYS424      0.1561
     84  C         56.7720   29.0710   37.2810 C.2   424  LYS424      0.2260
     85  O         56.3210   29.4070   38.3880 O.2   424  LYS424     -0.2867
     86  CB        59.3020   29.1870   37.6110 C.3   424  LYS424      0.0271
     87  CG        59.9620   27.8490   37.3570 C.3   424  LYS424      0.0035
     88  CD        61.0520   27.7970   38.4260 C.3   424  LYS424      0.0206
     89  CE        61.8160   26.4710   38.5420 C.3   424  LYS424      0.1093
     90  NZ        62.7710   26.3400   37.4690 N.3   424  LYS424     -0.1314
@<TRIPOS>BOND
     1    39    38   ar
     2    37    38    1
     3    37    34    1
     4    38    40   ar
     5    26    27    1
     6    33    34    1
     7    33    28   am
     8    34    35    1
     9    35    36    2
    10    32    30    1
    11    58    57    1
    12    30    27    1
    13    30    31    1
    14    27    28    1
    15    28    29    2
    16    57    59    1
    17    57    56    2
    18    55    56    1
    19    55    54    1
    20    41    42    1
    21    53    54    1
    22    53    50    1
    23    47    46    1
    24    49    50    1
    25    49    43   am
    26    42    43    1
    27    42    45    1
    28    51    50    1
    29    51    52    2
    30    43    44    2
    31    45    46    1
    32    46    48    1
    33    21    20    2
    34    60    61    1
    35    25    23    1
    36    20    19    1
    37    19    22    1
    38    19    18    1
    39    61    64    1
    40    61    62    1
    41    63    62    2
    42    64    65    1
    43    22    23    1
    44    23    24    1
    45    76    75    2
    46    73    74    1
    47    69    68    2
    48    77    78    1
    49    77    74    1
    50    75    74    1
    51    78    79    1
    52    68    67    1
    53     7     6    2
    54    12    11    2
    55    66    67    1
    56     4     3    2
    57    79    81   ar
    58    79    80   ar
    59    67    70    1
    60     6     8   am
    61     6     5    1
    62    11    10    1
    63     3     2    1
    64     3     9   am
    65    70    71    1
    66    70    72    1
    67     2     5    1
    68     2     1    1
    69    10     9    1
    70    10    13    1
    71    16    15    2
    72    83    82    1
    73    83    84    1
    74    83    86    1
    75    13    14    1
    76    15    14    1
    77    15    17   am
    78    84    85    2
    79    87    86    1
    80    87    88    1
    81    90    89    1
    82    88    89    1
