@<TRIPOS>MOLECULE
tmp/6gpbA00.pdb
 127 120 0 0 0
SMALL
GASTEIGER

@<TRIPOS>ATOM
      1  N         28.8960   25.5500   33.2090 N.3   121  GLY121     -0.1210
      2  CA        28.3590   25.3630   31.8890 C.3   121  GLY121      0.1956
      3  C         28.5680   23.9130   31.5150 C.2   121  GLY121      0.2612
      4  O         28.4390   23.0330   32.3810 O.2   121  GLY121     -0.2717
      5  N         29.0400   23.6980   30.2890 N.am  122  GLY122     -0.1942
      6  CA        29.1050   22.3830   29.7010 C.3   122  GLY122      0.2014
      7  C         30.0180   21.4250   30.4170 C.2   122  GLY122      0.2638
      8  O         29.7500   20.2250   30.4270 O.2   122  GLY122     -0.2714
      9  N         31.1380   21.8650   30.9550 N.am  123  LEU123     -0.1977
     10  CA        31.9720   20.9450   31.6900 C.3   123  LEU123      0.1596
     11  C         31.1790   20.2980   32.8290 C.2   123  LEU123      0.2287
     12  O         31.1620   19.0810   33.0250 O.2   123  LEU123     -0.2864
     13  CB        33.1790   21.7090   32.2330 C.3   123  LEU123      0.0297
     14  CG        34.2460   20.9760   33.0350 C.3   123  LEU123      0.0022
     15  CD1       35.4920   20.8580   32.2300 C.3   123  LEU123      0.0001
     16  CD2       34.6470   21.7810   34.2420 C.3   123  LEU123      0.0001
     17  N         28.3160   17.9080   31.7520 N.3   126  LEU126     -0.1245
     18  CA        28.7620   16.6800   31.1560 C.3   126  LEU126      0.1561
     19  C         28.7820   15.6530   32.2640 C.2   126  LEU126      0.2260
     20  O         28.2060   14.5710   32.1790 O.2   126  LEU126     -0.2867
     21  CB        30.1430   16.9090   30.5750 C.3   126  LEU126      0.0270
     22  CG        30.7170   15.7530   29.7770 C.3   126  LEU126      0.0019
     23  CD1       29.9530   15.6630   28.4780 C.3   126  LEU126      0.0001
     24  CD2       32.1910   15.9520   29.4870 C.3   126  LEU126      0.0001
     25  N         35.4360   28.1680   32.2220 N.3   271  ASN271     -0.1240
     26  CA        36.8900   27.7600   31.7280 C.3   271  ASN271      0.1653
     27  C         37.6410   28.9060   31.0010 C.2   271  ASN271      0.2266
     28  O         37.8190   29.4510   29.8770 O.2   271  ASN271     -0.2867
     29  CB        36.6800   26.5580   30.7440 C.3   271  ASN271      0.1155
     30  CG        37.3590   25.2140   31.2440 C.2   271  ASN271      0.2627
     31  OD1       38.2530   24.6920   30.5800 O.2   271  ASN271     -0.2716
     32  ND2       36.9650   24.6560   32.3740 N.am  271  ASN271     -0.0877
     33  N         39.3280   19.3960   27.8210 N.3   364  HIS364     -0.1226
     34  CA        38.1770   20.0730   27.2880 C.3   364  HIS364      0.1752
     35  C         38.4690   21.2860   26.4280 C.2   364  HIS364      0.2596
     36  O         37.5130   21.7570   25.8060 O.2   364  HIS364     -0.2718
     37  CB        37.2810   20.5350   28.4070 C.3   364  HIS364      0.0759
     38  CG        36.6400   19.4100   29.1790 C.ar  364  HIS364      0.0818
     39  ND1       35.4360   18.9060   28.9700 N.ar  364  HIS364     -0.2268
     40  CD2       37.1870   18.7310   30.2360 C.ar  364  HIS364      0.1154
     41  CE1       35.2130   17.9510   29.8460 C.ar  364  HIS364      0.1986
     42  NE2       36.2730   17.8650   30.6020 N.ar  364  HIS364     -0.2212
     43  N         39.6400   21.9230   26.2950 N.am  365  THR365     -0.1953
     44  CA        39.6830   23.1450   25.5200 C.3   365  THR365      0.1897
     45  C         41.0780   23.2510   24.9460 C.2   365  THR365      0.2313
     46  O         42.0100   22.6530   25.4690 O.2   365  THR365     -0.2863
     47  CB        39.4030   24.3630   26.4300 C.3   365  THR365      0.1794
     48  OG1       38.4210   23.9590   27.3780 O.3   365  THR365     -0.2208
     49  CG2       38.8690   25.5690   25.6650 C.3   365  THR365      0.0378
     50  N         37.0710   15.5130   23.6010 N.3   442  VAL442     -0.1245
     51  CA        35.6540   15.2400   23.5750 C.3   442  VAL442      0.1561
     52  C         34.9420   15.4040   22.2290 C.2   442  VAL442      0.2260
     53  O         33.7150   15.5160   22.2080 O.2   442  VAL442     -0.2867
     54  CB        35.0410   16.1340   24.6570 C.3   442  VAL442      0.0252
     55  CG1       35.6540   15.8280   26.0230 C.3   442  VAL442      0.0019
     56  CG2       35.3030   17.5860   24.3050 C.3   442  VAL442      0.0019
     57  N         31.3310   13.7570   23.1300 N.3   471  ASN471     -0.1240
     58  CA        30.4220   14.0300   24.2130 C.3   471  ASN471      0.1653
     59  C         29.0500   13.5120   23.8770 C.2   471  ASN471      0.2266
     60  O         28.7870   13.0930   22.7450 O.2   471  ASN471     -0.2867
     61  CB        30.3560   15.5310   24.4620 C.3   471  ASN471      0.1155
     62  CG        31.5200   16.0810   25.2870 C.2   471  ASN471      0.2627
     63  OD1       31.7830   17.2880   25.3750 O.2   471  ASN471     -0.2716
     64  ND2       32.2880   15.2130   25.9390 N.am  471  ASN471     -0.0877
     65  N         27.2440   30.0530   27.6300 N.3   556  ARG556     -0.1245
     66  CA        27.9380   31.0420   28.4340 C.3   556  ARG556      0.1563
     67  C         28.4340   32.1310   27.4930 C.2   556  ARG556      0.2260
     68  O         28.8890   31.8010   26.3950 O.2   556  ARG556     -0.2867
     69  CB        29.0940   30.3220   29.2000 C.3   556  ARG556      0.0307
     70  CG        30.4670   30.0960   28.5460 C.3   556  ARG556      0.0489
     71  CD        31.2750   29.0240   29.3020 C.3   556  ARG556      0.2205
     72  NE        32.7310   29.1260   29.1810 N.pl3 556  ARG556     -0.0865
     73  CZ        33.5050   28.0570   28.8950 C.cat 556  ARG556      0.5346
     74  NH1       32.9230   26.8940   28.7400 N.pl3 556  ARG556      0.1354
     75  NH2       34.8580   28.2060   28.8280 N.pl3 556  ARG556      0.1354
     76  N         34.7220   33.6910   21.9710 N.3   560  TYR560     -0.1227
     77  CA        34.8420   32.7060   20.9100 C.3   560  TYR560      0.1736
     78  C         33.4860   32.1440   20.5620 C.2   560  TYR560      0.2595
     79  O         33.2650   31.6800   19.4410 O.2   560  TYR560     -0.2718
     80  CB        35.7620   31.4990   21.2690 C.3   560  TYR560      0.0548
     81  CG        35.2180   30.4020   22.1720 C.ar  560  TYR560     -0.0200
     82  CD1       35.1880   30.5920   23.5320 C.ar  560  TYR560     -0.0009
     83  CD2       34.7660   29.2180   21.6440 C.ar  560  TYR560     -0.0009
     84  CE1       34.7200   29.6090   24.3660 C.ar  560  TYR560      0.0417
     85  CE2       34.2920   28.2310   22.4720 C.ar  560  TYR560      0.0417
     86  CZ        34.2670   28.4370   23.8290 C.ar  560  TYR560      0.1957
     87  OH        33.7530   27.4770   24.6850 O.3   560  TYR560     -0.2866
     88  N         32.5300   32.1850   21.4860 N.am  561  LYS561     -0.1980
     89  CA        31.2500   31.6150   21.1650 C.3   561  LYS561      0.1596
     90  C         30.5410   32.5360   20.1810 C.2   561  LYS561      0.2287
     91  O         29.5520   32.1190   19.5820 O.2   561  LYS561     -0.2864
     92  CB        30.4960   31.4100   22.4830 C.3   561  LYS561      0.0298
     93  CG        30.8410   30.0280   23.0200 C.3   561  LYS561      0.0038
     94  CD        30.6440   29.9300   24.5270 C.3   561  LYS561      0.0206
     95  CE        30.2220   28.5320   25.0090 C.3   561  LYS561      0.1093
     96  NZ        31.0910   27.4220   24.6390 N.3   561  LYS561     -0.1314
     97  N         35.4950   25.4550   19.7250 N.3   659  GLU659     -0.1231
     98  CA        34.5910   24.7700   20.6160 C.3   659  GLU659      0.1699
     99  C         35.1400   23.3610   20.5600 C.2   659  GLU659      0.2592
    100  O         35.5620   22.8900   19.5140 O.2   659  GLU659     -0.2718
    101  CB        33.1410   24.8500   20.0790 C.3   659  GLU659      0.0402
    102  CG        31.9940   24.4960   21.0440 C.3   659  GLU659      0.1161
    103  CD        31.7090   25.5050   22.1420 C.2   659  GLU659      0.3649
    104  OE1       32.3410   25.4570   23.1880 O.co2 659  GLU659     -0.2457
    105  OE2       30.8430   26.3710   22.0090 O.co2 659  GLU659     -0.2457
    106  N         35.2200   22.7250   21.7130 N.am  660  ALA660     -0.1966
    107  CA        35.7210   21.3820   21.8270 C.3   660  ALA660      0.1728
    108  C         34.7070   20.4100   21.2990 C.2   660  ALA660      0.2617
    109  O         35.0540   19.4940   20.5520 O.2   660  ALA660     -0.2715
    110  CB        35.9670   20.9860   23.2580 C.3   660  ALA660      0.0334
    111  N         33.4600   20.5670   21.7360 N.am  661  SER661     -0.1936
    112  CA        32.4190   19.6580   21.3200 C.3   661  SER661      0.2055
    113  C         31.2420   20.6020   21.2940 C.2   661  SER661      0.2644
    114  O         30.9010   21.1680   20.2480 O.2   661  SER661     -0.2714
    115  CB        32.2200   18.5430   22.3560 C.3   661  SER661      0.2130
    116  OG        31.2750   17.5560   21.9810 O.3   661  SER661     -0.2179
    117  N         30.7610   20.9050   22.4850 N.am  662  GLY662     -0.1939
    118  CA        29.5760   21.6830   22.6340 C.3   662  GLY662      0.2014
    119  C         28.6170   20.5760   23.0140 C.2   662  GLY662      0.2639
    120  O         28.7390   19.4620   22.5040 O.2   662  GLY662     -0.2714
    121  N         27.7360   20.7730   23.9780 N.am  663  THR663     -0.1950
    122  CA        26.8030   19.7400   24.2960 C.3   663  THR663      0.1897
    123  C         25.4000   20.3360   24.1050 C.2   663  THR663      0.2313
    124  O         24.4470   19.5930   23.8340 O.2   663  THR663     -0.2863
    125  CB        27.3330   19.3540   25.7050 C.3   663  THR663      0.1794
    126  OG1       27.3750   17.9340   25.6960 O.3   663  THR663     -0.2208
    127  CG2       26.5410   19.8750   26.8760 C.3   663  THR663      0.0378
@<TRIPOS>BOND
     1    79    78    2
     2   100    99    2
     3    91    90    2
     4    97    98    1
     5   101    98    1
     6   101   102    1
     7    90    89    1
     8   114   113    2
     9   109   108    2
    10    99    98    1
    11    99   106   am
    12    78    77    1
    13    78    88   am
    14    77    80    1
    15    77    76    1
    16   102   103    1
    17    89    88    1
    18    89    92    1
    19    80    81    1
    20   113   112    1
    21   113   117   am
    22   108   111   am
    23   108   107    1
    24   112   111    1
    25   112   115    1
    26    83    81   ar
    27    83    85   ar
    28   106   107    1
    29   107   110    1
    30   116   115    1
    31   105   103   ar
    32   103   104   ar
    33    81    82   ar
    34    53    52    2
    35    52    51    1
    36    85    86   ar
    37    92    93    1
    38   117   118    1
    39   120   119    2
    40   118   119    1
    41    60    59    2
    42   119   121   am
    43    93    94    1
    44    57    58    1
    45    82    84   ar
    46    51    50    1
    47    51    54    1
    48    86    84   ar
    49    86    87    1
    50   124   123    2
    51    59    58    1
    52   121   122    1
    53   123   122    1
    54    58    61    1
    55   122   125    1
    56    56    54    1
    57    61    62    1
    58    94    95    1
    59    96    95    1
    60    54    55    1
    61    45    46    2
    62    45    44    1
    63    62    63    2
    64    62    64   am
    65    44    43    1
    66    44    47    1
    67    49    47    1
    68   126   125    1
    69   125   127    1
    70    36    35    2
    71    43    35   am
    72    68    67    2
    73    35    34    1
    74    47    48    1
    75    34    33    1
    76    34    37    1
    77    67    66    1
    78    65    66    1
    79    37    38    1
    80    66    69    1
    81    23    22    1
    82    70    69    1
    83    70    71    1
    84    74    73    1
    85    75    73    1
    86    73    72    2
    87    39    38   ar
    88    39    41   ar
    89    38    40   ar
    90    72    71    1
    91    24    22    1
    92     6     5    1
    93     6     7    1
    94    22    21    1
    95    41    42   ar
    96    28    27    2
    97    40    42   ar
    98     5     3   am
    99     7     8    2
   100     7     9   am
   101    21    18    1
   102    31    30    2
   103    29    30    1
   104    29    26    1
   105     9    10    1
   106    27    26    1
   107    18    17    1
   108    18    19    1
   109    30    32   am
   110     3     2    1
   111     3     4    2
   112    10    13    1
   113    10    11    1
   114    26    25    1
   115     2     1    1
   116    20    19    2
   117    15    14    1
   118    13    14    1
   119    11    12    2
   120    14    16    1
