@<TRIPOS>MOLECULE
tmp/6gpcA00.pdb
 102 97 0 0 0
SMALL
GASTEIGER

@<TRIPOS>ATOM
      1  N         14.7460   31.3860    4.0170 N.3    16  SER16      -0.1217
      2  CA        13.5870   31.3560    3.1240 C.3    16  SER16       0.1889
      3  C         14.0180   30.6390    1.8590 C.2    16  SER16       0.2288
      4  O         14.8100   31.1650    1.0280 O.2    16  SER16      -0.2866
      5  CB        13.1100   32.7980    2.8020 C.3    16  SER16       0.2089
      6  OG        12.0500   32.7920    1.7910 O.3    16  SER16      -0.2183
      7  N         13.5400   29.9250   -1.2380 N.3    18  ASP18      -0.1225
      8  CA        12.9690   30.3690   -2.4690 C.3    18  ASP18       0.1805
      9  C         13.9350   31.2410   -3.2430 C.2    18  ASP18       0.2597
     10  O         13.5260   32.1950   -3.9210 O.2    18  ASP18      -0.2718
     11  CB        11.6530   31.0990   -2.1870 C.3    18  ASP18       0.1424
     12  CG        11.8430   32.3940   -1.3930 C.2    18  ASP18       0.3668
     13  OD1       12.9070   32.6160   -0.7420 O.co2  18  ASP18      -0.2456
     14  OD2       10.9050   33.2140   -1.4220 O.co2  18  ASP18      -0.2456
     15  N         15.2330   30.9080   -3.1500 N.am   19  PHE19      -0.1976
     16  CA        16.2510   31.7630   -3.7100 C.3    19  PHE19       0.1639
     17  C         17.4190   30.8920   -4.1280 C.2    19  PHE19       0.2290
     18  O         18.5110   30.9420   -3.5510 O.2    19  PHE19      -0.2864
     19  CB        16.6730   32.7860   -2.6340 C.3    19  PHE19       0.0560
     20  CG        17.5480   33.9320   -3.1390 C.ar   19  PHE19      -0.0200
     21  CD1       17.1670   34.7170   -4.2120 C.ar   19  PHE19      -0.0042
     22  CD2       18.7460   34.2440   -2.4810 C.ar   19  PHE19      -0.0042
     23  CE1       17.9240   35.8390   -4.5730 C.ar   19  PHE19      -0.0003
     24  CE2       19.5410   35.3180   -2.8810 C.ar   19  PHE19      -0.0003
     25  CZ        19.1310   36.1150   -3.9280 C.ar   19  PHE19      -0.0000
     26  N         19.3970   28.9330   -1.3920 N.3    23  GLU23      -0.1245
     27  CA        18.5150   27.9790   -0.6780 C.3    23  GLU23       0.1567
     28  C         17.3120   27.7540   -1.5500 C.2    23  GLU23       0.2260
     29  O         16.7320   28.7030   -2.0690 O.2    23  GLU23      -0.2867
     30  CB        18.0340   28.4640    0.7330 C.3    23  GLU23       0.0388
     31  CG        17.6060   29.9400    0.7760 C.3    23  GLU23       0.1160
     32  CD        18.7830   30.8990    0.9520 C.2    23  GLU23       0.3649
     33  OE1       19.8210   30.4600    1.5750 O.co2  23  GLU23      -0.2457
     34  OE2       18.7150   32.0730    0.4720 O.co2  23  GLU23      -0.2457
     35  N         10.7570   35.1230    3.8340 N.3    57  PHE57      -0.1298
     36  CA        11.9530   35.9510    3.9890 C.3    57  PHE57       0.1290
     37  C         11.7540   37.1350    4.9680 C.3    57  PHE57       0.2013
     38  O         12.6550   37.4480    5.8420 O.3    57  PHE57      -0.2188
     39  CB        12.4160   36.4790    2.6000 C.3    57  PHE57       0.0480
     40  CG        13.7340   37.2590    2.6620 C.ar   57  PHE57      -0.0206
     41  CD1       14.9250   36.6240    2.7810 C.ar   57  PHE57      -0.0042
     42  CD2       13.7310   38.6370    2.5630 C.ar   57  PHE57      -0.0042
     43  CE1       16.1200   37.3220    2.8670 C.ar   57  PHE57      -0.0003
     44  CE2       14.9270   39.3570    2.6130 C.ar   57  PHE57      -0.0003
     45  CZ        16.1400   38.7020    2.7830 C.ar   57  PHE57      -0.0000
     46  N         20.6020   33.2620    4.6160 N.3    74  SER74      -0.1202
     47  CA        19.4980   33.2560    3.6550 C.3    74  SER74       0.2020
     48  C         19.6810   34.2390    2.4950 C.2    74  SER74       0.2619
     49  O         18.7690   34.9610    2.1150 O.2    74  SER74      -0.2717
     50  CB        18.2100   33.5420    4.4150 C.3    74  SER74       0.2103
     51  OG        17.0930   33.2720    3.5880 O.3    74  SER74      -0.2182
     52  N         20.8850   34.2750    1.9700 N.am   75  GLY75      -0.1942
     53  CA        21.1950   35.1980    0.8990 C.3    75  GLY75       0.2014
     54  C         21.0530   36.6600    1.2850 C.2    75  GLY75       0.2639
     55  O         20.6920   37.4820    0.4250 O.2    75  GLY75      -0.2714
     56  N         21.2730   36.9620    2.5680 N.am   76  MET76      -0.1963
     57  CA        20.9250   38.2810    3.1160 C.3    76  MET76       0.1736
     58  C         22.0690   39.2900    2.9110 C.2    76  MET76       0.2617
     59  O         23.1810   39.1100    3.4240 O.2    76  MET76      -0.2715
     60  CB        20.5440   38.1990    4.5880 C.3    76  MET76       0.0427
     61  CG        20.1080   39.5540    5.1790 C.3    76  MET76       0.0599
     62  SD        19.4040   39.3690    6.8290 S.3    76  MET76      -0.1393
     63  CE        17.8330   38.7470    6.3550 C.3    76  MET76       0.0692
     64  N         21.7220   40.3800    2.2100 N.am   77  THR77      -0.1951
     65  CA        22.6170   41.4680    1.9530 C.3    77  THR77       0.1897
     66  C         22.8750   42.1960    3.2630 C.2    77  THR77       0.2313
     67  O         21.9280   42.4710    4.0420 O.2    77  THR77      -0.2863
     68  CB        22.0390   42.4460    0.9340 C.3    77  THR77       0.1794
     69  OG1       21.7220   41.7370   -0.2870 O.3    77  THR77      -0.2208
     70  CG2       23.1060   43.5380    0.6520 C.3    77  THR77       0.0378
     71  N         19.6450   47.1130    8.0650 N.3    82  ARG82      -0.1245
     72  CA        19.5880   45.9190    8.8850 C.3    82  ARG82       0.1563
     73  C         20.5690   45.9290   10.0210 C.2    82  ARG82       0.2260
     74  O         20.2810   45.3310   11.0880 O.2    82  ARG82      -0.2867
     75  CB        19.7340   44.6340    8.0440 C.3    82  ARG82       0.0307
     76  CG        18.6260   44.5160    6.9990 C.3    82  ARG82       0.0489
     77  CD        18.9440   43.4630    5.9410 C.3    82  ARG82       0.2205
     78  NE        17.7990   43.2120    5.0950 N.pl3  82  ARG82      -0.0865
     79  CZ        17.9020   42.6100    3.9040 C.cat  82  ARG82       0.5346
     80  NH1       19.1360   42.3960    3.4180 N.pl3  82  ARG82       0.1354
     81  NH2       16.8190   42.3110    3.2010 N.pl3  82  ARG82       0.1354
     82  N         26.0630   43.8700   -3.8020 N.3   102  GLU102     -0.1245
     83  CA        25.5160   43.1960   -2.6130 C.3   102  GLU102      0.1567
     84  C         26.5470   42.2550   -2.0090 C.2   102  GLU102      0.2260
     85  O         27.1100   41.4470   -2.7700 O.2   102  GLU102     -0.2867
     86  CB        24.2940   42.3780   -2.9800 C.3   102  GLU102      0.0388
     87  CG        23.3570   43.0870   -3.9170 C.3   102  GLU102      0.1160
     88  CD        22.4000   43.9760   -3.2790 C.2   102  GLU102      0.3649
     89  OE1       21.7280   43.4790   -2.3250 O.co2 102  GLU102     -0.2457
     90  OE2       22.2050   45.1000   -3.8780 O.co2 102  GLU102     -0.2457
     91  N         26.7310   39.2900    0.9280 N.3   104  TYR104     -0.1241
     92  CA        25.8540   38.5240    1.8060 C.3   104  TYR104      0.1605
     93  C         26.5600   38.2210    3.1080 C.2   104  TYR104      0.2264
     94  O         27.7490   37.9400    3.1120 O.2   104  TYR104     -0.2867
     95  CB        25.3700   37.2170    1.1460 C.3   104  TYR104      0.0534
     96  CG        24.5090   37.3930   -0.0880 C.ar  104  TYR104     -0.0201
     97  CD1       23.9590   38.6270   -0.4490 C.ar  104  TYR104     -0.0009
     98  CD2       24.2460   36.3120   -0.8800 C.ar  104  TYR104     -0.0009
     99  CE1       23.1830   38.7630   -1.5930 C.ar  104  TYR104      0.0417
    100  CE2       23.4750   36.4420   -2.0090 C.ar  104  TYR104      0.0417
    101  CZ        22.9790   37.6630   -2.3950 C.ar  104  TYR104      0.1957
    102  OH        22.1790   37.6930   -3.5400 O.3   104  TYR104     -0.2866
@<TRIPOS>BOND
     1    23    21   ar
     2    23    25   ar
     3    21    20   ar
     4    17    16    1
     5    17    18    2
     6    25    24   ar
     7    10     9    2
     8    87    88    1
     9    87    86    1
    10    90    88   ar
    11    82    83    1
    12    16    15    1
    13    16    19    1
    14   102   101    1
    15    88    89   ar
    16     9    15   am
    17     9     8    1
    18    20    19    1
    19    20    22   ar
    20    86    83    1
    21    24    22   ar
    22    85    84    2
    23    83    84    1
    24     8    11    1
    25     8     7    1
    26   101   100   ar
    27   101    99   ar
    28    11    12    1
    29    29    28    2
    30   100    98   ar
    31    99    97   ar
    32    28    27    1
    33    14    12   ar
    34    12    13   ar
    35    26    27    1
    36    98    96   ar
    37    27    30    1
    38    97    96   ar
    39    69    68    1
    40    96    95    1
    41    55    54    2
    42    34    32   ar
    43    70    68    1
    44    30    31    1
    45    31    32    1
    46    53    54    1
    47    53    52    1
    48    91    92    1
    49    68    65    1
    50    32    33   ar
    51     4     3    2
    52    95    92    1
    53    54    56   am
    54     6     5    1
    55    92    93    1
    56     3     2    1
    57    65    64    1
    58    65    66    1
    59    52    48   am
    60    49    48    2
    61    64    58   am
    62    48    47    1
    63    42    44   ar
    64    42    40   ar
    65    56    57    1
    66    39    40    1
    67    39    36    1
    68    44    45   ar
    69    40    41   ar
    70    41    43   ar
    71    45    43   ar
    72     5     2    1
    73    58    57    1
    74    58    59    2
    75    93    94    2
    76    57    60    1
    77     2     1    1
    78    81    79    1
    79    66    67    2
    80    80    79    1
    81    51    50    1
    82    47    50    1
    83    47    46    1
    84    35    36    1
    85    79    78    2
    86    36    37    1
    87    60    61    1
    88    37    38    1
    89    78    77    1
    90    61    62    1
    91    77    76    1
    92    63    62    1
    93    76    75    1
    94    75    72    1
    95    71    72    1
    96    72    73    1
    97    73    74    2
