@<TRIPOS>MOLECULE
tmp/6gpkB01.pdb
 255 247 0 0 0
SMALL
GASTEIGER

@<TRIPOS>ATOM
      1  N         38.4980   19.9250   39.6740 N.3    90  SER90      -0.1202
      2  CA        39.8150   19.9150   39.0250 C.3    90  SER90       0.2020
      3  C         40.5640   18.5710   39.0100 C.2    90  SER90       0.2619
      4  O         41.6570   18.4800   38.4320 O.2    90  SER90      -0.2717
      5  CB        40.7160   21.0080   39.6180 C.3    90  SER90       0.2103
      6  OG        41.2990   20.5870   40.8400 O.3    90  SER90      -0.2182
      7  N         39.9940   17.5360   39.5920 N.am   91  HIS91      -0.1961
      8  CA        40.6650   16.2180   39.7010 C.3    91  HIS91       0.1787
      9  C         40.3110   15.3030   38.5240 C.2    91  HIS91       0.2620
     10  O         39.1320   15.0340   38.2310 O.2    91  HIS91      -0.2715
     11  CB        40.3740   15.5300   41.0290 C.3    91  HIS91       0.0785
     12  CG        41.4190   14.5370   41.4030 C.ar   91  HIS91       0.0821
     13  ND1       41.4760   13.2650   40.8630 N.ar   91  HIS91      -0.2267
     14  CD2       42.4840   14.6500   42.2290 C.ar   91  HIS91       0.1154
     15  CE1       42.5390   12.6370   41.3600 C.ar   91  HIS91       0.1986
     16  NE2       43.1660   13.4520   42.1950 N.ar   91  HIS91      -0.2212
     17  N         41.3320   14.8910   37.7830 N.am   92  VAL92      -0.1977
     18  CA        41.1480   14.0840   36.5460 C.3    92  VAL92       0.1596
     19  C         40.6030   12.6690   36.8250 C.2    92  VAL92       0.2287
     20  O         39.7080   12.2150   36.1180 O.2    92  VAL92      -0.2864
     21  CB        42.4610   14.0290   35.7180 C.3    92  VAL92       0.0276
     22  CG1       42.3840   13.0700   34.5300 C.3    92  VAL92       0.0022
     23  CG2       42.8490   15.4560   35.2790 C.3    92  VAL92       0.0022
     24  N         44.4930   24.4930   30.3370 N.3   133  THR133     -0.1203
     25  CA        45.2420   23.3760   30.9160 C.3   133  THR133      0.1994
     26  C         45.9560   22.5290   29.8890 C.2   133  THR133      0.2619
     27  O         45.4170   22.2570   28.7970 O.2   133  THR133     -0.2717
     28  CB        44.3220   22.4630   31.7700 C.3   133  THR133      0.1784
     29  OG1       45.0100   21.2490   32.0870 O.3   133  THR133     -0.2211
     30  CG2       43.0410   22.0950   31.0660 C.3   133  THR133      0.0376
     31  N         47.1620   22.0800   30.2440 N.am  134  SER134     -0.1937
     32  CA        47.8910   21.0800   29.4540 C.3   134  SER134      0.2055
     33  C         47.1570   19.7370   29.2670 C.2   134  SER134      0.2642
     34  O         47.4970   18.9880   28.3570 O.2   134  SER134     -0.2714
     35  CB        49.2780   20.8240   30.0710 C.3   134  SER134      0.2130
     36  OG        49.2050   20.5960   31.4800 O.3   134  SER134     -0.2179
     37  N         46.1110   19.4570   30.0610 N.am  135  GLN135     -0.1976
     38  CA        45.2790   18.2670   29.8020 C.3   135  GLN135      0.1601
     39  C         44.6170   18.3330   28.4110 C.2   135  GLN135      0.2287
     40  O         44.2830   17.2970   27.8510 O.2   135  GLN135     -0.2864
     41  CB        44.2250   18.0200   30.8810 C.3   135  GLN135      0.0394
     42  CG        44.8440   17.7070   32.2390 C.3   135  GLN135      0.0908
     43  CD        45.5730   16.3680   32.3030 C.2   135  GLN135      0.2608
     44  OE1       44.9730   15.3100   32.0770 O.2   135  GLN135     -0.2717
     45  NE2       46.8710   16.4070   32.6600 N.am  135  GLN135     -0.0878
     46  N         37.1510   15.5220   32.3130 N.3   157  TYR157     -0.1241
     47  CA        37.7500   16.8210   32.6740 C.3   157  TYR157      0.1605
     48  C         38.2820   17.5320   31.4190 C.2   157  TYR157      0.2264
     49  O         38.0000   18.7170   31.1980 O.2   157  TYR157     -0.2867
     50  CB        38.8660   16.6600   33.7350 C.3   157  TYR157      0.0534
     51  CG        39.6840   17.9320   33.9740 C.ar  157  TYR157     -0.0201
     52  CD1       39.2880   18.8750   34.9000 C.ar  157  TYR157     -0.0009
     53  CD2       40.8940   18.1570   33.3140 C.ar  157  TYR157     -0.0009
     54  CE1       40.0060   20.0400   35.1070 C.ar  157  TYR157      0.0417
     55  CE2       41.6430   19.2920   33.5310 C.ar  157  TYR157      0.0417
     56  CZ        41.2210   20.2380   34.4600 C.ar  157  TYR157      0.1957
     57  OH        41.9520   21.3860   34.6690 O.3   157  TYR157     -0.2866
     58  N         48.0310   26.4140   31.1940 N.3   184  LEU184     -0.1231
     59  CA        49.0420   26.1150   32.2520 C.3   184  LEU184      0.1693
     60  C         49.3330   24.6240   32.4000 C.2   184  LEU184      0.2592
     61  O         48.4310   23.8010   32.3810 O.2   184  LEU184     -0.2718
     62  CB        48.6670   26.7550   33.6070 C.3   184  LEU184      0.0284
     63  CG        49.0430   28.2450   33.8100 C.3   184  LEU184      0.0019
     64  CD1       48.5750   29.1510   32.6940 C.3   184  LEU184      0.0001
     65  CD2       48.5860   28.7660   35.1510 C.3   184  LEU184      0.0001
     66  N         50.6150   24.2860   32.5370 N.am  185  PHE185     -0.1962
     67  CA        51.0510   22.9300   32.8790 C.3   185  PHE185      0.1771
     68  C         51.0220   22.7440   34.4240 C.2   185  PHE185      0.2619
     69  O         50.8330   23.7180   35.1820 O.2   185  PHE185     -0.2715
     70  CB        52.4280   22.6280   32.2390 C.3   185  PHE185      0.0574
     71  CG        52.3560   22.3700   30.7430 C.ar  185  PHE185     -0.0200
     72  CD1       51.8980   23.3480   29.8460 C.ar  185  PHE185     -0.0042
     73  CD2       52.6690   21.0970   30.2350 C.ar  185  PHE185     -0.0042
     74  CE1       51.7810   23.0510   28.4740 C.ar  185  PHE185     -0.0003
     75  CE2       52.5850   20.8180   28.8710 C.ar  185  PHE185     -0.0003
     76  CZ        52.1210   21.7780   28.0070 C.ar  185  PHE185     -0.0000
     77  N         51.2010   21.4990   34.8850 N.am  186  ASN186     -0.1972
     78  CA        51.0660   21.1500   36.3130 C.3   186  ASN186      0.1688
     79  C         51.8540   22.1030   37.2080 C.2   186  ASN186      0.2292
     80  O         53.0490   22.3400   36.9770 O.2   186  ASN186     -0.2864
     81  CB        51.5110   19.7080   36.6260 C.3   186  ASN186      0.1181
     82  CG        50.6300   18.6370   35.9750 C.2   186  ASN186      0.2629
     83  OD1       50.4710   18.6360   34.7450 O.2   186  ASN186     -0.2716
     84  ND2       50.1460   17.6710   36.7750 N.am  186  ASN186     -0.0877
     85  N         52.3300   22.9700   41.5980 N.3   188  GLU188     -0.1245
     86  CA        52.1780   22.4010   42.9360 C.3   188  GLU188      0.1567
     87  C         52.7190   23.3760   43.9940 C.2   188  GLU188      0.2260
     88  O         53.2400   24.4520   43.6480 O.2   188  GLU188     -0.2867
     89  CB        52.9150   21.0350   43.0510 C.3   188  GLU188      0.0388
     90  CG        53.1070   20.2210   41.7380 C.3   188  GLU188      0.1160
     91  CD        51.8100   19.6320   41.1790 C.2   188  GLU188      0.3649
     92  OE1       51.3980   20.0300   40.0530 O.co2 188  GLU188     -0.2457
     93  OE2       51.1960   18.7610   41.8600 O.co2 188  GLU188     -0.2457
     94  N         48.8990   22.4200   47.8050 N.3   192  ARG192     -0.1245
     95  CA        48.3010   21.5210   46.8120 C.3   192  ARG192      0.1563
     96  C         47.3100   20.5180   47.4470 C.2   192  ARG192      0.2260
     97  O         47.5610   20.0030   48.5480 O.2   192  ARG192     -0.2867
     98  CB        49.4590   20.7410   46.1240 C.3   192  ARG192      0.0307
     99  CG        49.1120   19.7800   44.9760 C.3   192  ARG192      0.0489
    100  CD        48.4390   20.4970   43.8110 C.3   192  ARG192      0.2205
    101  NE        48.6660   19.9170   42.4920 N.pl3 192  ARG192     -0.0865
    102  CZ        47.8530   20.0430   41.4310 C.cat 192  ARG192      0.5346
    103  NH1       46.6040   20.5030   41.5550 N.pl3 192  ARG192      0.1354
    104  NH2       48.2890   19.6470   40.2380 N.pl3 192  ARG192      0.1354
    105  N         45.0270   14.8360   47.2770 N.3   195  ASN195     -0.1225
    106  CA        44.6670   13.7860   46.3290 C.3   195  ASN195      0.1785
    107  C         45.4680   13.8620   45.0090 C.2   195  ASN195      0.2597
    108  O         45.3490   12.9530   44.1580 O.2   195  ASN195     -0.2718
    109  CB        43.1380   13.9490   45.9930 C.3   195  ASN195      0.1169
    110  CG        42.4970   12.6520   45.5210 C.2   195  ASN195      0.2627
    111  OD1       42.9610   11.5410   45.8590 O.2   195  ASN195     -0.2716
    112  ND2       41.4060   12.7690   44.7720 N.am  195  ASN195     -0.0877
    113  N         46.2580   14.9280   44.7960 N.am  196  PHE196     -0.1962
    114  CA        47.1470   15.0420   43.6200 C.3   196  PHE196      0.1771
    115  C         48.4680   14.2950   43.9310 C.2   196  PHE196      0.2619
    116  O         48.8110   14.1400   45.1120 O.2   196  PHE196     -0.2715
    117  CB        47.3570   16.5280   43.2230 C.3   196  PHE196      0.0574
    118  CG        46.0630   17.1910   42.8040 C.ar  196  PHE196     -0.0200
    119  CD1       45.5240   16.9660   41.5470 C.ar  196  PHE196     -0.0042
    120  CD2       45.3620   18.0110   43.6910 C.ar  196  PHE196     -0.0042
    121  CE1       44.3070   17.5220   41.1880 C.ar  196  PHE196     -0.0003
    122  CE2       44.1390   18.5680   43.3540 C.ar  196  PHE196     -0.0003
    123  CZ        43.6140   18.3270   42.0990 C.ar  196  PHE196     -0.0000
    124  N         49.2110   13.8300   42.9080 N.am  197  VAL197     -0.1963
    125  CA        50.2440   12.8120   43.1760 C.3   197  VAL197      0.1727
    126  C         51.4210   13.3360   44.0070 C.2   197  VAL197      0.2616
    127  O         51.9550   12.6120   44.8670 O.2   197  VAL197     -0.2715
    128  CB        50.7480   12.1070   41.8820 C.3   197  VAL197      0.0290
    129  CG1       51.7160   12.9570   41.0650 C.3   197  VAL197      0.0023
    130  CG2       51.3280   10.7110   42.1710 C.3   197  VAL197      0.0023
    131  N         51.8030   14.5850   43.7650 N.am  198  THR198     -0.1951
    132  CA        52.9780   15.1970   44.4110 C.3   198  THR198      0.1897
    133  C         52.7530   15.3590   45.9220 C.2   198  THR198      0.2313
    134  O         53.5950   14.9650   46.7640 O.2   198  THR198     -0.2863
    135  CB        53.2520   16.5730   43.7560 C.3   198  THR198      0.1794
    136  OG1       52.0750   17.3870   43.8850 O.3   198  THR198     -0.2208
    137  CG2       53.6150   16.3700   42.2700 C.3   198  THR198      0.0378
    138  N         50.3210   13.8530   47.6560 N.3   200  LYS200     -0.1245
    139  CA        50.1180   12.4940   48.2030 C.3   200  LYS200      0.1561
    140  C         51.4790   11.8650   48.6410 C.2   200  LYS200      0.2260
    141  O         51.6050   11.2970   49.7460 O.2   200  LYS200     -0.2867
    142  CB        49.3770   11.5940   47.2060 C.3   200  LYS200      0.0271
    143  CG        49.2380   10.1500   47.6090 C.3   200  LYS200      0.0035
    144  CD        48.3380    9.3870   46.6510 C.3   200  LYS200      0.0206
    145  CE        48.1870    7.9450   47.0490 C.3   200  LYS200      0.1093
    146  NZ        47.1820    7.2030   46.2100 N.3   200  LYS200     -0.1314
    147  N         50.2910    3.8110   45.1770 N.3   218  LEU218     -0.1231
    148  CA        50.1450    4.6870   44.0130 C.3   218  LEU218      0.1693
    149  C         49.5310    3.9190   42.8390 C.2   218  LEU218      0.2593
    150  O         49.2590    2.7140   42.9450 O.2   218  LEU218     -0.2718
    151  CB        51.5320    5.2600   43.6110 C.3   218  LEU218      0.0284
    152  CG        52.1430    6.2590   44.6010 C.3   218  LEU218      0.0019
    153  CD1       53.6170    6.5290   44.3330 C.3   218  LEU218      0.0001
    154  CD2       51.3510    7.5760   44.5580 C.3   218  LEU218      0.0001
    155  N         49.3520    4.6250   41.7170 N.am  219  GLY219     -0.1942
    156  CA        48.8590    4.0430   40.4670 C.3   219  GLY219      0.2014
    157  C         50.0160    3.8800   39.4750 C.2   219  GLY219      0.2638
    158  O         50.9440    3.0920   39.7040 O.2   219  GLY219     -0.2714
    159  N         49.9460    4.6030   38.3580 N.am  220  ASN220     -0.1972
    160  CA        50.9420    4.4920   37.2700 C.3   220  ASN220      0.1688
    161  C         52.2510    5.2340   37.5940 C.2   220  ASN220      0.2292
    162  O         52.3220    6.4740   37.4910 O.2   220  ASN220     -0.2864
    163  CB        50.3180    5.0160   35.9590 C.3   220  ASN220      0.1181
    164  CG        51.3080    5.0750   34.8020 C.2   220  ASN220      0.2629
    165  OD1       52.3170    4.3640   34.7880 O.2   220  ASN220     -0.2716
    166  ND2       50.9990    5.9130   33.8080 N.am  220  ASN220     -0.0877
    167  N         54.2140    7.5650   34.5610 N.3   223  ALA223     -0.1245
    168  CA        53.7170    8.8250   33.9970 C.3   223  ALA223      0.1562
    169  C         54.7570    9.9360   34.1560 C.2   223  ALA223      0.2260
    170  O         55.4380   10.0060   35.1930 O.2   223  ALA223     -0.2867
    171  CB        52.4020    9.2260   34.6600 C.3   223  ALA223      0.0290
    172  N         55.6540   14.1770   33.8580 N.3   225  ARG225     -0.1245
    173  CA        55.0510   15.5200   33.9870 C.3   225  ARG225      0.1563
    174  C         56.0940   16.6300   34.0230 C.2   225  ARG225      0.2260
    175  O         57.2480   16.4040   34.4230 O.2   225  ARG225     -0.2867
    176  CB        54.1890   15.5980   35.2620 C.3   225  ARG225      0.0307
    177  CG        52.8970   14.7820   35.2470 C.3   225  ARG225      0.0489
    178  CD        51.8600   15.3800   34.3040 C.3   225  ARG225      0.2205
    179  NE        50.5800   14.6740   34.1780 N.pl3 225  ARG225     -0.0865
    180  CZ        50.3680   13.6000   33.3980 C.cat 225  ARG225      0.5346
    181  NH1       49.1600   13.0520   33.3040 N.pl3 225  ARG225      0.1354
    182  NH2       51.3610   13.0710   32.6960 N.pl3 225  ARG225      0.1354
    183  N         56.4520   19.8950   36.0920 N.3   227  TRP227     -0.1241
    184  CA        55.9780   20.4000   37.3860 C.3   227  TRP227      0.1605
    185  C         56.6580   21.7330   37.7540 C.2   227  TRP227      0.2264
    186  O         57.8920   21.7700   37.9120 O.2   227  TRP227     -0.2867
    187  CB        56.2390   19.3660   38.5050 C.3   227  TRP227      0.0550
    188  CG        55.2930   18.1570   38.5900 C.ar  227  TRP227      0.0003
    189  CD1       53.9380   18.2080   38.8080 C.ar  227  TRP227      0.0946
    190  CD2       55.6310   16.7530   38.5460 C.ar  227  TRP227      0.0152
    191  NE1       53.4160   16.9330   38.8970 N.ar  227  TRP227     -0.2442
    192  CE2       54.4230   16.0200   38.7290 C.ar  227  TRP227      0.0810
    193  CE3       56.8230   16.0410   38.3260 C.ar  227  TRP227      0.0012
    194  CZ2       54.3820   14.6160   38.7340 C.ar  227  TRP227      0.0191
    195  CZ3       56.7780   14.6370   38.3370 C.ar  227  TRP227      0.0001
    196  CH2       55.5640   13.9460   38.5400 C.ar  227  TRP227      0.0015
    197  N         56.7380   10.1150   37.8840 N.3   259  VAL259     -0.1245
    198  CA        56.2300    9.8560   39.2460 C.3   259  VAL259      0.1561
    199  C         57.2440    9.0420   40.0900 C.2   259  VAL259      0.2260
    200  O         57.4940    9.3720   41.2590 O.2   259  VAL259     -0.2867
    201  CB        54.8440    9.1540   39.1850 C.3   259  VAL259      0.0252
    202  CG1       54.3760    8.6620   40.5510 C.3   259  VAL259      0.0019
    203  CG2       53.8090   10.0870   38.5720 C.3   259  VAL259      0.0019
    204  N         43.9550    3.3650   41.4250 N.3   301  TYR301     -0.1227
    205  CA        44.5130    4.7020   41.1480 C.3   301  TYR301      0.1736
    206  C         44.8870    4.9510   39.6830 C.2   301  TYR301      0.2595
    207  O         45.2730    6.0810   39.3460 O.2   301  TYR301     -0.2718
    208  CB        45.7070    4.9720   42.0640 C.3   301  TYR301      0.0548
    209  CG        45.2960    4.9950   43.5440 C.ar  301  TYR301     -0.0200
    210  CD1       44.3840    5.9400   44.0200 C.ar  301  TYR301     -0.0009
    211  CD2       45.8210    4.0790   44.4600 C.ar  301  TYR301     -0.0009
    212  CE1       43.9960    5.9740   45.3580 C.ar  301  TYR301      0.0417
    213  CE2       45.4300    4.0950   45.7920 C.ar  301  TYR301      0.0417
    214  CZ        44.5020    5.0420   46.2380 C.ar  301  TYR301      0.1957
    215  OH        44.1270    5.0860   47.5760 O.3   301  TYR301     -0.2866
    216  N         44.7650    3.9420   38.8190 N.am  302  TYR302     -0.1962
    217  CA        44.9620    4.1340   37.3590 C.3   302  TYR302      0.1771
    218  C         43.7860    4.9190   36.7480 C.2   302  TYR302      0.2619
    219  O         42.7010    4.9850   37.3480 O.2   302  TYR302     -0.2715
    220  CB        45.1210    2.7740   36.6260 C.3   302  TYR302      0.0574
    221  CG        46.5030    2.1230   36.7030 C.ar  302  TYR302     -0.0198
    222  CD1       47.1340    1.8770   37.9200 C.ar  302  TYR302     -0.0009
    223  CD2       47.1950    1.7630   35.5350 C.ar  302  TYR302     -0.0009
    224  CE1       48.3970    1.2770   37.9710 C.ar  302  TYR302      0.0417
    225  CE2       48.4450    1.1620   35.5820 C.ar  302  TYR302      0.0417
    226  CZ        49.0530    0.9240   36.8070 C.ar  302  TYR302      0.1957
    227  OH        50.3180    0.3080   36.8460 O.3   302  TYR302     -0.2866
    228  N         44.0060    5.5230   35.5780 N.am  303  ARG303     -0.1977
    229  CA        42.9280    6.1690   34.7950 C.3   303  ARG303      0.1597
    230  C         42.6160    5.3390   33.5510 C.2   303  ARG303      0.2287
    231  O         43.5460    4.8090   32.9180 O.2   303  ARG303     -0.2864
    232  CB        43.2870    7.6220   34.3850 C.3   303  ARG303      0.0334
    233  CG        43.3210    8.6460   35.5280 C.3   303  ARG303      0.0492
    234  CD        44.6360    8.6420   36.2700 C.3   303  ARG303      0.2205
    235  NE        44.6820    9.4400   37.4990 N.pl3 303  ARG303     -0.0865
    236  CZ        44.9840   10.7450   37.5810 C.cat 303  ARG303      0.5346
    237  NH1       45.0610   11.3150   38.7890 N.pl3 303  ARG303      0.1354
    238  NH2       45.2240   11.4840   36.4940 N.pl3 303  ARG303      0.1354
    239  N         44.9330    7.2000   30.0830 N.3   306  GLU306     -0.1245
    240  CA        46.0220    7.9670   30.6870 C.3   306  GLU306      0.1567
    241  C         46.5590    9.0550   29.7540 C.2   306  GLU306      0.2260
    242  O         46.4160    8.9730   28.5130 O.2   306  GLU306     -0.2867
    243  CB        47.1260    6.9830   31.1440 C.3   306  GLU306      0.0388
    244  CG        48.3990    7.5550   31.7910 C.3   306  GLU306      0.1160
    245  CD        48.1620    8.2380   33.1330 C.2   306  GLU306      0.3649
    246  OE1       47.6710    9.4080   33.1480 O.co2 306  GLU306     -0.2457
    247  OE2       48.5400    7.6340   34.1760 O.co2 306  GLU306     -0.2457
    248  N         53.7310   14.8960   29.4210 N.3   310  LEU310     -0.1245
    249  CA        53.5520   16.3660   29.1590 C.3   310  LEU310      0.1561
    250  C         54.8850   17.0830   29.3340 C.2   310  LEU310      0.2260
    251  O         55.5970   16.8250   30.3290 O.2   310  LEU310     -0.2867
    252  CB        52.5120   16.9710   30.1290 C.3   310  LEU310      0.0270
    253  CG        51.0490   16.5340   29.9420 C.3   310  LEU310      0.0019
    254  CD1       50.2020   17.1070   31.0730 C.3   310  LEU310      0.0001
    255  CD2       50.4650   16.9340   28.5780 C.3   310  LEU310      0.0001
@<TRIPOS>BOND
     1    40    39    2
     2    76    74   ar
     3    76    75   ar
     4    34    33    2
     5    39    38    1
     6    74    72   ar
     7   242   241    2
     8   255   253    1
     9    27    26    2
    10    75    73   ar
    11   249   250    1
    12   249   248    1
    13   249   252    1
    14    33    32    1
    15    33    37   am
    16   250   251    2
    17    32    35    1
    18    32    31    1
    19   241   240    1
    20    38    37    1
    21    38    41    1
    22    72    71   ar
    23    26    31   am
    24    26    25    1
    25   253   252    1
    26   253   254    1
    27    35    36    1
    28   239   240    1
    29    73    71   ar
    30    24    25    1
    31   240   243    1
    32    71    70    1
    33    41    42    1
    34    25    28    1
    35    30    28    1
    36   243   244    1
    37    58    59    1
    38    49    48    2
    39    48    47    1
    40    28    29    1
    41   244   245    1
    42    44    43    2
    43    70    67    1
    44    42    43    1
    45    59    60    1
    46    59    62    1
    47    43    45   am
    48    46    47    1
    49    61    60    2
    50    60    66   am
    51    66    67    1
    52    47    50    1
    53    64    63    1
    54   182   180    1
    55    67    68    1
    56   231   230    2
    57   245   246   ar
    58   245   247   ar
    59   181   180    1
    60    53    55   ar
    61    53    51   ar
    62   180   179    2
    63    55    56   ar
    64   230   229    1
    65    62    63    1
    66    50    51    1
    67   166   164   am
    68    63    65    1
    69   172   173    1
    70    51    52   ar
    71   173   174    1
    72   173   176    1
    73   168   169    1
    74   168   167    1
    75   168   171    1
    76   174   175    2
    77   169   170    2
    78   179   178    1
    79   178   177    1
    80   232   229    1
    81   232   233    1
    82    68    77   am
    83    68    69    2
    84    56    57    1
    85    56    54   ar
    86    22    21    1
    87    83    82    2
    88   165   164    2
    89   229   228    1
    90   164   163    1
    91    77    78    1
    92    52    54   ar
    93   177   176    1
    94    23    21    1
    95   233   234    1
    96   223   225   ar
    97   223   221   ar
    98   228   218   am
    99   225   226   ar
   100    21    18    1
   101   163   160    1
   102    82    81    1
   103    82    84   am
   104   183   184    1
   105    20    19    2
   106   234   235    1
   107    78    81    1
   108    78    79    1
   109   238   236    1
   110    18    19    1
   111    18    17    1
   112   220   221    1
   113   220   217    1
   114   221   222   ar
   115   218   219    2
   116   218   217    1
   117   226   227    1
   118   226   224   ar
   119    80    79    2
   120   160   161    1
   121   160   159    1
   122   217   216    1
   123   184   185    1
   124   184   187    1
   125   162   161    2
   126   235   236    2
   127   236   237    1
   128   185   186    2
   129    17     9   am
   130   197   198    1
   131   222   224   ar
   132    10     9    2
   133   193   195   ar
   134   193   190   ar
   135   195   196   ar
   136   159   157   am
   137     4     3    2
   138   187   188    1
   139     9     8    1
   140   196   194   ar
   141   190   188   ar
   142   190   192   ar
   143   203   201    1
   144   188   189   ar
   145   192   194   ar
   146   192   191   ar
   147   189   191   ar
   148   216   206   am
   149     3     2    1
   150     3     7   am
   151     2     5    1
   152     2     1    1
   153   201   198    1
   154   201   202    1
   155   198   199    1
   156   207   206    2
   157   157   158    2
   158   157   156    1
   159     7     8    1
   160     5     6    1
   161   206   205    1
   162     8    11    1
   163    92    91   ar
   164   199   200    2
   165   104   102    1
   166   156   155    1
   167    13    15   ar
   168    13    12   ar
   169    11    12    1
   170   129   128    1
   171   205   204    1
   172   205   208    1
   173    91    90    1
   174    91    93   ar
   175   121   119   ar
   176   121   123   ar
   177    15    16   ar
   178    12    14   ar
   179   102   103    1
   180   102   101    2
   181   119   118   ar
   182    85    86    1
   183   155   149   am
   184    90    89    1
   185   128   130    1
   186   128   125    1
   187   208   209    1
   188   123   122   ar
   189    16    14   ar
   190   137   135    1
   191   101   100    1
   192   118   117    1
   193   118   120   ar
   194   149   150    2
   195   149   148    1
   196   124   125    1
   197   124   115   am
   198    86    89    1
   199    86    87    1
   200   125   126    1
   201   117   114    1
   202   122   120   ar
   203   209   210   ar
   204   209   211   ar
   205   151   148    1
   206   151   152    1
   207   114   115    1
   208   114   113    1
   209    88    87    2
   210   135   136    1
   211   135   132    1
   212   131   126   am
   213   131   132    1
   214   100    99    1
   215   115   116    2
   216   126   127    2
   217   148   147    1
   218   210   212   ar
   219   108   107    2
   220   153   152    1
   221   132   133    1
   222   211   213   ar
   223   154   152    1
   224   112   110   am
   225   113   107   am
   226    99    98    1
   227   107   106    1
   228   212   214   ar
   229   110   111    2
   230   110   109    1
   231   213   214   ar
   232   133   134    2
   233   109   106    1
   234    98    95    1
   235   146   145    1
   236   214   215    1
   237   106   105    1
   238   144   145    1
   239   144   143    1
   240    95    96    1
   241    95    94    1
   242   142   143    1
   243   142   139    1
   244    96    97    2
   245   138   139    1
   246   139   140    1
   247   140   141    2
