@<TRIPOS>MOLECULE
tmp/6gplA00.pdb
 88 83 0 0 0
SMALL
GASTEIGER

@<TRIPOS>ATOM
      1  N         17.6490  -35.7980  -10.4850 N.3    41  GLY41      -0.1210
      2  CA        18.7070  -35.0930  -11.2090 C.3    41  GLY41       0.1956
      3  C         18.3080  -34.4370  -12.5120 C.2    41  GLY41       0.2611
      4  O         18.7360  -33.3180  -12.8150 O.2    41  GLY41      -0.2717
      5  N         17.4680  -35.1070  -13.2990 N.am   42  ARG42      -0.1979
      6  CA        17.0550  -34.5560  -14.5980 C.3    42  ARG42       0.1597
      7  C         16.0610  -33.4120  -14.5160 C.2    42  ARG42       0.2287
      8  O         15.8820  -32.6970  -15.4900 O.2    42  ARG42      -0.2864
      9  CB        16.4270  -35.6650  -15.4700 C.3    42  ARG42       0.0334
     10  CG        17.3850  -36.7750  -15.8750 C.3    42  ARG42       0.0492
     11  CD        16.7470  -37.5980  -16.9630 C.3    42  ARG42       0.2205
     12  NE        17.6130  -38.6910  -17.3720 N.pl3  42  ARG42      -0.0865
     13  CZ        17.6870  -39.8820  -16.7800 C.cat  42  ARG42       0.5346
     14  NH1       16.9110  -40.2150  -15.7300 N.pl3  42  ARG42       0.1354
     15  NH2       18.5320  -40.7620  -17.2550 N.pl3  42  ARG42       0.1354
     16  N         21.6370  -36.1110  -24.3220 N.3   182  PRO182     -0.2102
     17  CA        22.6840  -36.0510  -23.3090 C.3   182  PRO182      0.1504
     18  C         22.1650  -36.4900  -21.9280 C.2   182  PRO182      0.2576
     19  O         22.9300  -36.6160  -21.0760 O.2   182  PRO182     -0.2718
     20  CB        23.0870  -34.5730  -23.2880 C.3   182  PRO182      0.0282
     21  CG        22.6760  -34.0710  -24.6240 C.3   182  PRO182      0.0208
     22  CD        21.3850  -34.8070  -24.8970 C.3   182  PRO182      0.0893
     23  N         20.8580  -36.7060  -21.8020 N.am  183  ARG183     -0.1966
     24  CA        20.2150  -37.1420  -20.5340 C.3   183  ARG183      0.1729
     25  C         19.9040  -38.6440  -20.5630 C.2   183  ARG183      0.2616
     26  O         19.3680  -39.1380  -19.6070 O.2   183  ARG183     -0.2715
     27  CB        18.8660  -36.4480  -20.3510 C.3   183  ARG183      0.0348
     28  CG        18.9640  -34.9420  -20.2550 C.3   183  ARG183      0.0492
     29  CD        17.5850  -34.3870  -20.0380 C.3   183  ARG183      0.2205
     30  NE        17.6880  -32.9550  -20.0350 N.pl3 183  ARG183     -0.0865
     31  CZ        16.6710  -32.1370  -20.0440 C.cat 183  ARG183      0.5346
     32  NH1       16.8650  -30.8670  -20.3370 N.pl3 183  ARG183      0.1354
     33  NH2       15.4730  -32.5880  -19.7580 N.pl3 183  ARG183      0.1354
     34  N         20.2270  -39.3140  -21.6610 N.am  184  ARG184     -0.1963
     35  CA        19.9770  -40.7630  -21.8030 C.3   184  ARG184      0.1729
     36  C         20.6690  -41.5490  -20.6770 C.2   184  ARG184      0.2617
     37  O         21.7800  -41.2150  -20.3090 O.2   184  ARG184     -0.2715
     38  CB        20.5070  -41.2170  -23.1660 C.3   184  ARG184      0.0348
     39  CG        20.2740  -42.6800  -23.4860 C.3   184  ARG184      0.0492
     40  CD        18.8100  -43.0020  -23.6820 C.3   184  ARG184      0.2205
     41  NE        18.5680  -44.0430  -24.6540 N.pl3 184  ARG184     -0.0865
     42  CZ        17.5120  -44.8210  -24.6730 C.cat 184  ARG184      0.5346
     43  NH1       16.7860  -44.9830  -23.5920 N.pl3 184  ARG184      0.1354
     44  NH2       17.1760  -45.4490  -25.7720 N.pl3 184  ARG184      0.1354
     45  N         20.0190  -42.5890  -20.1740 N.am  185  GLY185     -0.1940
     46  CA        20.6270  -43.4550  -19.1860 C.3   185  GLY185      0.2014
     47  C         21.9600  -43.9880  -19.6620 C.2   185  GLY185      0.2638
     48  O         22.0910  -44.3540  -20.8320 O.2   185  GLY185     -0.2714
     49  N         22.9340  -44.0470  -18.7590 N.am  186  ALA186     -0.1977
     50  CA        24.2930  -44.4620  -19.0760 C.3   186  ALA186      0.1597
     51  C         24.4160  -45.9110  -19.5420 C.2   186  ALA186      0.2287
     52  O         25.4130  -46.2610  -20.1610 O.2   186  ALA186     -0.2864
     53  CB        25.2180  -44.2580  -17.8780 C.3   186  ALA186      0.0319
     54  N         24.6540  -43.6400  -25.0070 N.3   191  ARG191     -0.1245
     55  CA        25.2370  -42.9150  -23.8970 C.3   191  ARG191      0.1563
     56  C         26.4520  -43.6340  -23.3310 C.2   191  ARG191      0.2260
     57  O         27.4040  -42.9850  -22.8990 O.2   191  ARG191     -0.2867
     58  CB        24.2040  -42.6940  -22.7850 C.3   191  ARG191      0.0307
     59  CG        24.6480  -41.7270  -21.7000 C.3   191  ARG191      0.0489
     60  CD        24.5490  -40.2670  -22.1430 C.3   191  ARG191      0.2205
     61  NE        25.3690  -39.4290  -21.2600 N.pl3 191  ARG191     -0.0865
     62  CZ        25.0730  -39.1120  -19.9970 C.cat 191  ARG191      0.5346
     63  NH1       23.9310  -39.5150  -19.4380 N.pl3 191  ARG191      0.1354
     64  NH2       25.9320  -38.3660  -19.2830 N.pl3 191  ARG191      0.1354
     65  N         29.7660  -41.4010  -23.3260 N.3   195  ARG195     -0.1245
     66  CA        30.4930  -41.2490  -22.0580 C.3   195  ARG195      0.1563
     67  C         31.9120  -41.8500  -22.1130 C.2   195  ARG195      0.2260
     68  O         32.8790  -41.2370  -21.6220 O.2   195  ARG195     -0.2867
     69  CB        29.7260  -41.8620  -20.8790 C.3   195  ARG195      0.0307
     70  CG        28.4540  -41.1110  -20.4840 C.3   195  ARG195      0.0489
     71  CD        27.6410  -41.9080  -19.4680 C.3   195  ARG195      0.2205
     72  NE        28.3980  -42.1930  -18.2600 N.pl3 195  ARG195     -0.0865
     73  CZ        28.5760  -41.3440  -17.2340 C.cat 195  ARG195      0.5346
     74  NH1       28.0490  -40.1230  -17.2310 N.pl3 195  ARG195      0.1354
     75  NH2       29.3140  -41.7330  -16.2040 N.pl3 195  ARG195      0.1354
     76  N         30.8760  -32.5750  -19.5400 N.3   335  LEU335     -0.1245
     77  CA        30.5010  -33.1560  -18.2530 C.3   335  LEU335      0.1561
     78  C         31.6910  -33.7880  -17.5260 C.2   335  LEU335      0.2260
     79  O         31.8760  -33.5680  -16.3340 O.2   335  LEU335     -0.2867
     80  CB        29.4000  -34.2040  -18.4440 C.3   335  LEU335      0.0270
     81  CG        28.8060  -34.8500  -17.1950 C.3   335  LEU335      0.0019
     82  CD1       28.0240  -33.8300  -16.3830 C.3   335  LEU335      0.0001
     83  CD2       27.9180  -36.0350  -17.5930 C.3   335  LEU335      0.0001
     84  N         31.6480  -38.0070  -12.8100 N.3   342  ALA342     -0.1245
     85  CA        30.2650  -37.8280  -13.2800 C.3   342  ALA342      0.1562
     86  C         29.7890  -39.0160  -14.1310 C.2   342  ALA342      0.2260
     87  O         28.6300  -39.0160  -14.5850 O.2   342  ALA342     -0.2867
     88  CB        30.1320  -36.5400  -14.0730 C.3   342  ALA342      0.0290
@<TRIPOS>BOND
     1    44    42    1
     2    54    55    1
     3    22    21    1
     4    22    16    1
     5    42    41    2
     6    42    43    1
     7    41    40    1
     8    21    20    1
     9    16    17    1
    10    55    56    1
    11    55    58    1
    12    40    39    1
    13    39    38    1
    14    56    57    2
    15    65    66    1
    16    17    20    1
    17    17    18    1
    18    38    35    1
    19    58    59    1
    20    60    59    1
    21    60    61    1
    22    67    66    1
    23    67    68    2
    24    66    69    1
    25    18    23   am
    26    18    19    2
    27    35    34    1
    28    35    36    1
    29    23    24    1
    30    34    25   am
    31    61    62    2
    32    69    70    1
    33    48    47    2
    34    36    37    2
    35    36    45   am
    36    25    24    1
    37    25    26    2
    38    24    27    1
    39    70    71    1
    40    27    28    1
    41    32    31    1
    42    28    29    1
    43    45    46    1
    44    52    51    2
    45    31    30    2
    46    31    33    1
    47    29    30    1
    48    62    63    1
    49    62    64    1
    50    47    46    1
    51    47    49   am
    52    51    50    1
    53    76    77    1
    54    71    72    1
    55    50    49    1
    56    50    53    1
    57    80    77    1
    58    80    81    1
    59    72    73    2
    60    77    78    1
    61    83    81    1
    62    78    79    2
    63    12    11    1
    64    12    13    2
    65    15    13    1
    66    73    74    1
    67    73    75    1
    68    81    82    1
    69    11    10    1
    70    13    14    1
    71    10     9    1
    72     8     7    2
    73     9     6    1
    74     6     7    1
    75     6     5    1
    76    87    86    2
    77    86    85    1
    78    88    85    1
    79     5     3   am
    80    85    84    1
    81     4     3    2
    82     3     2    1
    83     2     1    1
