@<TRIPOS>MOLECULE
tmp/6gpnB00.pdb
 125 116 0 0 0
SMALL
GASTEIGER

@<TRIPOS>ATOM
      1  N         15.4600  -54.3310    6.1340 N.3   115  MET115     -0.1196
      2  CA        15.4510  -53.9840    4.7130 C.3   115  MET115      0.1786
      3  C         16.0270  -55.0990    3.8520 C.2   115  MET115      0.2306
      4  O         15.6540  -55.2290    2.6800 O.2   115  MET115     -0.2863
      5  CB        16.2380  -52.6830    4.4740 C.2   115  MET115      0.0070
      6  CG        16.7740  -52.4880    3.0310 C.2   115  MET115      0.0282
      7  SD        18.1400  -51.2830    2.7850 S.3   115  MET115     -0.1125
      8  CE        17.5260  -49.8520    3.6670 C.3   115  MET115      0.0742
      9  N         22.5120  -51.3870   -0.2910 N.3   123  PHE123     -0.1241
     10  CA        21.5890  -50.6800   -1.1570 C.3   123  PHE123      0.1605
     11  C         22.3710  -49.8880   -2.1900 C.2   123  PHE123      0.2264
     12  O         23.4760  -49.3970   -1.9290 O.2   123  PHE123     -0.2867
     13  CB        20.6020  -49.7710   -0.4050 C.3   123  PHE123      0.0534
     14  CG        21.1760  -49.0660    0.7700 C.ar  123  PHE123     -0.0203
     15  CD1       21.3600  -49.7270    1.9700 C.ar  123  PHE123     -0.0042
     16  CD2       21.4650  -47.7130    0.6950 C.ar  123  PHE123     -0.0042
     17  CE1       21.8690  -49.0620    3.0650 C.ar  123  PHE123     -0.0003
     18  CE2       21.9680  -47.0400    1.7880 C.ar  123  PHE123     -0.0003
     19  CZ        22.1730  -47.7130    2.9750 C.ar  123  PHE123     -0.0000
     20  N         20.6880  -35.7980    4.2270 N.3   131  MET131     -0.1245
     21  CA        20.0600  -36.6970    5.1900 C.3   131  MET131      0.1570
     22  C         20.4560  -36.2550    6.5980 C.2   131  MET131      0.2261
     23  O         21.6370  -36.2940    6.9560 O.2   131  MET131     -0.2867
     24  CB        20.4800  -38.1400    4.9300 C.3   131  MET131      0.0387
     25  CG        19.9200  -39.1310    5.9180 C.3   131  MET131      0.0595
     26  SD        20.6090  -40.7780    5.6020 S.3   131  MET131     -0.1393
     27  CE        22.2280  -40.5690    6.3240 C.3   131  MET131      0.0692
     28  N         21.4250  -38.0550   12.8770 N.3   134  HIS134     -0.1241
     29  CA        20.5290  -38.8420   13.7080 C.3   134  HIS134      0.1621
     30  C         21.2920  -40.0180   14.2970 C.2   134  HIS134      0.2264
     31  O         22.4260  -40.3150   13.9090 O.2   134  HIS134     -0.2867
     32  CB        19.3560  -39.3770   12.8990 C.3   134  HIS134      0.0745
     33  CG        19.7840  -40.3080   11.8140 C.ar  134  HIS134      0.0817
     34  ND1       20.2990  -39.8600   10.6140 N.ar  134  HIS134     -0.2268
     35  CD2       19.8210  -41.6610   11.7610 C.ar  134  HIS134      0.1154
     36  CE1       20.6200  -40.8970    9.8610 C.ar  134  HIS134      0.1986
     37  NE2       20.3420  -42.0000   10.5350 N.ar  134  HIS134     -0.2212
     38  N         20.7240  -44.2730   14.9090 N.3   136  ASP136     -0.1239
     39  CA        19.9730  -45.4390   14.4650 C.3   136  ASP136      0.1674
     40  C         19.3210  -46.1120   15.6480 C.2   136  ASP136      0.2266
     41  O         19.6880  -45.8770   16.8040 O.2   136  ASP136     -0.2867
     42  CB        20.8750  -46.4580   13.7740 C.3   136  ASP136      0.1410
     43  CG        21.2470  -46.0240   12.3880 C.2   136  ASP136      0.3668
     44  OD1       20.8630  -44.8800   12.0550 O.co2 136  ASP136     -0.2456
     45  OD2       21.9320  -46.7740   11.6570 O.co2 136  ASP136     -0.2456
     46  N         29.0330  -48.2520    8.3230 N.3   149  MET149     -0.1245
     47  CA        28.6060  -47.8290    6.9980 C.3   149  MET149      0.1570
     48  C         29.7870  -47.9460    6.0610 C.2   149  MET149      0.2261
     49  O         30.8000  -47.2640    6.2470 O.2   149  MET149     -0.2867
     50  CB        28.0510  -46.4010    7.0270 C.3   149  MET149      0.0387
     51  CG        26.7010  -46.3530    7.7110 C.3   149  MET149      0.0595
     52  SD        26.0630  -44.7060    8.0800 S.3   149  MET149     -0.1393
     53  CE        27.3240  -44.0710    9.2010 C.3   149  MET149      0.0692
     54  N         29.8010  -38.6640    4.1930 N.3   162  SER162     -0.1217
     55  CA        29.1580  -38.9660    5.4590 C.3   162  SER162      0.1889
     56  C         29.2960  -37.7640    6.3770 C.2   162  SER162      0.2288
     57  O         30.3600  -37.1400    6.4490 O.2   162  SER162     -0.2866
     58  CB        29.7650  -40.2080    6.1020 C.3   162  SER162      0.2089
     59  OG        29.4670  -41.3470    5.3130 O.3   162  SER162     -0.2183
     60  N         25.1030  -39.3610   12.7740 N.3   262  HIS262     -0.1226
     61  CA        25.5750  -39.4560   11.4080 C.3   262  HIS262      0.1752
     62  C         24.4580  -39.0830   10.4570 C.2   262  HIS262      0.2597
     63  O         23.2650  -39.1340   10.7830 O.2   262  HIS262     -0.2718
     64  CB        26.0800  -40.8500   11.0650 C.3   262  HIS262      0.0759
     65  CG        25.0430  -41.8950   11.2850 C.ar  262  HIS262      0.0818
     66  ND1       24.7360  -42.3710   12.5410 N.ar  262  HIS262     -0.2268
     67  CD2       24.1900  -42.5030   10.4290 C.ar  262  HIS262      0.1154
     68  CE1       23.7560  -43.2500   12.4450 C.ar  262  HIS262      0.1986
     69  NE2       23.4070  -43.3470   11.1760 N.ar  262  HIS262     -0.2212
     70  N         24.8780  -38.7270    9.2670 N.am  263  GLY263     -0.1942
     71  CA        23.9850  -38.3110    8.2210 C.3   263  GLY263      0.2014
     72  C         24.7400  -38.3540    6.9230 C.2   263  GLY263      0.2638
     73  O         25.8050  -38.9620    6.8170 O.2   263  GLY263     -0.2714
     74  N         24.1960  -37.6890    5.9210 N.am  264  ARG264     -0.1977
     75  CA        24.8110  -37.7690    4.6110 C.3   264  ARG264      0.1597
     76  C         24.6000  -36.4550    3.8890 C.2   264  ARG264      0.2287
     77  O         23.4790  -35.9420    3.8460 O.2   264  ARG264     -0.2864
     78  CB        24.2070  -38.9270    3.8110 C.3   264  ARG264      0.0334
     79  CG        25.1160  -39.4890    2.7460 C.3   264  ARG264      0.0492
     80  CD        24.2950  -39.8940    1.5340 C.3   264  ARG264      0.2205
     81  NE        23.4990  -38.7750    1.0540 N.pl3 264  ARG264     -0.0865
     82  CZ        22.1960  -38.8200    0.8060 C.cat 264  ARG264      0.5346
     83  NH1       21.5260  -39.9490    0.9900 N.pl3 264  ARG264      0.1354
     84  NH2       21.5710  -37.7280    0.3680 N.pl3 264  ARG264      0.1354
     85  N         26.0630  -45.1910   -6.3480 N.3   275  ARG275     -0.1245
     86  CA        26.6430  -45.3160   -5.0190 C.3   275  ARG275      0.1563
     87  C         26.0400  -46.5390   -4.3430 C.2   275  ARG275      0.2260
     88  O         24.8180  -46.6280   -4.1870 O.2   275  ARG275     -0.2867
     89  CB        26.3870  -44.0750   -4.1710 C.3   275  ARG275      0.0307
     90  CG        26.5320  -44.3890   -2.6970 C.3   275  ARG275      0.0489
     91  CD        26.2870  -43.1920   -1.8430 C.3   275  ARG275      0.2205
     92  NE        27.3500  -42.2180   -2.0160 N.pl3 275  ARG275     -0.0865
     93  CZ        27.7100  -41.3530   -1.0770 C.cat 275  ARG275      0.5346
     94  NH1       28.6980  -40.4900   -1.3060 N.pl3 275  ARG275      0.1354
     95  NH2       27.0790  -41.3610    0.0930 N.pl3 275  ARG275      0.1354
     96  N         26.1490  -48.8230   -0.8300 N.3   277  LEU277     -0.1245
     97  CA        26.5280  -48.8070    0.5720 C.3   277  LEU277      0.1561
     98  C         26.1650  -50.1310    1.2250 C.2   277  LEU277      0.2260
     99  O         25.2020  -50.7990    0.8430 O.2   277  LEU277     -0.2867
    100  CB        25.8210  -47.6880    1.3320 C.3   277  LEU277      0.0270
    101  CG        26.0770  -46.3020    0.7550 C.3   277  LEU277      0.0019
    102  CD1       24.7540  -45.5810    0.4800 C.3   277  LEU277      0.0001
    103  CD2       26.9890  -45.4950    1.6760 C.3   277  LEU277      0.0001
    104  N         25.5370  -51.4640    5.2770 N.3   279  ARG279     -0.1245
    105  CA        25.3990  -51.0120    6.6490 C.3   279  ARG279      0.1563
    106  C         25.2440  -52.2240    7.5590 C.2   279  ARG279      0.2260
    107  O         24.7640  -53.2860    7.1440 O.2   279  ARG279     -0.2867
    108  CB        24.2120  -50.0350    6.8030 C.3   279  ARG279      0.0307
    109  CG        22.8690  -50.7180    6.8350 C.3   279  ARG279      0.0489
    110  CD        21.7160  -49.7450    6.9560 C.3   279  ARG279      0.2205
    111  NE        20.4510  -50.4790    6.9240 N.pl3 279  ARG279     -0.0865
    112  CZ        19.2420  -49.9240    6.9360 C.cat 279  ARG279      0.5346
    113  NH1       19.1090  -48.5960    6.9800 N.pl3 279  ARG279      0.1354
    114  NH2       18.1620  -50.7070    6.9040 N.pl3 279  ARG279      0.1354
    115  N         24.3600  -52.6600   11.9810 N.3   281  ARG281     -0.1245
    116  CA        24.0740  -52.0170   13.2480 C.3   281  ARG281      0.1563
    117  C         24.0320  -53.0980   14.3080 C.2   281  ARG281      0.2260
    118  O         23.5110  -54.1870   14.0580 O.2   281  ARG281     -0.2867
    119  CB        22.7190  -51.2780   13.2140 C.3   281  ARG281      0.0307
    120  CG        22.7780  -49.8670   12.6350 C.3   281  ARG281      0.0489
    121  CD        22.7600  -49.8830   11.1190 C.3   281  ARG281      0.2205
    122  NE        21.5840  -50.5700   10.5990 N.pl3 281  ARG281     -0.0865
    123  CZ        20.4150  -49.9770   10.3660 C.cat 281  ARG281      0.5346
    124  NH1       20.2680  -48.6760   10.6100 N.pl3 281  ARG281      0.1354
    125  NH2       19.3910  -50.6870    9.8920 N.pl3 281  ARG281      0.1354
@<TRIPOS>BOND
     1    85    86    1
     2    86    87    1
     3    86    89    1
     4    87    88    2
     5    89    90    1
     6    90    91    1
     7    11    12    2
     8    11    10    1
     9    92    91    1
    10    92    93    2
    11    94    93    1
    12    10    13    1
    13    10     9    1
    14    93    95    1
    15    96    97    1
    16    13    14    1
    17    84    82    1
    18   102   101    1
    19    97    98    1
    20    97   100    1
    21    16    14   ar
    22    16    18   ar
    23   101   100    1
    24   101   103    1
    25    14    15   ar
    26    82    83    1
    27    82    81    2
    28    99    98    2
    29    81    80    1
    30    80    79    1
    31    18    19   ar
    32    15    17   ar
    33     4     3    2
    34    79    78    1
    35     7     6    1
    36     7     8    1
    37    19    17   ar
    38     6     5    2
    39    78    75    1
    40    77    76    2
    41     3     2    1
    42    76    75    1
    43    54    55    1
    44    20    21    1
    45     5     2    1
    46    75    74    1
    47     2     1    1
    48    24    21    1
    49    24    25    1
    50    21    22    1
    51   104   105    1
    52    59    58    1
    53    55    58    1
    54    55    56    1
    55    26    25    1
    56    26    27    1
    57    74    72   am
    58    48    49    2
    59    48    47    1
    60    56    57    2
    61    22    23    2
    62   105   108    1
    63   105   106    1
    64   108   109    1
    65    73    72    2
    66   109   110    1
    67   114   112    1
    68    72    71    1
    69   111   112    2
    70   111   110    1
    71   112   113    1
    72    47    50    1
    73    47    46    1
    74    50    51    1
    75   107   106    2
    76    51    52    1
    77    52    53    1
    78    71    70    1
    79    70    62   am
    80    36    37   ar
    81    36    34   ar
    82   125   123    1
    83   123   122    2
    84   123   124    1
    85    67    69   ar
    86    67    65   ar
    87    62    63    2
    88    62    61    1
    89    37    35   ar
    90   122   121    1
    91    34    33   ar
    92    64    65    1
    93    64    61    1
    94   121   120    1
    95    69    68   ar
    96    65    66   ar
    97    61    60    1
    98    45    43   ar
    99    35    33   ar
   100    33    32    1
   101   115   116    1
   102    44    43   ar
   103    43    42    1
   104    68    66   ar
   105   120   119    1
   106    28    29    1
   107    32    29    1
   108   119   116    1
   109   116   117    1
   110    29    30    1
   111    42    39    1
   112    31    30    2
   113   118   117    2
   114    39    38    1
   115    39    40    1
   116    40    41    2
