@<TRIPOS>MOLECULE
tmp/6gppA00.pdb
 159 150 0 0 0
SMALL
GASTEIGER

@<TRIPOS>ATOM
      1  N         14.0180    3.3740    3.8920 N.3    53  GLU53      -0.1231
      2  CA        12.6470    3.0110    4.2120 C.3    53  GLU53       0.1699
      3  C         12.2320    3.4110    5.6360 C.2    53  GLU53       0.2592
      4  O         11.1010    3.9070    5.8260 O.2    53  GLU53      -0.2718
      5  CB        12.5330    1.4800    4.0350 C.3    53  GLU53       0.0402
      6  CG        12.5200    1.0360    2.5560 C.3    53  GLU53       0.1161
      7  CD        11.5240    1.7640    1.6770 C.2    53  GLU53       0.3649
      8  OE1       10.3550    2.0140    2.0600 O.co2  53  GLU53      -0.2457
      9  OE2       11.9500    2.1390    0.5560 O.co2  53  GLU53      -0.2457
     10  N         13.1450    3.2020    6.6140 N.am   54  LEU54      -0.1980
     11  CA        12.7800    3.5340    7.9850 C.3    54  LEU54       0.1596
     12  C         12.7020    5.0500    8.1450 C.2    54  LEU54       0.2287
     13  O         11.8080    5.5320    8.8520 O.2    54  LEU54      -0.2864
     14  CB        13.7660    2.8820    8.9460 C.3    54  LEU54       0.0297
     15  CG        13.8280    1.3480    8.8330 C.3    54  LEU54       0.0022
     16  CD1       14.8660    0.8010    9.8500 C.3    54  LEU54       0.0001
     17  CD2       12.4640    0.7050    9.0870 C.3    54  LEU54       0.0001
     18  N         11.9340    7.2160    5.8110 N.3    56  SER56      -0.1202
     19  CA        10.7130    7.6360    5.1390 C.3    56  SER56       0.2020
     20  C          9.4960    7.4270    6.0430 C.2    56  SER56       0.2619
     21  O          8.6360    8.2980    6.0890 O.2    56  SER56      -0.2717
     22  CB        10.5600    6.7590    3.8920 C.3    56  SER56       0.2103
     23  OG         9.2520    6.8320    3.4090 O.3    56  SER56      -0.2182
     24  N          9.5080    6.3090    6.8110 N.am   57  ASN57      -0.1960
     25  CA         8.3730    6.1170    7.7010 C.3    57  ASN57       0.1819
     26  C          8.3840    7.1750    8.7790 C.2    57  ASN57       0.2622
     27  O          7.2940    7.6300    9.1890 O.2    57  ASN57      -0.2715
     28  CB         8.4190    4.7190    8.3610 C.3    57  ASN57       0.1195
     29  CG         8.1080    3.6560    7.3270 C.2    57  ASN57       0.2630
     30  OD1        7.4750    3.9290    6.2970 O.2    57  ASN57      -0.2716
     31  ND2        8.4790    2.4060    7.5830 N.am   57  ASN57      -0.0877
     32  N          9.5490    7.4970    9.3230 N.am   58  SER58      -0.1950
     33  CA         9.5950    8.5280   10.3520 C.3    58  SER58       0.1924
     34  C          9.1290    9.8600    9.7600 C.2    58  SER58       0.2314
     35  O          8.4410   10.5990   10.4780 O.2    58  SER58      -0.2863
     36  CB        11.0260    8.6670   10.8570 C.3    58  SER58       0.2116
     37  OG        11.4210    7.5200   11.6250 O.3    58  SER58      -0.2180
     38  N          7.0810   10.3580    7.3390 N.3    60  ASP60      -0.1225
     39  CA         5.6160   10.3400    7.1920 C.3    60  ASP60       0.1805
     40  C          4.9530   10.6060    8.5440 C.2    60  ASP60       0.2597
     41  O          3.9320   11.2690    8.6190 O.2    60  ASP60      -0.2718
     42  CB         5.1450    8.9800    6.6610 C.3    60  ASP60       0.1424
     43  CG         5.4520    8.7310    5.1950 C.2    60  ASP60       0.3668
     44  OD1        5.8120    9.7010    4.4870 O.co2  60  ASP60      -0.2456
     45  OD2        5.4260    7.5550    4.7810 O.co2  60  ASP60      -0.2456
     46  N          5.4400    9.9300    9.5860 N.am   61  ALA61      -0.1979
     47  CA         4.8780   10.1230   10.9430 C.3    61  ALA61       0.1597
     48  C          4.9930   11.5620   11.4450 C.2    61  ALA61       0.2287
     49  O          4.1530   12.0170   12.2360 O.2    61  ALA61      -0.2864
     50  CB         5.5650    9.1250   11.8990 C.3    61  ALA61       0.0319
     51  N          2.4920   13.7560    9.7500 N.3    64  LYS64      -0.1245
     52  CA         1.1950   13.6510   10.4140 C.3    64  LYS64       0.1561
     53  C          1.0670   14.6070   11.5990 C.2    64  LYS64       0.2260
     54  O         -0.0250   15.0440   11.8570 O.2    64  LYS64      -0.2867
     55  CB         0.8250   12.2010   10.6920 C.3    64  LYS64       0.0271
     56  CG         0.6290   11.3710    9.4160 C.3    64  LYS64       0.0035
     57  CD         0.5540    9.9500    9.6800 C.3    64  LYS64       0.0206
     58  CE         0.4360    9.1740    8.3760 C.3    64  LYS64       0.1093
     59  NZ         0.4460    7.7140    8.6800 N.3    64  LYS64      -0.1314
     60  N         12.1260    8.7030   16.2260 N.3    99  ASP99      -0.1239
     61  CA        11.4770    9.9120   15.7420 C.3    99  ASP99       0.1674
     62  C         10.4540   10.3800   16.7640 C.2    99  ASP99       0.2266
     63  O         10.0730    9.6270   17.6870 O.2    99  ASP99      -0.2867
     64  CB        10.7700    9.7140   14.4020 C.3    99  ASP99       0.1410
     65  CG         9.5910    8.7380   14.4500 C.2    99  ASP99       0.3668
     66  OD1        8.6060    9.0530   15.1440 O.co2  99  ASP99      -0.2456
     67  OD2        9.6420    7.6650   13.7790 O.co2  99  ASP99      -0.2456
     68  N          3.9250   10.8170   15.1010 N.3   102  ILE102     -0.1231
     69  CA         2.6770   10.5460   15.8170 C.3   102  ILE102      0.1692
     70  C          2.7380    9.2760   16.6570 C.2   102  ILE102      0.2593
     71  O          1.9390    9.1890   17.5860 O.2   102  ILE102     -0.2718
     72  CB         1.5000   10.4680   14.8560 C.3   102  ILE102      0.0266
     73  CG1        1.7220    9.4020   13.7850 C.3   102  ILE102      0.0019
     74  CG2        1.1480   11.8480   14.3040 C.3   102  ILE102      0.0020
     75  CD1        0.3920    8.9250   13.2050 C.3   102  ILE102      0.0001
     76  N          3.6490    8.3330   16.4120 N.am  103  GLY103     -0.1942
     77  CA         3.5420    7.1020   17.1890 C.3   103  GLY103      0.2014
     78  C          2.4350    6.1900   16.6860 C.2   103  GLY103      0.2638
     79  O          1.6950    6.5170   15.7530 O.2   103  GLY103     -0.2714
     80  N          2.3440    5.0120   17.3260 N.am  104  MET104     -0.1976
     81  CA         1.3510    4.0210   16.9390 C.3   104  MET104      0.1605
     82  C          0.6540    3.5520   18.2060 C.2   104  MET104      0.2287
     83  O          1.3130    3.3020   19.2030 O.2   104  MET104     -0.2864
     84  CB         2.0000    2.7990   16.2710 C.3   104  MET104      0.0413
     85  CG         2.4510    3.1360   14.8180 C.3   104  MET104      0.0598
     86  SD         3.3000    1.7520   14.0520 S.3   104  MET104     -0.1393
     87  CE         4.9790    1.9890   14.6120 C.3   104  MET104      0.0692
     88  N         -0.9280   -2.5990   11.3120 N.3   112  ASN112     -0.1225
     89  CA        -0.0680   -1.9670   10.3150 C.3   112  ASN112      0.1785
     90  C          1.2570   -2.7210   10.1700 C.2   112  ASN112      0.2597
     91  O          1.9390   -2.5100    9.1540 O.2   112  ASN112     -0.2718
     92  CB         0.2190   -0.5160   10.7160 C.3   112  ASN112      0.1169
     93  CG        -1.0220    0.3350   10.8860 C.2   112  ASN112      0.2627
     94  OD1       -2.1490   -0.1400   10.6840 O.2   112  ASN112     -0.2716
     95  ND2       -0.8540    1.5870   11.2520 N.am  112  ASN112     -0.0877
     96  N          1.6390   -3.5530   11.1440 N.am  113  LEU113     -0.1980
     97  CA         2.9660   -4.1640   11.1570 C.3   113  LEU113      0.1596
     98  C          2.8010   -5.6680   11.2790 C.2   113  LEU113      0.2287
     99  O          3.6140   -6.3290   11.9170 O.2   113  LEU113     -0.2864
    100  CB         3.9210   -3.5530   12.1960 C.3   113  LEU113      0.0297
    101  CG         4.3280   -2.0950   11.9670 C.3   113  LEU113      0.0022
    102  CD1        5.2150   -1.7160   13.1400 C.3   113  LEU113      0.0001
    103  CD2        5.1060   -1.9690   10.6480 C.3   113  LEU113      0.0001
    104  N          9.3520   -0.2090   -1.3610 N.3   138  GLY138     -0.1225
    105  CA         8.4490    0.6880   -0.6730 C.3   138  GLY138      0.1811
    106  C          7.3440    1.0900   -1.6290 C.2   138  GLY138      0.2280
    107  O          6.1990    1.2610   -1.1640 O.2   138  GLY138     -0.2866
    108  N          4.2170   -0.9990   -1.0040 N.3   141  GLY141     -0.1210
    109  CA         3.4790   -0.8700    0.2280 C.3   141  GLY141      0.1956
    110  C          3.9850   -1.7270    1.4060 C.2   141  GLY141      0.2612
    111  O          3.3090   -1.8500    2.4140 O.2   141  GLY141     -0.2717
    112  N          5.2620   -2.1610    1.3520 N.am  142  VAL142     -0.1965
    113  CA         5.7960   -3.1240    2.3290 C.3   142  VAL142      0.1727
    114  C          7.2100   -2.7040    2.7580 C.2   142  VAL142      0.2617
    115  O          7.9990   -3.5530    3.1820 O.2   142  VAL142     -0.2715
    116  CB         5.7600   -4.5740    1.8130 C.3   142  VAL142      0.0290
    117  CG1        4.3450   -5.1480    1.8620 C.3   142  VAL142      0.0023
    118  CG2        6.3020   -4.6170    0.3760 C.3   142  VAL142      0.0023
    119  N          7.4940   -1.3790    2.7360 N.am  143  GLY143     -0.1940
    120  CA         8.8500   -0.9380    3.0050 C.3   143  GLY143      0.2014
    121  C          9.4600   -1.3190    4.3560 C.2   143  GLY143      0.2639
    122  O         10.6740   -1.4670    4.4710 O.2   143  GLY143     -0.2714
    123  N          8.6480   -1.4090    5.4240 N.am  144  PHE144     -0.1959
    124  CA         9.1760   -1.6780    6.7380 C.3   144  PHE144      0.1771
    125  C          9.9820   -2.9860    6.7800 C.2   144  PHE144      0.2619
    126  O         10.9930   -3.0560    7.4850 O.2   144  PHE144     -0.2715
    127  CB         8.0080   -1.7360    7.7330 C.3   144  PHE144      0.0574
    128  CG         8.3990   -2.2260    9.1160 C.ar  144  PHE144     -0.0200
    129  CD1        9.0110   -1.4130   10.0690 C.ar  144  PHE144     -0.0042
    130  CD2        8.2080   -3.5780    9.4340 C.ar  144  PHE144     -0.0042
    131  CE1        9.3960   -1.8890   11.3340 C.ar  144  PHE144     -0.0003
    132  CE2        8.5900   -4.0570   10.6900 C.ar  144  PHE144     -0.0003
    133  CZ         9.1610   -3.2150   11.6430 C.ar  144  PHE144     -0.0000
    134  N          9.5620   -3.9940    5.9870 N.am  145  TYR145     -0.1974
    135  CA        10.1500   -5.3180    6.1680 C.3   145  TYR145      0.1639
    136  C         11.5660   -5.3570    5.5770 C.2   145  TYR145      0.2290
    137  O         12.2900   -6.3350    5.8210 O.2   145  TYR145     -0.2864
    138  CB         9.2080   -6.3420    5.4900 C.3   145  TYR145      0.0560
    139  CG         7.8560   -6.3330    6.1700 C.ar  145  TYR145     -0.0198
    140  CD1        7.6870   -6.9830    7.3870 C.ar  145  TYR145     -0.0009
    141  CD2        6.8090   -5.5880    5.6470 C.ar  145  TYR145     -0.0009
    142  CE1        6.4790   -6.8860    8.0730 C.ar  145  TYR145      0.0417
    143  CE2        5.5720   -5.5080    6.2950 C.ar  145  TYR145      0.0417
    144  CZ         5.4370   -6.1680    7.5050 C.ar  145  TYR145      0.1957
    145  OH         4.2110   -6.0220    8.1820 O.3   145  TYR145     -0.2866
    146  N          8.2720    7.0830   17.8000 N.3   190  THR190     -0.1218
    147  CA         8.5900    5.6640   17.5840 C.3   190  THR190      0.1862
    148  C         10.0970    5.4610   17.6060 C.2   190  THR190      0.2287
    149  O         10.8420    6.2830   17.0720 O.2   190  THR190     -0.2866
    150  CB         8.0320    5.2180   16.2140 C.3   190  THR190      0.1770
    151  OG1        6.6160    5.3440   16.3210 O.3   190  THR190     -0.2211
    152  CG2        8.3290    3.7630   15.9180 C.3   190  THR190      0.0375
    153  N         12.7410    2.3960   16.3280 N.3   192  VAL192     -0.1245
    154  CA        12.8700    1.0960   15.6990 C.3   192  VAL192      0.1561
    155  C         14.2840    0.6290   16.0200 C.2   192  VAL192      0.2260
    156  O         15.2770    1.2750   15.5930 O.2   192  VAL192     -0.2867
    157  CB        12.7410    1.2040   14.1730 C.3   192  VAL192      0.0252
    158  CG1       12.9840   -0.1540   13.5010 C.3   192  VAL192      0.0019
    159  CG2       11.3300    1.7200   13.7920 C.3   192  VAL192      0.0019
@<TRIPOS>BOND
     1   106   107    2
     2   106   105    1
     3   104   105    1
     4   108   109    1
     5   109   110    1
     6   118   116    1
     7     9     7   ar
     8   112   110   am
     9   112   113    1
    10   110   111    2
    11     7     8   ar
    12     7     6    1
    13   116   117    1
    14   116   113    1
    15   113   114    1
    16     6     5    1
    17   119   114   am
    18   119   120    1
    19   114   115    2
    20   120   121    1
    21    23    22    1
    22    22    19    1
    23     1     2    1
    24     5     2    1
    25     2     3    1
    26   121   122    2
    27   121   123   am
    28    44    43   ar
    29    45    43   ar
    30    19    18    1
    31    19    20    1
    32    43    42    1
    33   123   124    1
    34   138   135    1
    35   138   139    1
    36   136   137    2
    37   136   135    1
    38     3     4    2
    39     3    10   am
    40   141   139   ar
    41   141   143   ar
    42   134   135    1
    43   134   125   am
    44    20    21    2
    45    20    24   am
    46   139   140   ar
    47   143   144   ar
    48    30    29    2
    49    10    11    1
    50    42    39    1
    51   124   125    1
    52   124   127    1
    53   125   126    2
    54    24    25    1
    55    39    38    1
    56    39    40    1
    57    29    31   am
    58    29    28    1
    59   140   142   ar
    60   144   142   ar
    61   144   145    1
    62    25    28    1
    63    25    26    1
    64   127   128    1
    65    11    12    1
    66    11    14    1
    67    12    13    2
    68    58    59    1
    69    58    57    1
    70    40    41    2
    71    40    46   am
    72    26    27    2
    73    26    32   am
    74    15    14    1
    75    15    17    1
    76    15    16    1
    77   128   130   ar
    78   128   129   ar
    79    91    90    2
    80    32    33    1
    81    56    57    1
    82    56    55    1
    83   130   132   ar
    84    46    47    1
    85    51    52    1
    86    34    33    1
    87    34    35    2
    88   129   131   ar
    89    90    89    1
    90    90    96   am
    91    89    92    1
    92    89    88    1
    93    33    36    1
    94    52    55    1
    95    52    53    1
    96   103   101    1
    97    94    93    2
    98   132   133   ar
    99    92    93    1
   100    36    37    1
   101    93    95   am
   102    47    48    1
   103    47    50    1
   104    96    97    1
   105    97    98    1
   106    97   100    1
   107    98    99    2
   108   131   133   ar
   109    48    49    2
   110    53    54    2
   111   101   100    1
   112   101   102    1
   113    75    73    1
   114   158   157    1
   115    67    65   ar
   116    73    72    1
   117   159   157    1
   118    86    87    1
   119    86    85    1
   120   157   154    1
   121    74    72    1
   122    64    65    1
   123    64    61    1
   124    65    66   ar
   125    85    84    1
   126    72    69    1
   127    68    69    1
   128   156   155    2
   129   154   155    1
   130   154   153    1
   131    61    60    1
   132    61    62    1
   133    79    78    2
   134    69    70    1
   135   152   150    1
   136   150   151    1
   137   150   147    1
   138    84    81    1
   139    76    70   am
   140    76    77    1
   141    70    71    2
   142    78    77    1
   143    78    80   am
   144    62    63    2
   145    81    80    1
   146    81    82    1
   147   149   148    2
   148   147   148    1
   149   147   146    1
   150    82    83    2
