@<TRIPOS>MOLECULE
tmp/6gprA00.pdb
 138 128 0 0 0
SMALL
GASTEIGER

@<TRIPOS>ATOM
      1  N         12.9360    2.8990    5.9690 N.3    38  LEU38      -0.1245
      2  CA        12.5100    3.3350    7.2940 C.3    38  LEU38       0.1561
      3  C         12.3980    4.8550    7.3630 C.2    38  LEU38       0.2260
      4  O         11.4860    5.3680    8.0170 O.2    38  LEU38      -0.2867
      5  CB        13.4690    2.8030    8.3600 C.3    38  LEU38       0.0270
      6  CG        13.6550    1.2880    8.3740 C.3    38  LEU38       0.0019
      7  CD1       14.5260    0.8690    9.5530 C.3    38  LEU38       0.0001
      8  CD2       12.3130    0.5810    8.4380 C.3    38  LEU38       0.0001
      9  N          8.9120    5.9090    5.8930 N.3    41  ASN41      -0.1225
     10  CA         7.8450    5.6770    6.8530 C.3    41  ASN41       0.1785
     11  C          7.8190    6.7980    7.8930 C.2    41  ASN41       0.2597
     12  O          6.7520    7.2120    8.3290 O.2    41  ASN41      -0.2718
     13  CB         8.0320    4.3450    7.5920 C.3    41  ASN41       0.1169
     14  CG         8.0270    3.1300    6.6830 C.2    41  ASN41       0.2627
     15  OD1        7.8110    3.2390    5.4780 O.2    41  ASN41      -0.2716
     16  ND2        8.2780    1.9640    7.2490 N.am   41  ASN41      -0.0877
     17  N          8.9840    7.2340    8.3570 N.am   42  SER42      -0.1952
     18  CA         9.0650    8.4070    9.2180 C.3    42  SER42       0.1924
     19  C          8.5510    9.5960    8.4180 C.2    42  SER42       0.2314
     20  O          7.8550   10.4480    8.9580 O.2    42  SER42      -0.2863
     21  CB        10.4840    8.6780    9.6770 C.3    42  SER42       0.2116
     22  OG        11.0840    7.5140   10.2400 O.3    42  SER42      -0.2180
     23  N          6.3610    9.6660    5.9690 N.3    44  ASP44      -0.1225
     24  CA         4.9230    9.4680    5.9480 C.3    44  ASP44       0.1805
     25  C          4.3130    9.9180    7.2780 C.2    44  ASP44       0.2597
     26  O          3.4390   10.7710    7.2870 O.2    44  ASP44      -0.2718
     27  CB         4.6280    8.0110    5.5820 C.3    44  ASP44       0.1424
     28  CG         4.8700    7.6790    4.1000 C.2    44  ASP44       0.3668
     29  OD1        5.0990    8.6320    3.2730 O.co2  44  ASP44      -0.2456
     30  OD2        4.8250    6.4650    3.7610 O.co2  44  ASP44      -0.2456
     31  N          4.7760    9.3590    8.4000 N.am   45  ALA45      -0.1979
     32  CA         4.2880    9.7240    9.7340 C.3    45  ALA45       0.1597
     33  C          4.4660   11.2180    9.9760 C.2    45  ALA45       0.2287
     34  O          3.7200   11.8320   10.7140 O.2    45  ALA45      -0.2864
     35  CB         5.0190    8.9630   10.8190 C.3    45  ALA45       0.0319
     36  N          1.7250   13.1750    8.1430 N.3    48  LYS48      -0.1245
     37  CA         0.5140   12.8800    8.8710 C.3    48  LYS48       0.1561
     38  C          0.3600   13.8390   10.0450 C.2    48  LYS48       0.2260
     39  O         -0.6810   14.4790   10.1360 O.2    48  LYS48      -0.2867
     40  CB         0.5010   11.4000    9.2580 C.3    48  LYS48       0.0271
     41  CG        -0.1000   10.5190    8.1750 C.3    48  LYS48       0.0035
     42  CD         0.2930    9.0730    8.2890 C.3    48  LYS48       0.0206
     43  CE        -0.2350    8.2280    7.1470 C.3    48  LYS48       0.1093
     44  NZ         0.3180    6.8540    7.1990 N.3    48  LYS48      -0.1314
     45  N         11.7030    9.3900   14.6670 N.3    83  ASP83      -0.1239
     46  CA        10.8790   10.4460   14.0890 C.3    83  ASP83       0.1674
     47  C          9.9480   11.0380   15.1490 C.2    83  ASP83       0.2266
     48  O          9.5770   10.3430   16.0930 O.2    83  ASP83      -0.2867
     49  CB        10.1390    9.9990   12.8150 C.3    83  ASP83       0.1410
     50  CG         9.0080    9.0120   13.0550 C.2    83  ASP83       0.3668
     51  OD1        8.0860    9.3680   13.7890 O.co2  83  ASP83      -0.2456
     52  OD2        9.0300    7.8980   12.4430 O.co2  83  ASP83      -0.2456
     53  N          3.3220   11.0250   13.7060 N.3    86  ILE86      -0.1231
     54  CA         2.0520   10.8490   14.4030 C.3    86  ILE86       0.1692
     55  C          2.0930    9.6610   15.3660 C.2    86  ILE86       0.2593
     56  O          1.1430    9.4580   16.1090 O.2    86  ILE86      -0.2718
     57  CB         0.8890   10.6380   13.4090 C.3    86  ILE86       0.0266
     58  CG1        1.3240    9.8420   12.1800 C.3    86  ILE86       0.0019
     59  CG2        0.2140   11.9390   13.0460 C.3    86  ILE86       0.0020
     60  CD1        1.5610    8.3840   12.4500 C.3    86  ILE86       0.0001
     61  N          3.1240    8.8230   15.2870 N.am   87  GLY87      -0.1942
     62  CA         3.1740    7.6240   16.1100 C.3    87  GLY87       0.2014
     63  C          2.1250    6.5830   15.7140 C.2    87  GLY87       0.2638
     64  O          1.4050    6.7280   14.7250 O.2    87  GLY87      -0.2714
     65  N          2.0900    5.5100   16.5030 N.am   88  MET88      -0.1976
     66  CA         1.1780    4.3930   16.3230 C.3    88  MET88       0.1605
     67  C          0.5370    4.1190   17.6810 C.2    88  MET88       0.2287
     68  O          1.2070    4.2460   18.7150 O.2    88  MET88      -0.2864
     69  CB         1.9240    3.1350   15.8380 C.3    88  MET88       0.0413
     70  CG         2.1790    3.0950   14.3320 C.3    88  MET88       0.0598
     71  SD         3.1680    1.6940   13.6840 S.3    88  MET88      -0.1393
     72  CE         4.8250    2.2190   14.1100 C.3    88  MET88       0.0692
     73  N         -0.9210   -2.9070   11.5910 N.3    96  ASN96      -0.1225
     74  CA        -0.0400   -2.3600   10.5780 C.3    96  ASN96       0.1785
     75  C          1.3170   -3.0700   10.5090 C.2    96  ASN96       0.2597
     76  O          1.9450   -3.0780    9.4480 O.2    96  ASN96      -0.2718
     77  CB         0.1170   -0.8590   10.7910 C.3    96  ASN96       0.1169
     78  CG        -1.1240   -0.0810   10.4180 C.2    96  ASN96       0.2627
     79  OD1       -1.4600    0.0120    9.2420 O.2    96  ASN96      -0.2716
     80  ND2       -1.7820    0.5140   11.3990 N.am   96  ASN96      -0.0877
     81  N          1.8040   -3.6330   11.6320 N.am   97  LEU97      -0.1980
     82  CA         3.1120   -4.2760   11.5970 C.3    97  LEU97       0.1596
     83  C          3.0010   -5.7620   11.9320 C.2    97  LEU97       0.2287
     84  O          3.6820   -6.2490   12.8460 O.2    97  LEU97      -0.2864
     85  CB         4.1590   -3.5510   12.4630 C.3    97  LEU97       0.0297
     86  CG         4.4630   -2.0990   12.0820 C.3    97  LEU97       0.0022
     87  CD1        5.3430   -1.4260   13.1000 C.3    97  LEU97       0.0001
     88  CD2        5.0760   -1.9950   10.7080 C.3    97  LEU97       0.0001
     89  N         -1.2000   -8.0250    3.6760 N.3   102  LYS102     -0.1245
     90  CA        -0.8700   -6.9570    2.7440 C.3   102  LYS102      0.1561
     91  C         -1.0110   -7.4900    1.3210 C.2   102  LYS102      0.2260
     92  O         -0.7400   -8.6680    1.0580 O.2   102  LYS102     -0.2867
     93  CB         0.5300   -6.4190    3.0590 C.3   102  LYS102      0.0271
     94  CG         0.6870   -5.8890    4.4840 C.3   102  LYS102      0.0035
     95  CD         0.2050   -4.4640    4.6140 C.3   102  LYS102      0.0206
     96  CE         1.2630   -3.4870    4.1420 C.3   102  LYS102      0.1093
     97  NZ         0.6990   -2.2990    3.4530 N.3   102  LYS102     -0.1314
     98  N          4.5230   -2.1980   -0.7890 N.3   125  GLY125     -0.1225
     99  CA         4.1100   -1.8130    0.5530 C.3   125  GLY125      0.1811
    100  C          4.5020   -2.7860    1.6740 C.2   125  GLY125      0.2280
    101  O          3.8600   -2.8170    2.7050 O.2   125  GLY125     -0.2866
    102  N          8.8140   -2.1170    5.3620 N.3   128  PHE128     -0.1227
    103  CA         9.3120   -2.1920    6.7280 C.3   128  PHE128      0.1736
    104  C         10.0990   -3.4800    6.9560 C.2   128  PHE128      0.2595
    105  O         11.0550   -3.4600    7.7180 O.2   128  PHE128     -0.2718
    106  CB         8.2540   -1.8970    7.7930 C.3   128  PHE128      0.0547
    107  CG         8.5620   -2.3450    9.2090 C.ar  128  PHE128     -0.0202
    108  CD1        8.5620   -3.6940    9.5620 C.ar  128  PHE128     -0.0042
    109  CD2        8.7380   -1.4140   10.2320 C.ar  128  PHE128     -0.0042
    110  CE1        8.7610   -4.0980   10.8800 C.ar  128  PHE128     -0.0003
    111  CE2        8.9210   -1.8190   11.5530 C.ar  128  PHE128     -0.0003
    112  CZ         8.9380   -3.1550   11.8750 C.ar  128  PHE128     -0.0000
    113  N          9.7390   -4.5700    6.2750 N.am  129  TYR129     -0.1976
    114  CA        10.3740   -5.8570    6.5410 C.3   129  TYR129      0.1639
    115  C         11.8180   -5.9430    6.0480 C.2   129  TYR129      0.2290
    116  O         12.5580   -6.8440    6.4860 O.2   129  TYR129     -0.2864
    117  CB         9.4590   -6.9940    6.1050 C.3   129  TYR129      0.0560
    118  CG         8.1800   -6.9640    6.8900 C.ar  129  TYR129     -0.0198
    119  CD1        8.1650   -7.3860    8.2140 C.ar  129  TYR129     -0.0009
    120  CD2        7.0120   -6.4590    6.3400 C.ar  129  TYR129     -0.0009
    121  CE1        7.0070   -7.3390    8.9760 C.ar  129  TYR129      0.0417
    122  CE2        5.8500   -6.3950    7.0930 C.ar  129  TYR129      0.0417
    123  CZ         5.8450   -6.8520    8.4050 C.ar  129  TYR129      0.1957
    124  OH         4.6970   -6.8190    9.1490 O.3   129  TYR129     -0.2866
    125  N          7.9970    7.7650   16.5660 N.3   174  THR174     -0.1218
    126  CA         8.3170    6.3540   16.4710 C.3   174  THR174      0.1862
    127  C          9.8290    6.1820   16.5840 C.2   174  THR174      0.2287
    128  O         10.5950    6.9460   16.0050 O.2   174  THR174     -0.2866
    129  CB         7.6590    5.7200   15.2340 C.3   174  THR174      0.1770
    130  OG1        6.2360    5.8990   15.3030 O.3   174  THR174     -0.2211
    131  CG2        7.9860    4.2460   15.1160 C.3   174  THR174      0.0375
    132  N         12.4930    3.1660   15.8190 N.3   176  VAL176     -0.1245
    133  CA        12.7990    1.8430   15.3010 C.3   176  VAL176      0.1561
    134  C         14.2410    1.5210   15.6700 C.2   176  VAL176      0.2260
    135  O         15.1460    2.2190   15.2420 O.2   176  VAL176     -0.2867
    136  CB        12.5910    1.7460   13.7720 C.3   176  VAL176      0.0252
    137  CG1       12.8630    0.3360   13.2480 C.3   176  VAL176      0.0019
    138  CG2       11.2170    2.2270   13.3430 C.3   176  VAL176      0.0019
@<TRIPOS>BOND
     1    98    99    1
     2    99   100    1
     3    92    91    2
     4    91    90    1
     5   100   101    2
     6    90    93    1
     7    90    89    1
     8    93    94    1
     9    29    28   ar
    10    97    96    1
    11    30    28   ar
    12    28    27    1
    13    96    95    1
    14    94    95    1
    15   102   103    1
    16    15    14    2
    17    27    24    1
    18     9    10    1
    19    24    23    1
    20    24    25    1
    21     1     2    1
    22   115   116    2
    23   115   114    1
    24   117   114    1
    25   117   118    1
    26   113   114    1
    27   113   104   am
    28   120   118   ar
    29   120   122   ar
    30    14    16   am
    31    14    13    1
    32   103   104    1
    33   103   106    1
    34    10    13    1
    35    10    11    1
    36   118   119   ar
    37   104   105    2
    38   122   123   ar
    39    43    44    1
    40    43    42    1
    41    25    26    2
    42    25    31   am
    43     2     3    1
    44     2     5    1
    45     3     4    2
    46   106   107    1
    47    11    12    2
    48    11    17   am
    49    36    37    1
    50    41    42    1
    51    41    40    1
    52   119   121   ar
    53    17    18    1
    54     5     6    1
    55     6     8    1
    56     6     7    1
    57    31    32    1
    58   123   121   ar
    59   123   124    1
    60    19    20    2
    61    19    18    1
    62    37    40    1
    63    37    38    1
    64   107   108   ar
    65   107   109   ar
    66    18    21    1
    67    79    78    2
    68    76    75    2
    69   108   110   ar
    70    21    22    1
    71    32    33    1
    72    32    35    1
    73    33    34    2
    74    38    39    2
    75   109   111   ar
    76    78    77    1
    77    78    80   am
    78    75    74    1
    79    75    81   am
    80    74    77    1
    81    74    73    1
    82    88    86    1
    83   110   112   ar
    84   111   112   ar
    85    82    81    1
    86    82    83    1
    87    82    85    1
    88    83    84    2
    89    86    85    1
    90    86    87    1
    91    58    60    1
    92    58    57    1
    93    52    50   ar
    94    49    50    1
    95    49    46    1
    96    59    57    1
    97    50    51   ar
    98   137   136    1
    99   138   136    1
   100    57    54    1
   101    71    72    1
   102    71    70    1
   103    53    54    1
   104   136   133    1
   105    46    45    1
   106    46    47    1
   107    70    69    1
   108    54    55    1
   109    64    63    2
   110   131   129    1
   111    47    48    2
   112   129   130    1
   113   129   126    1
   114   135   134    2
   115    61    55   am
   116    61    62    1
   117   133   134    1
   118   133   132    1
   119    55    56    2
   120    63    62    1
   121    63    65   am
   122    69    66    1
   123   128   127    2
   124    66    65    1
   125    66    67    1
   126   126   125    1
   127   126   127    1
   128    67    68    2
