@<TRIPOS>MOLECULE
tmp/6gpsA00.pdb
 219 211 0 0 0
SMALL
GASTEIGER

@<TRIPOS>ATOM
      1  N          1.6220   -5.7550   -3.0940 N.3     1  VAL1       -0.1231
      2  CA         2.3350   -6.2670   -4.2620 C.3     1  VAL1        0.1692
      3  C          2.1620   -7.7810   -4.4150 C.2     1  VAL1        0.2591
      4  O          1.9030   -8.2350   -5.5220 O.2     1  VAL1       -0.2718
      5  CB         3.8310   -5.8410   -4.2820 C.3     1  VAL1        0.0266
      6  CG1        4.5960   -6.3670   -3.0650 C.3     1  VAL1        0.0020
      7  CG2        4.5110   -6.2820   -5.5790 C.3     1  VAL1        0.0020
      8  N          2.3130   -8.5580   -3.3270 N.am    2  LYS2       -0.1980
      9  CA         2.1670  -10.0170   -3.3780 C.3     2  LYS2        0.1596
     10  C          0.7140  -10.4090   -3.6750 C.2     2  LYS2        0.2287
     11  O          0.4860  -11.3270   -4.4630 O.2     2  LYS2       -0.2864
     12  CB         2.6520  -10.6670   -2.0720 C.3     2  LYS2        0.0298
     13  CG         4.1580  -10.5490   -1.8630 C.3     2  LYS2        0.0038
     14  CD         4.6060  -11.1490   -0.5320 C.3     2  LYS2        0.0206
     15  CE         6.1060  -11.1220   -0.3680 C.3     2  LYS2        0.1093
     16  NZ         6.5360  -11.7040    0.9330 N.3     2  LYS2       -0.1314
     17  N         -1.5050   -8.3430   -5.2030 N.3     4  ILE4       -0.1231
     18  CA        -1.7740   -7.8130   -6.5510 C.3     4  ILE4        0.1692
     19  C         -1.2830   -8.8370   -7.5910 C.2     4  ILE4        0.2592
     20  O         -1.9370   -9.0270   -8.6130 O.2     4  ILE4       -0.2718
     21  CB        -1.1390   -6.4020   -6.7570 C.3     4  ILE4        0.0266
     22  CG1       -1.8220   -5.3570   -5.8440 C.3     4  ILE4        0.0019
     23  CG2       -1.2270   -5.9530   -8.2230 C.3     4  ILE4        0.0020
     24  CD1       -0.9370   -4.1790   -5.4670 C.3     4  ILE4        0.0001
     25  N         -0.1650   -9.5030   -7.2960 N.am    5  GLY5       -0.1957
     26  CA         0.3900  -10.5530   -8.1370 C.3     5  GLY5        0.1869
     27  C         -0.5180  -11.7590   -8.2510 C.2     5  GLY5        0.2309
     28  O         -0.6540  -12.3230   -9.3330 O.2     5  GLY5       -0.2863
     29  N         -3.9520  -10.0160  -10.3030 N.3     8  LEU8       -0.1231
     30  CA        -3.7370   -9.4730  -11.6500 C.3     8  LEU8        0.1693
     31  C         -3.1420  -10.4380  -12.6740 C.2     8  LEU8        0.2591
     32  O         -3.6060  -10.4600  -13.8110 O.2     8  LEU8       -0.2718
     33  CB        -2.8190   -8.2340  -11.5570 C.3     8  LEU8        0.0284
     34  CG        -2.5770   -7.4240  -12.8400 C.3     8  LEU8        0.0019
     35  CD1       -3.8050   -6.6170  -13.2180 C.3     8  LEU8        0.0001
     36  CD2       -1.3930   -6.4920  -12.6710 C.3     8  LEU8        0.0001
     37  N         -2.0760  -11.1590  -12.3130 N.am    9  LEU9       -0.1980
     38  CA        -1.3450  -11.9930  -13.2720 C.3     9  LEU9        0.1596
     39  C         -2.0820  -13.2540  -13.7720 C.2     9  LEU9        0.2287
     40  O         -2.0740  -13.4620  -14.9850 O.2     9  LEU9       -0.2864
     41  CB         0.0500  -12.3750  -12.7460 C.3     9  LEU9        0.0297
     42  CG         1.1460  -11.3430  -12.9880 C.3     9  LEU9        0.0022
     43  CD1        0.7750   -9.9790  -12.4410 C.3     9  LEU9        0.0001
     44  CD2        2.4460  -11.8070  -12.3970 C.3     9  LEU9        0.0001
     45  N         -2.0620  -13.2560  -17.7310 N.3    13  TYR13      -0.1241
     46  CA        -1.1700  -14.2060  -18.4060 C.3    13  TYR13       0.1605
     47  C         -1.9520  -15.2970  -19.1610 C.2    13  TYR13       0.2264
     48  O         -1.4330  -15.8210  -20.1480 O.2    13  TYR13      -0.2867
     49  CB        -0.1760  -14.8370  -17.4050 C.3    13  TYR13       0.0534
     50  CG         0.9380  -13.9420  -16.8760 C.ar   13  TYR13      -0.0201
     51  CD1        1.0490  -12.6090  -17.2740 C.ar   13  TYR13      -0.0009
     52  CD2        1.8990  -14.4380  -16.0020 C.ar   13  TYR13      -0.0009
     53  CE1        2.0800  -11.7980  -16.8080 C.ar   13  TYR13       0.0417
     54  CE2        2.9360  -13.6330  -15.5310 C.ar   13  TYR13       0.0417
     55  CZ         3.0370  -12.3200  -15.9560 C.ar   13  TYR13       0.1957
     56  OH         4.0450  -11.5150  -15.4790 O.3    13  TYR13      -0.2866
     57  N          3.9190  -19.6940  -14.9560 N.3    62  TRP62      -0.1241
     58  CA         4.1070  -18.4310  -14.2300 C.3    62  TRP62       0.1605
     59  C          2.7520  -17.9250  -13.7370 C.2    62  TRP62       0.2264
     60  O          2.6720  -17.3920  -12.6330 O.2    62  TRP62      -0.2867
     61  CB         4.7550  -17.3420  -15.0980 C.3    62  TRP62       0.0550
     62  CG         6.0460  -17.6970  -15.7840 C.ar   62  TRP62       0.0003
     63  CD1        6.3630  -17.4430  -17.0850 C.ar   62  TRP62       0.0946
     64  CD2        7.2090  -18.3080  -15.2010 C.ar   62  TRP62       0.0152
     65  NE1        7.6440  -17.8600  -17.3530 N.ar   62  TRP62      -0.2442
     66  CE2        8.1830  -18.4050  -16.2180 C.ar   62  TRP62       0.0810
     67  CE3        7.5170  -18.8120  -13.9250 C.ar   62  TRP62       0.0012
     68  CZ2        9.4380  -18.9820  -16.0010 C.ar   62  TRP62       0.0191
     69  CZ3        8.7630  -19.3810  -13.7140 C.ar   62  TRP62       0.0001
     70  CH2        9.7060  -19.4600  -14.7430 C.ar   62  TRP62       0.0015
     71  N          1.8460  -20.1600  -10.7210 N.3    65  SER65      -0.1202
     72  CA         2.7220  -19.8520   -9.5870 C.3    65  SER65       0.2020
     73  C          2.6190  -18.3930   -9.0780 C.2    65  SER65       0.2618
     74  O          3.2270  -18.0840   -8.0540 O.2    65  SER65      -0.2717
     75  CB         4.1670  -20.2190   -9.9180 C.3    65  SER65       0.2103
     76  OG         4.2940  -21.6100  -10.1640 O.3    65  SER65      -0.2182
     77  N          1.8580  -17.5060   -9.7610 N.am   66  ALA66      -0.1979
     78  CA         1.6310  -16.1310   -9.2980 C.3    66  ALA66       0.1597
     79  C          0.6770  -16.0990   -8.0860 C.2    66  ALA66       0.2287
     80  O          0.7850  -15.1880   -7.2640 O.2    66  ALA66      -0.2864
     81  CB         1.0520  -15.2850  -10.4230 C.3    66  ALA66       0.0319
     82  N          5.4150  -22.8620   -5.6950 N.3    70  TRP70      -0.1241
     83  CA         6.0060  -23.5730   -6.8310 C.3    70  TRP70       0.1605
     84  C          5.9510  -25.0730   -6.5170 C.2    70  TRP70       0.2264
     85  O          6.4990  -25.4910   -5.4970 O.2    70  TRP70      -0.2867
     86  CB         7.4610  -23.1170   -7.0650 C.3    70  TRP70       0.0550
     87  CG         8.0910  -23.7280   -8.2800 C.ar   70  TRP70       0.0003
     88  CD1        8.7880  -24.8980   -8.3400 C.ar   70  TRP70       0.0946
     89  CD2        7.9800  -23.2580   -9.6290 C.ar   70  TRP70       0.0152
     90  NE1        9.1500  -25.1670   -9.6380 N.ar   70  TRP70      -0.2442
     91  CE2        8.6750  -24.1710  -10.4500 C.ar   70  TRP70       0.0810
     92  CE3        7.4000  -22.1260  -10.2210 C.ar   70  TRP70       0.0012
     93  CZ2        8.7720  -24.0070  -11.8340 C.ar   70  TRP70       0.0191
     94  CZ3        7.5010  -21.9620  -11.5920 C.ar   70  TRP70       0.0001
     95  CH2        8.1900  -22.8900  -12.3820 C.ar   70  TRP70       0.0015
     96  N         13.0450  -21.5890  -17.1580 N.3    81  THR81      -0.1218
     97  CA        13.8350  -20.3540  -17.1300 C.3    81  THR81       0.1862
     98  C         14.6330  -20.2790  -18.4440 C.2    81  THR81       0.2287
     99  O         14.8620  -19.1860  -18.9590 O.2    81  THR81      -0.2866
    100  CB        14.7360  -20.3150  -15.8940 C.3    81  THR81       0.1770
    101  OG1       13.9100  -20.3400  -14.7360 O.3    81  THR81      -0.2211
    102  CG2       15.6230  -19.0810  -15.8510 C.3    81  THR81       0.0375
    103  N         12.3210  -19.1810  -21.2900 N.3    84  TYR84      -0.1227
    104  CA        12.0470  -17.7490  -21.1340 C.3    84  TYR84       0.1736
    105  C         13.1760  -16.9310  -21.7720 C.2    84  TYR84       0.2595
    106  O         12.9050  -16.0770  -22.6110 O.2    84  TYR84      -0.2718
    107  CB        11.9010  -17.4050  -19.6330 C.3    84  TYR84       0.0548
    108  CG        11.7110  -15.9380  -19.3080 C.ar   84  TYR84      -0.0200
    109  CD1       12.8030  -15.0870  -19.1820 C.ar   84  TYR84      -0.0009
    110  CD2       10.4610  -15.4400  -18.9600 C.ar   84  TYR84      -0.0009
    111  CE1       12.6410  -13.7470  -18.8430 C.ar   84  TYR84       0.0417
    112  CE2       10.2880  -14.1060  -18.5990 C.ar   84  TYR84       0.0417
    113  CZ        11.3830  -13.2600  -18.5390 C.ar   84  TYR84       0.1957
    114  OH        11.2500  -11.9400  -18.1720 O.3    84  TYR84      -0.2866
    115  N         14.4340  -17.1970  -21.3770 N.am   85  HIS85      -0.1975
    116  CA        15.6000  -16.4640  -21.8910 C.3    85  HIS85       0.1656
    117  C         15.9490  -16.7950  -23.3490 C.2    85  HIS85       0.2291
    118  O         16.3380  -15.8880  -24.0800 O.2    85  HIS85      -0.2864
    119  CB        16.8130  -16.6540  -20.9780 C.3    85  HIS85       0.0771
    120  CG        16.6490  -15.9760  -19.6600 C.ar   85  HIS85       0.0820
    121  ND1       16.3700  -16.6890  -18.5120 N.ar   85  HIS85      -0.2267
    122  CD2       16.6720  -14.6570  -19.3610 C.ar   85  HIS85       0.1154
    123  CE1       16.2820  -15.7930  -17.5420 C.ar   85  HIS85       0.1986
    124  NE2       16.4360  -14.5530  -18.0100 N.ar   85  HIS85      -0.2212
    125  N         21.6680  -17.8790  -16.5680 N.3   139  ASN139     -0.1240
    126  CA        20.3590  -17.8850  -15.9130 C.3   139  ASN139      0.1653
    127  C         19.8510  -19.2830  -15.5680 C.2   139  ASN139      0.2266
    128  O         19.1780  -19.4230  -14.5550 O.2   139  ASN139     -0.2867
    129  CB        19.3280  -17.1200  -16.7390 C.3   139  ASN139      0.1155
    130  CG        19.6190  -15.6390  -16.8210 C.2   139  ASN139      0.2627
    131  OD1       20.5100  -15.1970  -17.5580 O.2   139  ASN139     -0.2716
    132  ND2       18.8940  -14.8370  -16.0520 N.am  139  ASN139     -0.0877
    133  N         19.4040  -20.0040  -11.4440 N.3   143  THR143     -0.1218
    134  CA        17.9760  -20.0410  -11.0810 C.3   143  THR143      0.1862
    135  C         17.6370  -21.4450  -10.5580 C.2   143  THR143      0.2287
    136  O         17.7830  -22.4190  -11.2960 O.2   143  THR143     -0.2866
    137  CB        17.0910  -19.6190  -12.2690 C.3   143  THR143      0.1770
    138  OG1       17.4740  -18.3080  -12.6910 O.3   143  THR143     -0.2211
    139  CG2       15.6100  -19.6200  -11.9330 C.3   143  THR143      0.0375
    140  N         10.6220  -20.3520   -7.3810 N.3   154  CYS154     -0.1221
    141  CA        11.5630  -20.5810   -8.4740 C.3   154  CYS154      0.1808
    142  C         12.0750  -19.1900   -8.8390 C.2   154  CYS154      0.2602
    143  O         11.3650  -18.4440   -9.5140 O.2   154  CYS154     -0.2717
    144  CB        10.8620  -21.2590   -9.6520 C.3   154  CYS154      0.0970
    145  SG        11.8390  -21.3240  -11.1780 S.3   154  CYS154     -0.0800
    146  N         13.2470  -18.8260   -8.3130 N.am  155  GLY155     -0.1943
    147  CA        13.8390  -17.5090   -8.5270 C.3   155  GLY155      0.1998
    148  C         15.3470  -17.4980   -8.6960 C.2   155  GLY155      0.2480
    149  O         16.0160  -18.5190   -8.5110 O.2   155  GLY155     -0.2729
    150  N         15.9030  -16.3210   -9.0550 N.am  156  PRO156     -0.2726
    151  CA        17.3550  -16.2190   -9.2760 C.3   156  PRO156      0.1402
    152  C         18.1810  -16.1470   -7.9900 C.2   156  PRO156      0.2269
    153  O         17.8110  -15.4390   -7.0530 O.2   156  PRO156     -0.2865
    154  CB        17.4920  -14.9360  -10.1030 C.3   156  PRO156      0.0296
    155  CG        16.3330  -14.1090   -9.7160 C.3   156  PRO156      0.0237
    156  CD        15.2230  -15.0350   -9.3150 C.3   156  PRO156      0.0939
    157  N         22.4310   -8.0190  -20.2230 N.3   170  ARG170     -0.1245
    158  CA        21.0350   -7.9390  -20.6760 C.3   170  ARG170      0.1563
    159  C         20.7700   -6.5560  -21.3140 C.2   170  ARG170      0.2260
    160  O         20.0600   -6.4740  -22.3170 O.2   170  ARG170     -0.2867
    161  CB        20.0510   -8.1990  -19.5150 C.3   170  ARG170      0.0307
    162  CG        18.6600   -8.6050  -19.9880 C.3   170  ARG170      0.0489
    163  CD        17.5850   -8.3130  -18.9600 C.3   170  ARG170      0.2205
    164  NE        16.2560   -8.6960  -19.4420 N.pl3 170  ARG170     -0.0865
    165  CZ        15.7540   -9.9310  -19.4330 C.cat 170  ARG170      0.5346
    166  NH1       16.4690  -10.9480  -18.9560 N.pl3 170  ARG170      0.1354
    167  NH2       14.5340  -10.1600  -19.8980 N.pl3 170  ARG170      0.1354
    168  N         11.7200   -2.3340  -18.1670 N.3   274  TYR274     -0.1241
    169  CA        12.2650   -3.4350  -17.3710 C.3   274  TYR274      0.1605
    170  C         13.7860   -3.3780  -17.3420 C.2   274  TYR274      0.2264
    171  O         14.3670   -3.4850  -16.2670 O.2   274  TYR274     -0.2867
    172  CB        11.8110   -4.8070  -17.9010 C.3   274  TYR274      0.0534
    173  CG        12.3920   -5.9590  -17.1080 C.ar  274  TYR274     -0.0201
    174  CD1       11.9090   -6.2730  -15.8430 C.ar  274  TYR274     -0.0009
    175  CD2       13.4810   -6.6800  -17.5840 C.ar  274  TYR274     -0.0009
    176  CE1       12.4690   -7.3010  -15.0870 C.ar  274  TYR274      0.0417
    177  CE2       14.0530   -7.7070  -16.8340 C.ar  274  TYR274      0.0417
    178  CZ        13.5420   -8.0180  -15.5860 C.ar  274  TYR274      0.1957
    179  OH        14.0960   -9.0460  -14.8570 O.3   274  TYR274     -0.2866
    180  N          9.0970   -5.9040  -10.6300 N.3   297  GLN297     -0.1231
    181  CA         8.0080   -6.8670  -10.7910 C.3   297  GLN297      0.1698
    182  C          6.9060   -6.3560  -11.7320 C.2   297  GLN297      0.2592
    183  O          6.4000   -7.1340  -12.5380 O.2   297  GLN297     -0.2718
    184  CB         7.4220   -7.2360   -9.4220 C.3   297  GLN297      0.0381
    185  CG         8.3860   -8.0330   -8.5590 C.3   297  GLN297      0.0905
    186  CD         7.8410   -8.2260   -7.1680 C.2   297  GLN297      0.2608
    187  OE1        7.6210   -7.2590   -6.4310 O.2   297  GLN297     -0.2717
    188  NE2        7.6090   -9.4720   -6.7620 N.am  297  GLN297     -0.0878
    189  N          6.5510   -5.0570  -11.6430 N.am  298  VAL298     -0.1980
    190  CA         5.5180   -4.4360  -12.4890 C.3   298  VAL298      0.1595
    191  C          5.9830   -4.3430  -13.9570 C.2   298  VAL298      0.2287
    192  O          5.1960   -4.6380  -14.8570 O.2   298  VAL298     -0.2864
    193  CB         5.0880   -3.0480  -11.9290 C.3   298  VAL298      0.0276
    194  CG1        4.2090   -2.2840  -12.9190 C.3   298  VAL298      0.0022
    195  CG2        4.3690   -3.2000  -10.5900 C.3   298  VAL298      0.0022
    196  N          8.2530   -6.2370  -15.4170 N.3   300  GLU300     -0.1231
    197  CA         8.4510   -7.5860  -15.9600 C.3   300  GLU300      0.1699
    198  C          7.1490   -8.0840  -16.5960 C.2   300  GLU300      0.2592
    199  O          7.1980   -8.7690  -17.6170 O.2   300  GLU300     -0.2718
    200  CB         8.9070   -8.5650  -14.8650 C.3   300  GLU300      0.0402
    201  CG         9.1430   -9.9700  -15.3880 C.3   300  GLU300      0.1161
    202  CD        10.1110  -10.7940  -14.5700 C.2   300  GLU300      0.3649
    203  OE1       11.2530  -10.9960  -15.0390 O.co2 300  GLU300     -0.2457
    204  OE2        9.7290  -11.2430  -13.4650 O.co2 300  GLU300     -0.2457
    205  N          5.9910   -7.7470  -15.9840 N.am  301  THR301     -0.1953
    206  CA         4.6690   -8.1110  -16.5020 C.3   301  THR301      0.1897
    207  C          4.5070   -7.5010  -17.8910 C.2   301  THR301      0.2313
    208  O          4.2040   -8.2320  -18.8320 O.2   301  THR301     -0.2863
    209  CB         3.5620   -7.6160  -15.5550 C.3   301  THR301      0.1794
    210  OG1        3.9290   -7.9190  -14.2150 O.3   301  THR301     -0.2208
    211  CG2        2.2090   -8.2400  -15.8450 C.3   301  THR301      0.0378
    212  N          6.4330   -9.3400  -20.4140 N.3   304  MET304     -0.1245
    213  CA         5.8580  -10.6660  -20.6550 C.3   304  MET304      0.1570
    214  C          4.5860  -10.6400  -21.5230 C.2   304  MET304      0.2261
    215  O          4.2690  -11.6620  -22.1330 O.2   304  MET304     -0.2867
    216  CB         5.6340  -11.4210  -19.3400 C.3   304  MET304      0.0387
    217  CG         6.9310  -11.9280  -18.7550 C.3   304  MET304      0.0595
    218  SD         6.7920  -12.5810  -17.0850 S.3   304  MET304     -0.1393
    219  CE         6.2600  -14.1910  -17.4430 C.3   304  MET304      0.0692
@<TRIPOS>BOND
     1   118   117    2
     2   117   116    1
     3   106   105    2
     4   160   159    2
     5   215   214    2
     6   116   115    1
     7   116   119    1
     8   105   115   am
     9   105   104    1
    10   214   213    1
    11   159   158    1
    12   103   104    1
    13   104   107    1
    14   119   120    1
    15   158   157    1
    16   158   161    1
    17   213   212    1
    18   213   216    1
    19    48    47    2
    20   162   161    1
    21   162   163    1
    22   167   165    1
    23   120   122   ar
    24   120   121   ar
    25   107   108    1
    26   164   165    2
    27   164   163    1
    28   165   166    1
    29   122   124   ar
    30   216   217    1
    31   108   109   ar
    32   108   110   ar
    33   109   111   ar
    34    47    46    1
    35   110   112   ar
    36    99    98    2
    37   111   113   ar
    38   208   207    2
    39   217   218    1
    40   112   113   ar
    41   113   114    1
    42   121   123   ar
    43    98    97    1
    44    46    45    1
    45    46    49    1
    46   168   169    1
    47   124   123   ar
    48   172   169    1
    49   172   173    1
    50   207   206    1
    51   199   198    2
    52   175   173   ar
    53   175   177   ar
    54   131   130    2
    55   219   218    1
    56    49    50    1
    57   169   170    1
    58    65    63   ar
    59    65    66   ar
    60   170   171    2
    61    51    50   ar
    62    51    53   ar
    63    96    97    1
    64    97   100    1
    65   173   174   ar
    66    63    62   ar
    67    50    52   ar
    68   177   178   ar
    69   130   129    1
    70   130   132   am
    71    53    55   ar
    72   129   126    1
    73   198   205   am
    74   198   197    1
    75   125   126    1
    76   206   205    1
    77   206   209    1
    78    66    68   ar
    79    66    64   ar
    80    52    54   ar
    81    68    70   ar
    82   197   196    1
    83   197   200    1
    84    55    54   ar
    85    55    56    1
    86   126   127    1
    87   100   102    1
    88   100   101    1
    89   211   209    1
    90   174   176   ar
    91    62    64   ar
    92    62    61    1
    93   178   176   ar
    94   178   179    1
    95   127   128    2
    96   209   210    1
    97   201   200    1
    98   201   202    1
    99    64    67   ar
   100    61    58    1
   101   203   202   ar
   102    40    39    2
   103    57    58    1
   104   192   191    2
   105    70    69   ar
   106   202   204   ar
   107    58    59    1
   108   191   190    1
   109    67    69   ar
   110    32    31    2
   111    39    38    1
   112    59    60    2
   113    38    41    1
   114    38    37    1
   115    35    34    1
   116    42    41    1
   117    42    43    1
   118    42    44    1
   119   194   193    1
   120    34    36    1
   121    34    33    1
   122   138   137    1
   123    31    37   am
   124    31    30    1
   125   183   182    2
   126   190   193    1
   127   190   189    1
   128    95    93   ar
   129    95    94   ar
   130   137   139    1
   131   137   134    1
   132   193   195    1
   133    93    91   ar
   134   182   189   am
   135   182   181    1
   136    30    33    1
   137    30    29    1
   138    94    92   ar
   139   133   134    1
   140   136   135    2
   141   145   144    1
   142   134   135    1
   143   181   180    1
   144   181   184    1
   145    71    72    1
   146    91    90   ar
   147    91    89   ar
   148    81    78    1
   149    92    89   ar
   150    76    75    1
   151   154   155    1
   152   154   151    1
   153    75    72    1
   154    77    78    1
   155    77    73   am
   156   155   156    1
   157   144   141    1
   158    90    88   ar
   159    89    87   ar
   160    72    73    1
   161   143   142    2
   162   184   185    1
   163    28    27    2
   164   156   150    1
   165    78    79    1
   166   151   150    1
   167   151   152    1
   168    73    74    2
   169   150   148   am
   170   142   141    1
   171   142   146   am
   172   148   147    1
   173   148   149    2
   174    20    19    2
   175   185   186    1
   176   147   146    1
   177   141   140    1
   178    88    87   ar
   179    87    86    1
   180    27    26    1
   181    23    21    1
   182    26    25    1
   183    79    80    2
   184   152   153    2
   185    19    25   am
   186    19    18    1
   187   186   188   am
   188   186   187    2
   189    86    83    1
   190    83    84    1
   191    83    82    1
   192    21    18    1
   193    21    22    1
   194    18    17    1
   195    84    85    2
   196    22    24    1
   197     7     5    1
   198     4     3    2
   199    11    10    2
   200     3     2    1
   201     3     8   am
   202     5     2    1
   203     5     6    1
   204     2     1    1
   205    10     9    1
   206     9     8    1
   207     9    12    1
   208    12    13    1
   209    13    14    1
   210    14    15    1
   211    15    16    1
