@<TRIPOS>MOLECULE
tmp/6gpxB00.pdb
 89 85 0 0 0
SMALL
GASTEIGER

@<TRIPOS>ATOM
      1  N         38.4900    9.7260   57.6950 N.3    76  ASN76      -0.1240
      2  CA        39.5480   10.6280   57.2370 C.3    76  ASN76       0.1653
      3  C         39.9670   10.3750   55.7880 C.2    76  ASN76       0.2266
      4  O         40.2520   11.3340   55.0740 O.2    76  ASN76      -0.2867
      5  CB        40.7710   10.5290   58.1580 C.3    76  ASN76       0.1155
      6  CG        41.7270   11.6890   58.0260 C.2    76  ASN76       0.2627
      7  OD1       41.3180   12.8400   57.8960 O.2    76  ASN76      -0.2716
      8  ND2       43.0250   11.4270   58.0730 N.am   76  ASN76      -0.0877
      9  N         39.7110   13.0780   52.5750 N.3    80  LYS80      -0.1245
     10  CA        40.8230   13.4440   51.6970 C.3    80  LYS80       0.1561
     11  C         40.5690   13.0810   50.2260 C.2    80  LYS80       0.2260
     12  O         40.8860   13.8810   49.3430 O.2    80  LYS80      -0.2867
     13  CB        42.1200   12.8070   52.2030 C.3    80  LYS80       0.0271
     14  CG        42.5790   13.4410   53.5020 C.3    80  LYS80       0.0035
     15  CD        43.8210   12.7920   54.0550 C.3    80  LYS80       0.0206
     16  CE        44.2610   13.4690   55.3220 C.3    80  LYS80       0.1093
     17  NZ        44.7290   14.8630   55.0850 N.3    80  LYS80      -0.1314
     18  N         45.8250   17.3270   33.3070 N.3   131  TRP131     -0.1227
     19  CA        45.3270   16.5480   34.4530 C.3   131  TRP131      0.1737
     20  C         46.4070   16.4680   35.5310 C.2   131  TRP131      0.2595
     21  O         46.0980   16.5910   36.7130 O.2   131  TRP131     -0.2718
     22  CB        44.8840   15.1290   34.0460 C.3   131  TRP131      0.0564
     23  CG        43.5460   15.0770   33.3710 C.ar  131  TRP131      0.0003
     24  CD1       43.2840   14.6740   32.0970 C.ar  131  TRP131      0.0946
     25  CD2       42.2890   15.4480   33.9380 C.ar  131  TRP131      0.0152
     26  NE1       41.9410   14.7790   31.8320 N.ar  131  TRP131     -0.2442
     27  CE2       41.3050   15.2530   32.9440 C.ar  131  TRP131      0.0810
     28  CE3       41.8940   15.9380   35.1920 C.ar  131  TRP131      0.0012
     29  CZ2       39.9550   15.5320   33.1630 C.ar  131  TRP131      0.0191
     30  CZ3       40.5560   16.2260   35.4010 C.ar  131  TRP131      0.0001
     31  CH2       39.6030   16.0100   34.3980 C.ar  131  TRP131      0.0015
     32  N         47.6730   16.3010   35.1190 N.am  132  LEU132     -0.1980
     33  CA        48.8180   16.2880   36.0360 C.3   132  LEU132      0.1596
     34  C         48.8920   17.5860   36.8440 C.2   132  LEU132      0.2287
     35  O         49.0250   17.5200   38.0640 O.2   132  LEU132     -0.2864
     36  CB        50.1320   16.0880   35.2700 C.3   132  LEU132      0.0297
     37  CG        50.7960   14.7450   35.4550 C.3   132  LEU132      0.0022
     38  CD1       51.5400   14.3590   34.2270 C.3   132  LEU132      0.0001
     39  CD2       51.7380   14.7750   36.6070 C.3   132  LEU132      0.0001
     40  N         46.0080   17.6800   39.3220 N.3   135  VAL135     -0.1231
     41  CA        46.2970   16.7990   40.4600 C.3   135  VAL135      0.1692
     42  C         47.3040   17.4740   41.4000 C.2   135  VAL135      0.2592
     43  O         47.0750   17.4690   42.6050 O.2   135  VAL135     -0.2718
     44  CB        46.7710   15.3900   40.0060 C.3   135  VAL135      0.0266
     45  CG1       47.3370   14.5870   41.1730 C.3   135  VAL135      0.0020
     46  CG2       45.6290   14.6210   39.3430 C.3   135  VAL135      0.0020
     47  N         48.3990   18.0690   40.8780 N.am  136  PHE136     -0.1976
     48  CA        49.3820   18.7430   41.7480 C.3   136  PHE136      0.1639
     49  C         48.7990   19.9510   42.4750 C.2   136  PHE136      0.2290
     50  O         49.0490   20.1120   43.6720 O.2   136  PHE136     -0.2864
     51  CB        50.6580   19.1250   40.9920 C.3   136  PHE136      0.0560
     52  CG        51.6020   17.9590   40.8300 C.ar  136  PHE136     -0.0200
     53  CD1       52.2060   17.3740   41.9350 C.ar  136  PHE136     -0.0042
     54  CD2       51.9440   17.4900   39.5720 C.ar  136  PHE136     -0.0042
     55  CE1       53.1020   16.3150   41.7800 C.ar  136  PHE136     -0.0003
     56  CE2       52.8530   16.4430   39.4230 C.ar  136  PHE136     -0.0003
     57  CZ        53.4230   15.8630   40.5220 C.ar  136  PHE136     -0.0000
     58  N         47.0130   18.7760   45.7130 N.3   139  VAL139     -0.1245
     59  CA        47.7780   18.1390   46.8000 C.3   139  VAL139      0.1561
     60  C         47.6760   18.9280   48.1290 C.2   139  VAL139      0.2260
     61  O         47.2720   18.3180   49.1150 O.2   139  VAL139     -0.2867
     62  CB        49.2470   17.8310   46.3900 C.3   139  VAL139      0.0252
     63  CG1       50.1170   17.4880   47.6030 C.3   139  VAL139      0.0019
     64  CG2       49.2880   16.6960   45.3760 C.3   139  VAL139      0.0019
     65  N         44.4340   18.1560   49.7560 N.3   142  ILE142     -0.1231
     66  CA        44.3820   16.7510   50.1810 C.3   142  ILE142      0.1692
     67  C         45.2110   16.5840   51.4760 C.2   142  ILE142      0.2591
     68  O         44.8100   15.8120   52.3400 O.2   142  ILE142     -0.2718
     69  CB        44.8580   15.7850   49.0500 C.3   142  ILE142      0.0266
     70  CG1       43.9180   15.8400   47.8270 C.3   142  ILE142      0.0019
     71  CG2       44.9550   14.3360   49.5550 C.3   142  ILE142      0.0020
     72  CD1       44.5920   15.4530   46.5100 C.3   142  ILE142      0.0001
     73  N         46.3460   17.3130   51.6210 N.am  143  ILE143     -0.1980
     74  CA        47.1920   17.2370   52.8240 C.3   143  ILE143      0.1595
     75  C         46.4740   17.8080   54.0480 C.2   143  ILE143      0.2287
     76  O         46.3250   17.1100   55.0430 O.2   143  ILE143     -0.2864
     77  CB        48.5760   17.9730   52.6460 C.3   143  ILE143      0.0276
     78  CG1       49.4010   17.4570   51.4500 C.3   143  ILE143      0.0022
     79  CG2       49.4170   17.9140   53.9340 C.3   143  ILE143      0.0022
     80  CD1       49.3820   15.9910   51.2410 C.3   143  ILE143      0.0001
     81  N         41.0560   17.2640   56.6980 N.3   146  LYS146     -0.1245
     82  CA        40.9340   16.0270   57.4710 C.3   146  LYS146      0.1561
     83  C         39.6430   15.9540   58.2710 C.2   146  LYS146      0.2260
     84  O         39.0070   16.9790   58.5260 O.2   146  LYS146     -0.2867
     85  CB        42.1340   15.8730   58.4260 C.3   146  LYS146      0.0271
     86  CG        42.4230   17.0900   59.3040 C.3   146  LYS146      0.0035
     87  CD        43.4970   16.7830   60.3420 C.3   146  LYS146      0.0206
     88  CE        43.9150   17.9860   61.1490 C.3   146  LYS146      0.1093
     89  NZ        45.1840   17.7590   61.9050 N.3   146  LYS146     -0.1314
@<TRIPOS>BOND
     1    26    24   ar
     2    26    27   ar
     3    24    23   ar
     4    27    29   ar
     5    27    25   ar
     6    29    31   ar
     7    18    19    1
     8    23    25   ar
     9    23    22    1
    10    25    28   ar
    11    22    19    1
    12    38    37    1
    13    31    30   ar
    14    19    20    1
    15    32    20   am
    16    32    33    1
    17    28    30   ar
    18    36    37    1
    19    36    33    1
    20    37    39    1
    21    20    21    2
    22    33    34    1
    23    34    35    2
    24    40    41    1
    25    46    44    1
    26    56    54   ar
    27    56    57   ar
    28    54    52   ar
    29    44    41    1
    30    44    45    1
    31    41    42    1
    32    57    55   ar
    33    52    51    1
    34    52    53   ar
    35    47    42   am
    36    47    48    1
    37    51    48    1
    38    42    43    2
    39    48    49    1
    40    55    53   ar
    41    49    50    2
    42    64    62    1
    43    58    59    1
    44    62    59    1
    45    62    63    1
    46    72    70    1
    47    59    60    1
    48    70    69    1
    49    60    61    2
    50    69    71    1
    51    69    66    1
    52    12    11    2
    53    65    66    1
    54    66    67    1
    55    11    10    1
    56    80    78    1
    57    78    77    1
    58    67    73   am
    59    67    68    2
    60    73    74    1
    61    10    13    1
    62    10     9    1
    63    13    14    1
    64    77    74    1
    65    77    79    1
    66    74    75    1
    67    14    15    1
    68    75    76    2
    69    15    16    1
    70     4     3    2
    71    17    16    1
    72     3     2    1
    73    81    82    1
    74     2     1    1
    75     2     5    1
    76    82    83    1
    77    82    85    1
    78     7     6    2
    79     6     8   am
    80     6     5    1
    81    83    84    2
    82    85    86    1
    83    86    87    1
    84    87    88    1
    85    88    89    1
