@<TRIPOS>MOLECULE
tmp/6gpxB04.pdb
 219 211 0 0 0
SMALL
GASTEIGER

@<TRIPOS>ATOM
      1  N         23.0530   30.5820   59.7100 N.3     3  VAL3       -0.1231
      2  CA        23.5100   30.0420   58.4270 C.3     3  VAL3        0.1692
      3  C         23.6150   28.5060   58.4530 C.2     3  VAL3        0.2591
      4  O         23.3420   27.8850   57.4310 O.2     3  VAL3       -0.2718
      5  CB        24.8180   30.7230   57.9440 C.3     3  VAL3        0.0266
      6  CG1       26.0520   30.1590   58.6480 C.3     3  VAL3        0.0020
      7  CG2       24.9610   30.6180   56.4300 C.3     3  VAL3        0.0020
      8  N         23.9860   27.8920   59.6020 N.am    4  LYS4       -0.1980
      9  CA        24.0790   26.4290   59.7130 C.3     4  LYS4        0.1596
     10  C         22.7050   25.7600   59.5220 C.2     4  LYS4        0.2287
     11  O         22.6350   24.6910   58.9160 O.2     4  LYS4       -0.2864
     12  CB        24.6740   26.0220   61.0720 C.3     4  LYS4        0.0298
     13  CG        25.0900   24.5580   61.1420 C.3     4  LYS4        0.0038
     14  CD        25.8250   24.2400   62.4360 C.3     4  LYS4        0.0206
     15  CE        26.2480   22.7910   62.5260 C.3     4  LYS4        0.1093
     16  NZ        27.4920   22.5090   61.7560 N.3     4  LYS4       -0.1314
     17  N         20.1240   27.0770   57.7580 N.3     6  ILE6       -0.1231
     18  CA        19.7630   27.2610   56.3440 C.3     6  ILE6        0.1692
     19  C         20.5240   26.2160   55.5100 C.2     6  ILE6        0.2592
     20  O         19.9610   25.6690   54.5670 O.2     6  ILE6       -0.2718
     21  CB        20.0360   28.7170   55.8570 C.3     6  ILE6        0.0266
     22  CG1       19.1210   29.7200   56.5950 C.3     6  ILE6        0.0019
     23  CG2       19.8330   28.8460   54.3400 C.3     6  ILE6        0.0020
     24  CD1       19.6460   31.1410   56.6500 C.3     6  ILE6        0.0001
     25  N         21.7770   25.9440   55.8860 N.am    7  GLY7       -0.1957
     26  CA        22.6250   24.9530   55.2360 C.3     7  GLY7        0.1869
     27  C         22.0590   23.5480   55.2780 C.2     7  GLY7        0.2309
     28  O         21.9690   22.8890   54.2440 O.2     7  GLY7       -0.2863
     29  N         18.6560   23.7350   52.9830 N.3    10  LEU10      -0.1231
     30  CA        18.8560   24.0640   51.5620 C.3    10  LEU10       0.1693
     31  C         19.8100   23.1590   50.7910 C.2    10  LEU10       0.2591
     32  O         19.5150   22.8290   49.6430 O.2    10  LEU10      -0.2718
     33  CB        19.3710   25.5170   51.4290 C.3    10  LEU10       0.0284
     34  CG        19.6840   26.0350   50.0040 C.3    10  LEU10       0.0019
     35  CD1       18.4160   26.1820   49.1770 C.3    10  LEU10       0.0001
     36  CD2       20.4240   27.3500   50.0660 C.3    10  LEU10       0.0001
     37  N         20.9900   22.8600   51.3550 N.am   11  LEU11      -0.1980
     38  CA        22.0390   22.1290   50.6340 C.3    11  LEU11       0.1596
     39  C         21.6840   20.6890   50.2560 C.2    11  LEU11       0.2287
     40  O         21.8890   20.3340   49.0940 O.2    11  LEU11      -0.2864
     41  CB        23.3800   22.1680   51.3770 C.3    11  LEU11       0.0297
     42  CG        24.2390   23.4000   51.1120 C.3    11  LEU11       0.0022
     43  CD1       23.4600   24.7040   51.2090 C.3    11  LEU11       0.0001
     44  CD2       25.4320   23.4060   52.0130 C.3    11  LEU11       0.0001
     45  N         22.1230   20.2660   46.3260 N.3    15  TYR15      -0.1241
     46  CA        23.2410   19.4390   45.8610 C.3    15  TYR15       0.1605
     47  C         22.7980   18.1080   45.2360 C.2    15  TYR15       0.2264
     48  O         23.5080   17.6020   44.3670 O.2    15  TYR15      -0.2867
     49  CB        24.2500   19.1960   47.0000 C.3    15  TYR15       0.0534
     50  CG        25.0100   20.4110   47.5050 C.ar   15  TYR15      -0.0201
     51  CD1       25.0570   21.5960   46.7670 C.ar   15  TYR15      -0.0009
     52  CD2       25.7520   20.3490   48.6800 C.ar   15  TYR15      -0.0009
     53  CE1       25.7780   22.6990   47.2150 C.ar   15  TYR15       0.0417
     54  CE2       26.4830   21.4450   49.1330 C.ar   15  TYR15       0.0417
     55  CZ        26.5150   22.6120   48.3830 C.ar   15  TYR15       0.1957
     56  OH        27.1940   23.7240   48.8250 O.3    15  TYR15      -0.2866
     57  N         28.7770   15.7810   50.2680 N.3    64  TRP64      -0.1241
     58  CA        28.6270   17.1300   50.8240 C.3    64  TRP64       0.1605
     59  C         27.1690   17.3740   51.2020 C.2    64  TRP64       0.2264
     60  O         26.9110   18.0750   52.1770 O.2    64  TRP64      -0.2867
     61  CB        29.0950   18.2160   49.8410 C.3    64  TRP64       0.0550
     62  CG        30.4750   18.0430   49.2710 C.ar   64  TRP64       0.0003
     63  CD1       30.8250   18.1550   47.9600 C.ar   64  TRP64       0.0946
     64  CD2       31.6820   17.6970   49.9810 C.ar   64  TRP64       0.0152
     65  NE1       32.1720   17.9390   47.8070 N.ar   64  TRP64      -0.2442
     66  CE2       32.7200   17.6370   49.0280 C.ar   64  TRP64       0.0810
     67  CE3       31.9900   17.4430   51.3300 C.ar   64  TRP64       0.0012
     68  CZ2       34.0330   17.3200   49.3750 C.ar   64  TRP64       0.0191
     69  CZ3       33.2930   17.1250   51.6710 C.ar   64  TRP64       0.0001
     70  CH2       34.2960   17.0660   50.6990 C.ar   64  TRP64       0.0015
     71  N         26.7230   15.6700   54.6040 N.3    67  SER67      -0.1202
     72  CA        27.4440   16.4610   55.6100 C.3    67  SER67       0.2020
     73  C         26.8040   17.8090   55.9610 C.2    67  SER67       0.2618
     74  O         27.1720   18.3830   56.9860 O.2    67  SER67      -0.2717
     75  CB        28.8800   16.7000   55.1640 C.3    67  SER67       0.2103
     76  OG        29.4340   15.4840   54.6980 O.3    67  SER67      -0.2182
     77  N         25.8960   18.3380   55.1170 N.am   68  ALA68      -0.1979
     78  CA        25.2020   19.5950   55.4070 C.3    68  ALA68       0.1597
     79  C         24.2380   19.4060   56.5870 C.2    68  ALA68       0.2287
     80  O         24.1710   20.2750   57.4550 O.2    68  ALA68      -0.2864
     81  CB        24.4390   20.0770   54.1830 C.3    68  ALA68       0.0319
     82  N         30.3260   14.2270   59.6010 N.3    72  TRP72      -0.1241
     83  CA        31.1620   13.5300   58.6270 C.3    72  TRP72       0.1605
     84  C         31.3260   12.0990   59.1560 C.2    72  TRP72       0.2264
     85  O         32.0840   11.8640   60.1000 O.2    72  TRP72      -0.2867
     86  CB        32.5260   14.1980   58.4080 C.3    72  TRP72       0.0550
     87  CG        33.2880   13.5290   57.3010 C.ar   72  TRP72       0.0003
     88  CD1       34.1870   12.5100   57.4220 C.ar   72  TRP72       0.0946
     89  CD2       33.0520   13.6870   55.8980 C.ar   72  TRP72       0.0152
     90  NE1       34.5640   12.0630   56.1800 N.ar   72  TRP72      -0.2442
     91  CE2       33.9210   12.8040   55.2240 C.ar   72  TRP72       0.0810
     92  CE3       32.2830   14.5770   55.1390 C.ar   72  TRP72       0.0012
     93  CZ2       33.9630   12.7170   53.8290 C.ar   72  TRP72       0.0191
     94  CZ3       32.3480   14.5110   53.7560 C.ar   72  TRP72       0.0001
     95  CH2       33.1860   13.5930   53.1170 C.ar   72  TRP72       0.0015
     96  N         37.9920   15.4730   48.8460 N.3    83  THR83      -0.1218
     97  CA        38.5770   16.8180   48.7490 C.3    83  THR83       0.1862
     98  C         39.4440   16.8590   47.4830 C.2    83  THR83       0.2287
     99  O         39.4800   17.8770   46.7940 O.2    83  THR83      -0.2866
    100  CB        39.3850   17.1510   50.0030 C.3    83  THR83       0.1770
    101  OG1       38.4780   17.2570   51.0950 O.3    83  THR83      -0.2211
    102  CG2       40.1700   18.4450   49.8600 C.3    83  THR83       0.0375
    103  N         37.1520   16.9920   44.4100 N.3    86  TYR86      -0.1227
    104  CA        36.5950   18.3480   44.3570 C.3    86  TYR86       0.1736
    105  C         37.5880   19.2770   43.6490 C.2    86  TYR86       0.2595
    106  O         37.2080   19.9890   42.7220 O.2    86  TYR86      -0.2718
    107  CB        36.3140   18.8410   45.8020 C.3    86  TYR86       0.0548
    108  CG        35.8220   20.2690   45.9650 C.ar   86  TYR86      -0.0200
    109  CD1       36.7000   21.3440   45.8640 C.ar   86  TYR86      -0.0009
    110  CD2       34.5420   20.5330   46.4380 C.ar   86  TYR86      -0.0009
    111  CE1       36.2670   22.6510   46.0460 C.ar   86  TYR86       0.0417
    112  CE2       34.1170   21.8350   46.6930 C.ar   86  TYR86       0.0417
    113  CZ        34.9880   22.8940   46.5090 C.ar   86  TYR86       0.1957
    114  OH        34.6010   24.1840   46.7760 O.3    86  TYR86      -0.2866
    115  N         38.8570   19.2760   44.0940 N.am   87  HIS87      -0.1975
    116  CA        39.8730   20.1650   43.5250 C.3    87  HIS87       0.1656
    117  C         40.3560   19.7320   42.1430 C.2    87  HIS87       0.2291
    118  O         40.5760   20.5990   41.2990 O.2    87  HIS87      -0.2864
    119  CB        41.0350   20.3660   44.4990 C.3    87  HIS87       0.0771
    120  CG        40.6480   21.2010   45.6740 C.ar   87  HIS87       0.0820
    121  ND1       40.2180   20.6270   46.8510 N.ar   87  HIS87      -0.2267
    122  CD2       40.5680   22.5450   45.7890 C.ar   87  HIS87       0.1154
    123  CE1       39.9490   21.6300   47.6660 C.ar   87  HIS87       0.1986
    124  NE2       40.1150   22.8070   47.0580 N.ar   87  HIS87      -0.2212
    125  N         45.3710   20.8390   49.4510 N.3   141  ASN141     -0.1240
    126  CA        44.0490   20.5870   50.0250 C.3   141  ASN141      0.1653
    127  C         43.8870   19.1390   50.4910 C.2   141  ASN141      0.2266
    128  O         43.3040   18.9270   51.5480 O.2   141  ASN141     -0.2867
    129  CB        42.9480   20.9740   49.0520 C.3   141  ASN141      0.1155
    130  CG        42.8260   22.4650   48.9190 C.2   141  ASN141      0.2627
    131  OD1       43.4860   23.0820   48.0810 O.2   141  ASN141     -0.2716
    132  ND2       41.9950   23.0790   49.7680 N.am  141  ASN141     -0.0877
    133  N         43.2630   18.9420   54.5520 N.3   145  THR145     -0.1218
    134  CA        41.8480   18.6820   54.8570 C.3   145  THR145      0.1862
    135  C         41.7760   17.3330   55.5640 C.2   145  THR145      0.2287
    136  O         42.4190   16.3820   55.1190 O.2   145  THR145     -0.2866
    137  CB        40.9660   18.7780   53.6000 C.3   145  THR145      0.1770
    138  OG1       41.2190   20.0290   52.9550 O.3   145  THR145     -0.2211
    139  CG2       39.4850   18.7000   53.9170 C.3   145  THR145      0.0375
    140  N         34.5910   17.3120   58.2400 N.3   156  CYS156     -0.1221
    141  CA        35.6350   17.2110   57.2250 C.3   156  CYS156      0.1808
    142  C         35.8500   18.6420   56.7670 C.2   156  CYS156      0.2602
    143  O         34.9470   19.2270   56.1630 O.2   156  CYS156     -0.2717
    144  CB        35.1910   16.2970   56.0840 C.3   156  CYS156      0.0970
    145  SG        36.2620   16.3170   54.6260 S.3   156  CYS156     -0.0800
    146  N         36.9790   19.2290   57.1550 N.am  157  GLY157     -0.1943
    147  CA        37.2920   20.6140   56.8180 C.3   157  GLY157      0.1998
    148  C         38.7730   20.9050   56.7780 C.2   157  GLY157      0.2480
    149  O         39.5860   20.0390   57.1080 O.2   157  GLY157     -0.2729
    150  N         39.1500   22.1200   56.3350 N.am  158  PRO158     -0.2726
    151  CA        40.5810   22.4440   56.2060 C.3   158  PRO158      0.1402
    152  C         41.2440   22.8660   57.5180 C.2   158  PRO158      0.2269
    153  O         40.6510   23.5960   58.3100 O.2   158  PRO158     -0.2865
    154  CB        40.5860   23.5630   55.1630 C.3   158  PRO158      0.0296
    155  CG        39.2820   24.2390   55.3340 C.3   158  PRO158      0.0237
    156  CD        38.3010   23.2370   55.8750 C.3   158  PRO158      0.0939
    157  N         45.0580   29.8400   44.6940 N.3   172  ARG172     -0.1245
    158  CA        43.7180   29.5770   44.1690 C.3   172  ARG172      0.1563
    159  C         43.2710   30.7660   43.3080 C.2   172  ARG172      0.2260
    160  O         42.7010   30.5600   42.2370 O.2   172  ARG172     -0.2867
    161  CB        42.7160   29.3240   45.3120 C.3   172  ARG172      0.0307
    162  CG        41.2830   29.1410   44.8220 C.3   172  ARG172      0.0489
    163  CD        40.5310   28.0360   45.5190 C.3   172  ARG172      0.2205
    164  NE        39.2470   27.7830   44.8630 N.pl3 172  ARG172     -0.0865
    165  CZ        38.3970   26.8250   45.2130 C.cat 172  ARG172      0.5346
    166  NH1       38.6780   26.0130   46.2290 N.pl3 172  ARG172      0.1354
    167  NH2       37.2550   26.6720   44.5560 N.pl3 172  ARG172      0.1354
    168  N         33.4540   33.5680   45.3650 N.3   214  TYR214     -0.1241
    169  CA        34.1450   32.7550   46.3760 C.3   214  TYR214      0.1605
    170  C         35.6440   33.0630   46.4250 C.2   214  TYR214      0.2264
    171  O         36.1890   33.2240   47.5150 O.2   214  TYR214     -0.2867
    172  CB        33.9210   31.2530   46.1220 C.3   214  TYR214      0.0534
    173  CG        34.6740   30.3510   47.0730 C.ar  214  TYR214     -0.0201
    174  CD1       34.1480   30.0230   48.3180 C.ar  214  TYR214     -0.0009
    175  CD2       35.9130   29.8240   46.7290 C.ar  214  TYR214     -0.0009
    176  CE1       34.8420   29.1990   49.2020 C.ar  214  TYR214      0.0417
    177  CE2       36.6200   29.0030   47.6060 C.ar  214  TYR214      0.0417
    178  CZ        36.0710   28.6750   48.8350 C.ar  214  TYR214      0.1957
    179  OH        36.7460   27.8580   49.7140 O.3   214  TYR214     -0.2866
    180  N         30.7130   30.5940   53.0260 N.3   243  GLN243     -0.1231
    181  CA        29.7610   29.4870   52.9580 C.3   243  GLN243      0.1698
    182  C         28.7380   29.6950   51.8360 C.2   243  GLN243      0.2592
    183  O         28.5070   28.7730   51.0520 O.2   243  GLN243     -0.2718
    184  CB        29.0680   29.2980   54.3190 C.3   243  GLN243      0.0381
    185  CG        30.0100   28.7930   55.4030 C.3   243  GLN243      0.0905
    186  CD        29.3330   28.7400   56.7490 C.2   243  GLN243      0.2608
    187  OE1       28.7200   27.7360   57.1230 O.2   243  GLN243     -0.2717
    188  NE2       29.4260   29.8100   57.5190 N.am  243  GLN243     -0.0878
    189  N         28.1730   30.9140   51.7200 N.am  244  VAL244     -0.1980
    190  CA        27.1820   31.2250   50.6810 C.3   244  VAL244      0.1595
    191  C         27.8060   31.1820   49.2780 C.2   244  VAL244      0.2287
    192  O         27.2440   30.5300   48.3990 O.2   244  VAL244     -0.2864
    193  CB        26.4540   32.5720   50.9640 C.3   244  VAL244      0.0276
    194  CG1       25.6110   33.0160   49.7660 C.3   244  VAL244      0.0022
    195  CG2       25.5800   32.4640   52.2130 C.3   244  VAL244      0.0022
    196  N         30.5070   29.6010   48.3130 N.3   246  GLU246     -0.1231
    197  CA        30.9520   28.2460   47.9840 C.3   246  GLU246      0.1699
    198  C         29.7890   27.4540   47.3760 C.2   246  GLU246      0.2592
    199  O         30.0120   26.7010   46.4300 O.2   246  GLU246     -0.2718
    200  CB        31.4810   27.5170   49.2210 C.3   246  GLU246      0.0402
    201  CG        31.8710   26.0830   48.9250 C.3   246  GLU246      0.1161
    202  CD        32.8520   25.4720   49.8940 C.2   246  GLU246      0.3649
    203  OE1       32.7970   25.8050   51.1010 O.co2 246  GLU246     -0.2457
    204  OE2       33.6630   24.6320   49.4450 O.co2 246  GLU246     -0.2457
    205  N         28.5570   27.6120   47.9220 N.am  247  THR247     -0.1953
    206  CA        27.3780   26.9300   47.3720 C.3   247  THR247      0.1897
    207  C         27.1590   27.3640   45.9260 C.2   247  THR247      0.2313
    208  O         26.9390   26.5000   45.0860 O.2   247  THR247     -0.2863
    209  CB        26.1340   27.1210   48.2640 C.3   247  THR247      0.1794
    210  OG1       26.3060   26.3210   49.4290 O.3   247  THR247     -0.2208
    211  CG2       24.8230   26.7070   47.5710 C.3   247  THR247      0.0378
    212  N         29.7330   25.6740   43.8000 N.3   250  MET250     -0.1245
    213  CA        29.4650   24.2310   43.7270 C.3   250  MET250      0.1570
    214  C         28.3240   23.8460   42.7860 C.2   250  MET250      0.2261
    215  O         28.3230   22.7200   42.2950 O.2   250  MET250     -0.2867
    216  CB        29.2350   23.6420   45.1190 C.3   250  MET250      0.0387
    217  CG        30.5150   23.4790   45.8800 C.3   250  MET250      0.0595
    218  SD        30.2300   22.9620   47.5560 S.3   250  MET250     -0.1393
    219  CE        29.7730   21.2690   47.2920 C.3   250  MET250      0.0692
@<TRIPOS>BOND
     1   118   117    2
     2   117   116    1
     3   160   159    2
     4   215   214    2
     5   106   105    2
     6   214   213    1
     7   159   158    1
     8   116   115    1
     9   116   119    1
    10   105   115   am
    11   105   104    1
    12   213   212    1
    13   213   216    1
    14   158   157    1
    15   158   161    1
    16   104   103    1
    17   104   107    1
    18    48    47    2
    19   119   120    1
    20   167   165    1
    21   162   161    1
    22   162   163    1
    23   164   165    2
    24   164   163    1
    25   208   207    2
    26   216   217    1
    27   165   166    1
    28    47    46    1
    29   168   169    1
    30   120   122   ar
    31   120   121   ar
    32   122   124   ar
    33   107   108    1
    34    46    45    1
    35    46    49    1
    36   109   108   ar
    37   109   111   ar
    38   217   218    1
    39   207   206    1
    40   108   110   ar
    41   111   113   ar
    42   172   169    1
    43   172   173    1
    44   169   170    1
    45   170   171    2
    46   199   198    2
    47   110   112   ar
    48   113   112   ar
    49   113   114    1
    50   175   173   ar
    51   175   177   ar
    52    51    53   ar
    53    51    50   ar
    54    99    98    2
    55   121   123   ar
    56    49    50    1
    57   124   123   ar
    58   173   174   ar
    59    53    55   ar
    60   219   218    1
    61   206   205    1
    62   206   209    1
    63   198   205   am
    64   198   197    1
    65    98    97    1
    66    50    52   ar
    67   211   209    1
    68   177   178   ar
    69    65    63   ar
    70    65    66   ar
    71    63    62   ar
    72   197   196    1
    73   197   200    1
    74   131   130    2
    75   209   210    1
    76   174   176   ar
    77    55    56    1
    78    55    54   ar
    79   192   191    2
    80    52    54   ar
    81    97    96    1
    82    97   100    1
    83   178   176   ar
    84   178   179    1
    85   130   129    1
    86   130   132   am
    87   201   200    1
    88   201   202    1
    89    66    68   ar
    90    66    64   ar
    91   129   126    1
    92    40    39    2
    93    35    34    1
    94    62    61    1
    95    62    64   ar
    96   191   190    1
    97    68    70   ar
    98   204   202   ar
    99   125   126    1
   100    32    31    2
   101   194   193    1
   102    61    58    1
   103   102   100    1
   104   202   203   ar
   105    64    67   ar
   106   100   101    1
   107    34    36    1
   108    34    33    1
   109   126   127    1
   110    39    38    1
   111    57    58    1
   112   127   128    2
   113    38    37    1
   114    38    41    1
   115   190   193    1
   116   190   189    1
   117    70    69   ar
   118    31    37   am
   119    31    30    1
   120    58    59    1
   121   193   195    1
   122   183   182    2
   123    42    43    1
   124    42    41    1
   125    42    44    1
   126    59    60    2
   127    67    69   ar
   128    33    30    1
   129    30    29    1
   130   189   182   am
   131   182   181    1
   132   138   137    1
   133   181   180    1
   134   181   184    1
   135    95    94   ar
   136    95    93   ar
   137   137   139    1
   138   137   134    1
   139    94    92   ar
   140    93    91   ar
   141    81    78    1
   142    28    27    2
   143   184   185    1
   144    23    21    1
   145   133   134    1
   146    20    19    2
   147    71    72    1
   148   145   144    1
   149    76    75    1
   150   134   135    1
   151    77    78    1
   152    77    73   am
   153   136   135    2
   154    92    89   ar
   155   154   155    1
   156   154   151    1
   157    75    72    1
   158    91    89   ar
   159    91    90   ar
   160    26    27    1
   161    26    25    1
   162   155   156    1
   163   185   186    1
   164    78    79    1
   165    19    25   am
   166    19    18    1
   167    72    73    1
   168    21    18    1
   169    21    22    1
   170   156   150    1
   171    89    87   ar
   172    73    74    2
   173   144   141    1
   174   143   142    2
   175    90    88   ar
   176   151   150    1
   177   151   152    1
   178   150   148   am
   179    18    17    1
   180     7     5    1
   181    79    80    2
   182    22    24    1
   183   186   187    2
   184   186   188   am
   185   142   146   am
   186   142   141    1
   187   148   147    1
   188   148   149    2
   189   147   146    1
   190   141   140    1
   191    87    88   ar
   192    87    86    1
   193     4     3    2
   194   152   153    2
   195     5     2    1
   196     5     6    1
   197    86    83    1
   198     2     3    1
   199     2     1    1
   200     3     8   am
   201    83    84    1
   202    83    82    1
   203    11    10    2
   204    84    85    2
   205    10     9    1
   206     8     9    1
   207     9    12    1
   208    12    13    1
   209    13    14    1
   210    16    15    1
   211    14    15    1
