@<TRIPOS>MOLECULE
tmp/6gpxB01.pdb
 80 73 0 0 0
SMALL
GASTEIGER

@<TRIPOS>ATOM
      1  N         34.0880   33.4870   40.8310 N.3   212  THR212     -0.1204
      2  CA        34.8200   34.6830   41.2780 C.3   212  THR212      0.1979
      3  C         34.3660   35.1860   42.6530 C.2   212  THR212      0.2459
      4  O         35.2330   35.5520   43.4510 O.2   212  THR212     -0.2732
      5  CB        34.7870   35.7910   40.2310 C.3   212  THR212      0.1783
      6  OG1       35.3070   35.2670   39.0140 O.3   212  THR212     -0.2211
      7  CG2       35.5910   37.0080   40.6450 C.3   212  THR212      0.0376
      8  N         33.0520   35.1980   42.9850 N.am  213  PRO213     -0.2728
      9  CA        32.6480   35.6590   44.3270 C.3   213  PRO213      0.1401
     10  C         33.3590   34.9110   45.4600 C.2   213  PRO213      0.2269
     11  O         33.8690   35.5520   46.3750 O.2   213  PRO213     -0.2865
     12  CB        31.1310   35.4370   44.3360 C.3   213  PRO213      0.0296
     13  CG        30.7380   35.4590   42.8940 C.3   213  PRO213      0.0237
     14  CD        31.8740   34.8090   42.1790 C.3   213  PRO213      0.0939
     15  N         37.2390   35.8160   45.6160 N.3   216  ILE216     -0.1231
     16  CA        37.4450   37.1390   46.2280 C.3   216  ILE216      0.1692
     17  C         37.1370   37.1040   47.7330 C.2   216  ILE216      0.2591
     18  O         37.8390   37.7510   48.5050 O.2   216  ILE216     -0.2718
     19  CB        36.6390   38.2370   45.4850 C.3   216  ILE216      0.0266
     20  CG1       37.2150   38.4210   44.0610 C.3   216  ILE216      0.0019
     21  CG2       36.6540   39.5720   46.2680 C.3   216  ILE216      0.0020
     22  CD1       36.4060   39.2800   43.1690 C.3   216  ILE216      0.0001
     23  N         36.0950   36.3620   48.1490 N.am  217  VAL217     -0.1980
     24  CA        35.7320   36.2630   49.5650 C.3   217  VAL217      0.1595
     25  C         36.8460   35.5710   50.3680 C.2   217  VAL217      0.2287
     26  O         37.1790   36.0710   51.4420 O.2   217  VAL217     -0.2864
     27  CB        34.3310   35.6280   49.7630 C.3   217  VAL217      0.0276
     28  CG1       34.1120   35.1870   51.2040 C.3   217  VAL217      0.0022
     29  CG2       33.2400   36.6090   49.3450 C.3   217  VAL217      0.0022
     30  N         39.6830   38.1620   50.6690 N.3   220  LEU220     -0.1245
     31  CA        39.3010   39.1340   51.7040 C.3   220  LEU220      0.1561
     32  C         39.3510   38.5380   53.1160 C.2   220  LEU220      0.2260
     33  O         39.8060   39.2120   54.0380 O.2   220  LEU220     -0.2867
     34  CB        37.8880   39.6880   51.4290 C.3   220  LEU220      0.0270
     35  CG        37.7570   40.9410   50.5540 C.3   220  LEU220      0.0019
     36  CD1       38.7490   40.9770   49.4030 C.3   220  LEU220      0.0001
     37  CD2       36.3570   41.0640   50.0260 C.3   220  LEU220      0.0001
     38  N         39.6130   44.7080   57.0870 N.3   229  LEU229     -0.1245
     39  CA        38.4090   43.9890   57.4940 C.3   229  LEU229      0.1561
     40  C         38.7420   43.0720   58.7000 C.2   229  LEU229      0.2260
     41  O         38.0990   42.0410   58.8920 O.2   229  LEU229     -0.2867
     42  CB        37.9220   43.1480   56.2940 C.3   229  LEU229      0.0270
     43  CG        37.7100   43.8960   54.9680 C.3   229  LEU229      0.0019
     44  CD1       37.5000   42.9250   53.8290 C.3   229  LEU229      0.0001
     45  CD2       36.5370   44.8520   55.0520 C.3   229  LEU229      0.0001
     46  N         32.9740   42.0700   60.7630 N.3   234  SER234     -0.1217
     47  CA        33.2260   41.7620   59.3470 C.3   234  SER234      0.1889
     48  C         33.8280   40.3710   59.1360 C.2   234  SER234      0.2288
     49  O         33.7020   39.8380   58.0380 O.2   234  SER234     -0.2866
     50  CB        34.0970   42.8290   58.6880 C.3   234  SER234      0.2089
     51  OG        35.4760   42.5780   58.8780 O.3   234  SER234     -0.2183
     52  N         30.8580   38.0980   58.9390 N.3   237  GLN237     -0.1231
     53  CA        30.2080   38.2960   57.6310 C.3   237  GLN237      0.1698
     54  C         30.9790   37.5620   56.5260 C.2   237  GLN237      0.2592
     55  O         30.3650   36.9400   55.6580 O.2   237  GLN237     -0.2718
     56  CB        30.0910   39.7960   57.3000 C.3   237  GLN237      0.0381
     57  CG        28.9440   40.4960   58.0320 C.3   237  GLN237      0.0905
     58  CD        28.9940   42.0000   57.9360 C.2   237  GLN237      0.2608
     59  OE1       29.6340   42.5750   57.0420 O.2   237  GLN237     -0.2717
     60  NE2       28.3030   42.6770   58.8560 N.am  237  GLN237     -0.0878
     61  N         32.3240   37.6340   56.5650 N.am  238  LEU238     -0.1980
     62  CA        33.1980   36.9450   55.6070 C.3   238  LEU238      0.1596
     63  C         33.1170   35.4120   55.7560 C.2   238  LEU238      0.2287
     64  O         33.2250   34.7120   54.7530 O.2   238  LEU238     -0.2864
     65  CB        34.6520   37.4320   55.7330 C.3   238  LEU238      0.0297
     66  CG        34.9020   38.8430   55.1970 C.3   238  LEU238      0.0022
     67  CD1       36.1310   39.4730   55.8250 C.3   238  LEU238      0.0001
     68  CD2       35.0410   38.8450   53.6830 C.3   238  LEU238      0.0001
     69  N         29.7850   34.6380   54.1620 N.3   241  ALA241     -0.1245
     70  CA        29.9510   34.8510   52.7280 C.3   241  ALA241      0.1562
     71  C         30.7230   33.6870   52.0990 C.2   241  ALA241      0.2260
     72  O         30.3500   33.2510   51.0120 O.2   241  ALA241     -0.2867
     73  CB        30.6760   36.1650   52.4740 C.3   241  ALA241      0.0290
     74  N         28.9600   31.8490   49.0720 N.3   245  THR245     -0.1218
     75  CA        29.6340   31.8590   47.7630 C.3   245  THR245      0.1862
     76  C         30.1800   30.4810   47.3480 C.2   245  THR245      0.2287
     77  O         30.2900   30.2180   46.1500 O.2   245  THR245     -0.2866
     78  CB        30.7250   32.9230   47.7130 C.3   245  THR245      0.1770
     79  OG1       31.6680   32.6640   48.7530 O.3   245  THR245     -0.2211
     80  CG2       30.1600   34.3380   47.7950 C.3   245  THR245      0.0375
@<TRIPOS>BOND
     1     6     5    1
     2     5     7    1
     3     5     2    1
     4     1     2    1
     5     2     3    1
     6    14    13    1
     7    14     8    1
     8     3     8   am
     9     3     4    2
    10    13    12    1
    11     8     9    1
    12    22    20    1
    13    20    19    1
    14     9    12    1
    15     9    10    1
    16    10    11    2
    17    19    16    1
    18    19    21    1
    19    15    16    1
    20    77    76    2
    21    16    17    1
    22    76    75    1
    23    78    75    1
    24    78    80    1
    25    78    79    1
    26    17    23   am
    27    17    18    2
    28    75    74    1
    29    23    24    1
    30    29    27    1
    31    36    35    1
    32    24    27    1
    33    24    25    1
    34    27    28    1
    35    37    35    1
    36    25    26    2
    37    35    34    1
    38    30    31    1
    39    72    71    2
    40    34    31    1
    41    31    32    1
    42    71    70    1
    43    73    70    1
    44    70    69    1
    45    32    33    2
    46    68    66    1
    47    44    43    1
    48    64    63    2
    49    43    45    1
    50    43    42    1
    51    66    65    1
    52    66    67    1
    53    62    65    1
    54    62    63    1
    55    62    61    1
    56    55    54    2
    57    42    39    1
    58    54    61   am
    59    54    53    1
    60    59    58    2
    61    38    39    1
    62    56    53    1
    63    56    57    1
    64    39    40    1
    65    53    52    1
    66    58    57    1
    67    58    60   am
    68    49    48    2
    69    50    51    1
    70    50    47    1
    71    40    41    2
    72    48    47    1
    73    47    46    1
