@<TRIPOS>MOLECULE
tmp/6gpxA04.pdb
 117 107 0 0 0
SMALL
GASTEIGER

@<TRIPOS>ATOM
      1  N         45.1380   -3.1920   62.0200 N.3     1  ASP1       -0.1225
      2  CA        46.5580   -2.8680   62.1510 C.3     1  ASP1        0.1805
      3  C         47.2200   -2.8560   60.7690 C.2     1  ASP1        0.2597
      4  O         46.9010   -3.7030   59.9340 O.2     1  ASP1       -0.2718
      5  CB        47.2540   -3.8940   63.0730 C.3     1  ASP1        0.1424
      6  CG        48.5590   -3.4250   63.7010 C.2     1  ASP1        0.3668
      7  OD1       49.2990   -2.6570   63.0440 O.co2   1  ASP1       -0.2456
      8  OD2       48.8470   -3.8370   64.8450 O.co2   1  ASP1       -0.2456
      9  N         48.1430   -1.9000   60.5330 N.am    2  VAL2       -0.1980
     10  CA        48.8680   -1.7910   59.2550 C.3     2  VAL2        0.1595
     11  C         49.8250   -2.9760   59.0400 C.2     2  VAL2        0.2287
     12  O         49.9510   -3.4490   57.9150 O.2     2  VAL2       -0.2864
     13  CB        49.5850   -0.4210   59.1010 C.3     2  VAL2        0.0276
     14  CG1       50.8240   -0.3140   59.9960 C.3     2  VAL2        0.0022
     15  CG2       49.9490   -0.1530   57.6440 C.3     2  VAL2        0.0022
     16  N         47.7880   -6.1710   57.9660 N.3     5  ILE5       -0.1245
     17  CA        47.3690   -6.0720   56.5600 C.3     5  ILE5        0.1561
     18  C         48.5910   -6.3620   55.6700 C.2     5  ILE5        0.2260
     19  O         48.4490   -7.0170   54.6420 O.2     5  ILE5       -0.2867
     20  CB        46.7250   -4.6880   56.2430 C.3     5  ILE5        0.0252
     21  CG1       45.4010   -4.5130   57.0250 C.3     5  ILE5        0.0019
     22  CG2       46.4660   -4.5250   54.7350 C.3     5  ILE5        0.0019
     23  CD1       44.9840   -3.0760   57.2590 C.3     5  ILE5        0.0001
     24  N         48.5250   -9.1490   52.7930 N.3     9  LEU9       -0.1231
     25  CA        48.4770   -8.6010   51.4270 C.3     9  LEU9        0.1693
     26  C         49.7740   -8.6730   50.6280 C.2     9  LEU9        0.2591
     27  O         49.7200   -8.9750   49.4350 O.2     9  LEU9       -0.2718
     28  CB        48.0290   -7.1190   51.4750 C.3     9  LEU9        0.0284
     29  CG        47.9600   -6.3550   50.1320 C.3     9  LEU9        0.0019
     30  CD1       46.8430   -6.8850   49.2470 C.3     9  LEU9        0.0001
     31  CD2       47.7790   -4.8770   50.3730 C.3     9  LEU9        0.0001
     32  N         50.9080   -8.2850   51.2320 N.am   10  LEU10      -0.1980
     33  CA        52.1790   -8.1670   50.5080 C.3    10  LEU10       0.1596
     34  C         52.7420   -9.4840   49.9650 C.2    10  LEU10       0.2287
     35  O         53.1070   -9.5080   48.7880 O.2    10  LEU10      -0.2864
     36  CB        53.2430   -7.4350   51.3320 C.3    10  LEU10       0.0297
     37  CG        53.2040   -5.9140   51.2490 C.3    10  LEU10       0.0022
     38  CD1       51.8050   -5.3430   51.4290 C.3    10  LEU10       0.0001
     39  CD2       54.1720   -5.3130   52.2200 C.3    10  LEU10       0.0001
     40  N         50.7720  -10.2980   46.7720 N.3    13  LEU13      -0.1245
     41  CA        50.8700   -9.1580   45.8510 C.3    13  LEU13       0.1561
     42  C         52.2590   -9.0940   45.2190 C.2    13  LEU13       0.2260
     43  O         52.3700   -9.0650   43.9980 O.2    13  LEU13      -0.2867
     44  CB        50.5520   -7.8380   46.5840 C.3    13  LEU13       0.0270
     45  CG        50.6470   -6.5390   45.7700 C.3    13  LEU13       0.0019
     46  CD1       49.6470   -6.5270   44.6240 C.3    13  LEU13       0.0001
     47  CD2       50.4330   -5.3360   46.6590 C.3    13  LEU13       0.0001
     48  N         53.3900   -9.6530   41.2690 N.3    17  VAL17      -0.1245
     49  CA        54.1510   -8.5960   40.5880 C.3    17  VAL17       0.1561
     50  C         55.4980   -9.1590   40.1310 C.2    17  VAL17       0.2260
     51  O         55.9120   -8.8770   39.0080 O.2    17  VAL17      -0.2867
     52  CB        54.3030   -7.3290   41.4740 C.3    17  VAL17       0.0252
     53  CG1       55.3710   -6.3670   40.9410 C.3    17  VAL17       0.0019
     54  CG2       52.9680   -6.6090   41.5980 C.3    17  VAL17       0.0019
     55  N         52.5090    6.0450   39.9770 N.3   257  PHE257     -0.1241
     56  CA        52.9150    5.0090   40.9320 C.3   257  PHE257      0.1605
     57  C         53.9110    5.4720   42.0060 C.2   257  PHE257      0.2264
     58  O         53.8310    4.9660   43.1230 O.2   257  PHE257     -0.2867
     59  CB        53.4760    3.7690   40.2030 C.3   257  PHE257      0.0534
     60  CG        52.4330    2.8310   39.6320 C.ar  257  PHE257     -0.0203
     61  CD1       51.5790    3.2430   38.6200 C.ar  257  PHE257     -0.0042
     62  CD2       52.3390    1.5190   40.0720 C.ar  257  PHE257     -0.0042
     63  CE1       50.6180    2.3770   38.0960 C.ar  257  PHE257     -0.0003
     64  CE2       51.3800    0.6510   39.5400 C.ar  257  PHE257     -0.0003
     65  CZ        50.5290    1.0860   38.5540 C.ar  257  PHE257     -0.0000
     66  N         52.0240    5.2350   58.3200 N.3   287  GLN287     -0.1245
     67  CA        51.1610    4.2780   57.6190 C.3   287  GLN287      0.1566
     68  C         51.1130    4.6010   56.1250 C.2   287  GLN287      0.2260
     69  O         51.1410    3.6860   55.3040 O.2   287  GLN287     -0.2867
     70  CB        49.7410    4.2920   58.1980 C.3   287  GLN287      0.0367
     71  CG        49.6530    3.6860   59.5940 C.3   287  GLN287      0.0905
     72  CD        48.3150    3.9570   60.2320 C.2   287  GLN287      0.2608
     73  OE1       47.2780    3.9940   59.5550 O.2   287  GLN287     -0.2717
     74  NE2       48.2970    4.1350   61.5450 N.am  287  GLN287     -0.0878
     75  N         51.9480    2.2940   52.8680 N.3   291  VAL291     -0.1245
     76  CA        50.9480    2.0800   51.8120 C.3   291  VAL291      0.1561
     77  C         51.4510    2.5890   50.4510 C.2   291  VAL291      0.2260
     78  O         51.3730    1.8460   49.4740 O.2   291  VAL291     -0.2867
     79  CB        49.5630    2.6720   52.1920 C.3   291  VAL291      0.0252
     80  CG1       48.6040    2.6710   51.0010 C.3   291  VAL291      0.0019
     81  CG2       48.9520    1.9110   53.3640 C.3   291  VAL291      0.0019
     82  N         54.1620    0.3640   48.7780 N.3   294  THR294     -0.1203
     83  CA        53.6120   -0.8100   48.0900 C.3   294  THR294      0.1994
     84  C         53.1610   -0.4240   46.6900 C.2   294  THR294      0.2617
     85  O         53.4890   -1.1440   45.7550 O.2   294  THR294     -0.2717
     86  CB        52.5080   -1.5000   48.9190 C.3   294  THR294      0.1784
     87  OG1       53.1280   -2.1750   50.0060 O.3   294  THR294     -0.2211
     88  CG2       51.6850   -2.5170   48.1090 C.3   294  THR294      0.0376
     89  N         52.4720    0.7280   46.5300 N.am  295  LEU295     -0.1979
     90  CA        52.0400    1.2010   45.2060 C.3   295  LEU295      0.1596
     91  C         53.2520    1.3320   44.2910 C.2   295  LEU295      0.2287
     92  O         53.2860    0.6930   43.2430 O.2   295  LEU295     -0.2864
     93  CB        51.2940    2.5430   45.3100 C.3   295  LEU295      0.0297
     94  CG        50.8550    3.1970   43.9980 C.3   295  LEU295      0.0022
     95  CD1       49.8620    2.3260   43.2520 C.3   295  LEU295      0.0001
     96  CD2       50.2630    4.5650   44.2590 C.3   295  LEU295      0.0001
     97  N         54.8370   -1.9580   43.0440 N.3   298  THR298     -0.1218
     98  CA        54.1170   -2.6950   41.9980 C.3   298  THR298      0.1862
     99  C         54.4120   -2.1280   40.5910 C.2   298  THR298      0.2287
    100  O         54.0060   -2.7490   39.6090 O.2   298  THR298     -0.2866
    101  CB        52.5940   -2.7470   42.2550 C.3   298  THR298      0.1770
    102  OG1       52.0010   -1.4610   42.0800 O.3   298  THR298     -0.2211
    103  CG2       52.2320   -3.3280   43.6150 C.3   298  THR298      0.0375
    104  N         56.4090   -4.0260   37.1930 N.3   301  CYS301     -0.1221
    105  CA        55.7610   -4.9370   36.2420 C.3   301  CYS301      0.1808
    106  C         54.8580   -4.2030   35.2250 C.2   301  CYS301      0.2601
    107  O         54.1950   -4.8860   34.4400 O.2   301  CYS301     -0.2717
    108  CB        54.9520   -5.9790   37.0110 C.3   301  CYS301      0.0970
    109  SG        53.3990   -5.3440   37.7040 S.3   301  CYS301     -0.0800
    110  N         54.8150   -2.8500   35.2260 N.am  302  ILE302     -0.1979
    111  CA        53.8640   -2.0850   34.4150 C.3   302  ILE302      0.1595
    112  C         54.3450   -1.7290   33.0030 C.2   302  ILE302      0.2287
    113  O         53.5000   -1.6640   32.1080 O.2   302  ILE302     -0.2864
    114  CB        53.4190   -0.8140   35.1950 C.3   302  ILE302      0.0276
    115  CG1       52.8550   -1.1750   36.5910 C.3   302  ILE302      0.0022
    116  CG2       52.3820   -0.0160   34.4180 C.3   302  ILE302      0.0022
    117  CD1       51.5420   -2.0120   36.6100 C.3   302  ILE302      0.0001
@<TRIPOS>BOND
     1   113   112    2
     2   112   111    1
     3   111   114    1
     4   111   110    1
     5   116   114    1
     6   107   106    2
     7   114   115    1
     8   106   110   am
     9   106   105    1
    10   105   108    1
    11   105   104    1
    12   115   117    1
    13   108   109    1
    14    63    65   ar
    15    63    61   ar
    16    65    64   ar
    17    61    60   ar
    18    51    50    2
    19    64    62   ar
    20   100    99    2
    21    60    62   ar
    22    60    59    1
    23    55    56    1
    24    50    49    1
    25    59    56    1
    26    49    48    1
    27    49    52    1
    28    99    98    1
    29    56    57    1
    30    53    52    1
    31    52    54    1
    32    98   101    1
    33    98    97    1
    34    57    58    2
    35   102   101    1
    36   101   103    1
    37    92    91    2
    38    95    94    1
    39    94    96    1
    40    94    93    1
    41    43    42    2
    42    91    90    1
    43    46    45    1
    44    90    93    1
    45    90    89    1
    46    42    41    1
    47    85    84    2
    48    45    44    1
    49    45    47    1
    50    41    44    1
    51    41    40    1
    52    89    84   am
    53    84    83    1
    54    83    82    1
    55    83    86    1
    56    88    86    1
    57    35    34    2
    58    86    87    1
    59    30    29    1
    60    27    26    2
    61    78    77    2
    62    34    33    1
    63    29    31    1
    64    29    28    1
    65    77    76    1
    66    33    32    1
    67    33    36    1
    68    26    32   am
    69    26    25    1
    70    80    79    1
    71    37    36    1
    72    37    38    1
    73    37    39    1
    74    25    28    1
    75    25    24    1
    76    76    79    1
    77    76    75    1
    78    79    81    1
    79    19    18    2
    80    22    20    1
    81    69    68    2
    82    18    17    1
    83    68    67    1
    84    20    17    1
    85    20    21    1
    86    17    16    1
    87    21    23    1
    88    67    70    1
    89    67    66    1
    90    15    13    1
    91    12    11    2
    92    70    71    1
    93    11    10    1
    94    13    10    1
    95    13    14    1
    96    10     9    1
    97    73    72    2
    98    71    72    1
    99     4     3    2
   100    72    74   am
   101     9     3   am
   102     3     2    1
   103     1     2    1
   104     2     5    1
   105     7     6   ar
   106     5     6    1
   107     6     8   ar
