@<TRIPOS>MOLECULE
tmp/6gpxA07.pdb
 107 106 0 0 0
SMALL
GASTEIGER

@<TRIPOS>ATOM
      1  N         67.3440    0.2820   44.7390 N.3    86  HIS86      -0.1241
      2  CA        67.6250    1.6580   44.3250 C.3    86  HIS86       0.1621
      3  C         68.2520    1.7600   42.9360 C.2    86  HIS86       0.2264
      4  O         67.8990    2.6830   42.2010 O.2    86  HIS86      -0.2867
      5  CB        68.4550    2.3950   45.3780 C.3    86  HIS86       0.0745
      6  CG        67.6640    2.6980   46.6100 C.ar   86  HIS86       0.0817
      7  ND1       67.6760    1.8530   47.6930 N.ar   86  HIS86      -0.2268
      8  CD2       66.8000    3.7110   46.8570 C.ar   86  HIS86       0.1154
      9  CE1       66.8770    2.4020   48.5900 C.ar   86  HIS86       0.1986
     10  NE2       66.3000    3.5050   48.1180 N.ar   86  HIS86      -0.2212
     11  N         66.3320    4.0780   40.3880 N.3    90  PHE90      -0.1241
     12  CA        66.9770    5.2110   39.7120 C.3    90  PHE90       0.1605
     13  C         67.2600    4.9290   38.2460 C.2    90  PHE90       0.2264
     14  O         66.9960    5.7900   37.4060 O.2    90  PHE90      -0.2867
     15  CB        68.2370    5.6710   40.4510 C.3    90  PHE90       0.0534
     16  CG        67.9100    6.3870   41.7380 C.ar   90  PHE90      -0.0203
     17  CD1       67.1980    7.5810   41.7270 C.ar   90  PHE90      -0.0042
     18  CD2       68.2770    5.8520   42.9640 C.ar   90  PHE90      -0.0042
     19  CE1       66.8500    8.2170   42.9190 C.ar   90  PHE90      -0.0003
     20  CE2       67.9430    6.5010   44.1520 C.ar   90  PHE90      -0.0003
     21  CZ        67.2270    7.6790   44.1220 C.ar   90  PHE90      -0.0000
     22  N         75.6490    5.3600   41.9090 N.3   127  PHE127     -0.1227
     23  CA        76.0660    6.4400   42.8200 C.3   127  PHE127      0.1736
     24  C         74.9150    6.9070   43.7070 C.2   127  PHE127      0.2595
     25  O         75.0870    7.0420   44.9130 O.2   127  PHE127     -0.2718
     26  CB        76.5950    7.6580   42.0400 C.3   127  PHE127      0.0547
     27  CG        77.8700    7.5060   41.2440 C.ar  127  PHE127     -0.0202
     28  CD1       78.8760    6.6400   41.6570 C.ar  127  PHE127     -0.0042
     29  CD2       78.1210    8.3260   40.1510 C.ar  127  PHE127     -0.0042
     30  CE1       80.0740    6.5520   40.9520 C.ar  127  PHE127     -0.0003
     31  CE2       79.3180    8.2300   39.4460 C.ar  127  PHE127     -0.0003
     32  CZ        80.3020    7.3760   39.8780 C.ar  127  PHE127     -0.0000
     33  N         73.7400    7.1330   43.1120 N.am  128  ALA128     -0.1980
     34  CA        72.5440    7.5710   43.8290 C.3   128  ALA128      0.1597
     35  C         72.0790    6.5520   44.8860 C.2   128  ALA128      0.2287
     36  O         71.4380    6.9460   45.8550 O.2   128  ALA128     -0.2864
     37  CB        71.4200    7.8520   42.8410 C.3   128  ALA128      0.0319
     38  N         74.2280    4.5170   46.7560 N.3   130  VAL130     -0.1231
     39  CA        75.2370    4.3330   47.8160 C.3   130  VAL130      0.1678
     40  C         74.7100    4.7530   49.2110 C.2   130  VAL130      0.2434
     41  O         74.7590    3.9150   50.1070 O.2   130  VAL130     -0.2733
     42  CB        76.5990    4.9990   47.4580 C.3   130  VAL130      0.0265
     43  CG1       77.5220    5.0950   48.6770 C.3   130  VAL130      0.0020
     44  CG2       77.2860    4.2280   46.3370 C.3   130  VAL130      0.0020
     45  N         74.1600    5.9750   49.4180 N.am  131  PRO131     -0.2718
     46  CA        73.6260    6.3320   50.7480 C.3   131  PRO131      0.1535
     47  C         72.7080    5.2810   51.3650 C.2   131  PRO131      0.2598
     48  O         72.9080    4.8960   52.5120 O.2   131  PRO131     -0.2715
     49  CB        72.8650    7.6250   50.4710 C.3   131  PRO131      0.0310
     50  CG        73.6120    8.2470   49.3590 C.3   131  PRO131      0.0237
     51  CD        74.0060    7.0970   48.4710 C.3   131  PRO131      0.0939
     52  N         71.7450    4.7730   50.5870 N.am  132  ASN132     -0.1973
     53  CA        70.8340    3.7300   51.0620 C.3   132  ASN132      0.1688
     54  C         71.5650    2.4240   51.3730 C.2   132  ASN132      0.2292
     55  O         71.2380    1.7950   52.3690 O.2   132  ASN132     -0.2864
     56  CB        69.7020    3.4990   50.0700 C.3   132  ASN132      0.1181
     57  CG        68.7200    4.6360   50.0800 C.2   132  ASN132      0.2629
     58  OD1       68.8740    5.6120   49.3510 O.2   132  ASN132     -0.2716
     59  ND2       67.7040    4.5470   50.9260 N.am  132  ASN132     -0.0877
     60  N         68.6580   14.8260   53.7350 N.3   158  PHE158     -0.1227
     61  CA        69.3670   14.7380   52.4560 C.3   158  PHE158      0.1736
     62  C         68.7280   13.6790   51.5600 C.2   158  PHE158      0.2595
     63  O         68.3810   13.9720   50.4190 O.2   158  PHE158     -0.2718
     64  CB        70.8500   14.4140   52.6970 C.3   158  PHE158      0.0547
     65  CG        71.6150   13.9750   51.4790 C.ar  158  PHE158     -0.0202
     66  CD1       72.1960   14.9060   50.6340 C.ar  158  PHE158     -0.0042
     67  CD2       71.8150   12.6260   51.2140 C.ar  158  PHE158     -0.0042
     68  CE1       72.9230   14.4990   49.5230 C.ar  158  PHE158     -0.0003
     69  CE2       72.5200   12.2210   50.0850 C.ar  158  PHE158     -0.0003
     70  CZ        73.0750   13.1610   49.2490 C.ar  158  PHE158     -0.0000
     71  N         68.5880   12.4490   52.0730 N.am  159  HIS159     -0.1975
     72  CA        67.9770   11.3390   51.3320 C.3   159  HIS159      0.1656
     73  C         66.6160   11.7330   50.7380 C.2   159  HIS159      0.2291
     74  O         66.3670   11.5090   49.5540 O.2   159  HIS159     -0.2864
     75  CB        67.7940   10.1110   52.2430 C.3   159  HIS159      0.0771
     76  CG        66.9000    9.0710   51.6410 C.ar  159  HIS159      0.0820
     77  ND1       65.5980    8.9040   52.0730 N.ar  159  HIS159     -0.2267
     78  CD2       67.1330    8.2220   50.6140 C.ar  159  HIS159      0.1154
     79  CE1       65.0870    7.9500   51.3120 C.ar  159  HIS159      0.1986
     80  NE2       65.9710    7.5230   50.4080 N.ar  159  HIS159     -0.2212
     81  N         67.0040   14.6070   48.0760 N.3   162  MET162     -0.1230
     82  CA        67.7020   14.0940   46.8860 C.3   162  MET162      0.1702
     83  C         66.8440   13.0890   46.1240 C.2   162  MET162      0.2592
     84  O         66.9360   13.0270   44.9030 O.2   162  MET162     -0.2718
     85  CB        69.0700   13.4810   47.2430 C.3   162  MET162      0.0401
     86  CG        70.1410   13.7200   46.1950 C.3   162  MET162      0.0596
     87  SD        70.3560   15.4350   45.6310 S.3   162  MET162     -0.1393
     88  CE        70.7030   16.2290   47.1140 C.3   162  MET162      0.0692
     89  N         66.0030   12.3170   46.8290 N.am  163  ARG163     -0.1980
     90  CA        65.0830   11.3720   46.1920 C.3   163  ARG163      0.1597
     91  C         64.0050   12.1540   45.4330 C.2   163  ARG163      0.2287
     92  O         63.6620   11.7760   44.3140 O.2   163  ARG163     -0.2864
     93  CB        64.4420   10.4410   47.2370 C.3   163  ARG163      0.0334
     94  CG        63.4010    9.5030   46.6430 C.3   163  ARG163      0.0492
     95  CD        63.4720    8.0940   47.1750 C.3   163  ARG163      0.2205
     96  NE        62.5870    7.2070   46.4190 N.pl3 163  ARG163     -0.0865
     97  CZ        62.4840    5.8960   46.6160 C.cat 163  ARG163      0.5346
     98  NH1       63.2080    5.2980   47.5590 N.pl3 163  ARG163      0.1354
     99  NH2       61.6520    5.1730   45.8790 N.pl3 163  ARG163      0.1354
    100  N         65.7790   13.8570   42.1740 N.3   166  LEU166     -0.1245
    101  CA        66.0360   12.8750   41.1100 C.3   166  LEU166      0.1561
    102  C         64.7960   12.1020   40.6550 C.2   166  LEU166      0.2260
    103  O         64.7400   11.6850   39.4970 O.2   166  LEU166     -0.2867
    104  CB        67.1090   11.8660   41.5580 C.3   166  LEU166      0.0270
    105  CG        68.4850   12.4260   41.8900 C.3   166  LEU166      0.0019
    106  CD1       69.3660   11.3470   42.4960 C.3   166  LEU166      0.0001
    107  CD2       69.1490   13.0130   40.6700 C.3   166  LEU166      0.0001
@<TRIPOS>BOND
     1    14    13    2
     2    13    12    1
     3    31    32   ar
     4    31    29   ar
     5   103   102    2
     6    12    11    1
     7    12    15    1
     8    32    30   ar
     9    29    27   ar
    10    15    16    1
    11   102   101    1
    12   107   105    1
    13    30    28   ar
    14   101   104    1
    15   101   100    1
    16    27    28   ar
    17    27    26    1
    18   104   105    1
    19    17    16   ar
    20    17    19   ar
    21    16    18   ar
    22   105   106    1
    23    22    23    1
    24    26    23    1
    25     4     3    2
    26    23    24    1
    27    37    34    1
    28    19    21   ar
    29     3     2    1
    30    18    20   ar
    31    33    24   am
    32    33    34    1
    33    24    25    2
    34    34    35    1
    35    21    20   ar
    36    92    91    2
    37     2     1    1
    38     2     5    1
    39    35    36    2
    40    84    83    2
    41     5     6    1
    42    91    90    1
    43    87    86    1
    44    87    88    1
    45    99    97    1
    46    83    89   am
    47    83    82    1
    48    90    89    1
    49    90    93    1
    50    86    85    1
    51    44    42    1
    52    96    97    2
    53    96    95    1
    54     6     8   ar
    55     6     7   ar
    56    97    98    1
    57    94    95    1
    58    94    93    1
    59    38    39    1
    60     8    10   ar
    61    82    85    1
    62    82    81    1
    63    42    39    1
    64    42    43    1
    65     7     9   ar
    66    39    40    1
    67    10     9   ar
    68    51    50    1
    69    51    45    1
    70    40    45   am
    71    40    41    2
    72    70    68   ar
    73    70    69   ar
    74    58    57    2
    75    50    49    1
    76    45    46    1
    77    68    66   ar
    78    74    73    2
    79    56    57    1
    80    56    53    1
    81    57    59   am
    82    69    67   ar
    83    80    78   ar
    84    80    79   ar
    85    63    62    2
    86    49    46    1
    87    52    53    1
    88    52    47   am
    89    78    76   ar
    90    66    65   ar
    91    73    72    1
    92    46    47    1
    93    53    54    1
    94    67    65   ar
    95    79    77   ar
    96    72    71    1
    97    72    75    1
    98    47    48    2
    99    54    55    2
   100    65    64    1
   101    62    71   am
   102    62    61    1
   103    76    77   ar
   104    76    75    1
   105    61    64    1
   106    61    60    1
