@<TRIPOS>MOLECULE
tmp/6gpxA08.pdb
 100 93 0 0 0
SMALL
GASTEIGER

@<TRIPOS>ATOM
      1  N         54.2130    9.1240   32.4760 N.3   252  ILE252     -0.1245
      2  CA        52.9940    9.4540   33.2190 C.3   252  ILE252      0.1561
      3  C         52.6690    8.3680   34.2340 C.2   252  ILE252      0.2260
      4  O         52.3770    8.6880   35.3870 O.2   252  ILE252     -0.2867
      5  CB        51.8010    9.7120   32.2680 C.3   252  ILE252      0.0252
      6  CG1       52.0490   10.9460   31.3730 C.3   252  ILE252      0.0019
      7  CG2       50.4840    9.8470   33.0510 C.3   252  ILE252      0.0019
      8  CD1       52.1570   12.2300   32.0490 C.3   252  ILE252      0.0001
      9  N         54.9870    8.5400   37.2710 N.3   255  PHE255     -0.1227
     10  CA        54.5780    9.5720   38.2320 C.3   255  PHE255      0.1736
     11  C         53.4040    9.1190   39.0780 C.2   255  PHE255      0.2595
     12  O         53.4020    9.3650   40.2780 O.2   255  PHE255     -0.2718
     13  CB        54.1990   10.8790   37.5210 C.3   255  PHE255      0.0547
     14  CG        55.3740   11.6840   37.0360 C.ar  255  PHE255     -0.0202
     15  CD1       56.3310   12.1540   37.9260 C.ar  255  PHE255     -0.0042
     16  CD2       55.4790   12.0540   35.7040 C.ar  255  PHE255     -0.0042
     17  CE1       57.3990   12.9230   37.4820 C.ar  255  PHE255     -0.0003
     18  CE2       56.5400   12.8390   35.2670 C.ar  255  PHE255     -0.0003
     19  CZ        57.4870   13.2680   36.1590 C.ar  255  PHE255     -0.0000
     20  N         52.4010    8.4760   38.4520 N.am  256  LEU256     -0.1980
     21  CA        51.2240    7.9780   39.1630 C.3   256  LEU256      0.1596
     22  C         51.5980    6.9870   40.2750 C.2   256  LEU256      0.2287
     23  O         51.0960    7.1070   41.3970 O.2   256  LEU256     -0.2864
     24  CB        50.2290    7.3230   38.1850 C.3   256  LEU256      0.0297
     25  CG        49.3200    8.2930   37.4280 C.3   256  LEU256      0.0022
     26  CD1       48.8330    7.6880   36.1190 C.3   256  LEU256      0.0001
     27  CD2       48.1170    8.6840   38.2720 C.3   256  LEU256      0.0001
     28  N         54.9930    9.1560   42.6800 N.3   259  THR259     -0.1204
     29  CA        54.8700   10.4910   43.2880 C.3   259  THR259      0.1979
     30  C         54.2210   10.4560   44.6790 C.2   259  THR259      0.2459
     31  O         54.7030   11.1680   45.5600 O.2   259  THR259     -0.2732
     32  CB        54.1730   11.4760   42.3570 C.3   259  THR259      0.1783
     33  OG1       54.8890   11.5110   41.1300 O.3   259  THR259     -0.2211
     34  CG2       54.0940   12.8710   42.9390 C.3   259  THR259      0.0376
     35  N         53.1670    9.6450   44.9290 N.am  260  PRO260     -0.2728
     36  CA        52.5820    9.6130   46.2850 C.3   260  PRO260      0.1401
     37  C         53.6120    9.3060   47.3770 C.2   260  PRO260      0.2269
     38  O         53.6470   10.0080   48.3820 O.2   260  PRO260     -0.2865
     39  CB        51.4970    8.5330   46.1780 C.3   260  PRO260      0.0296
     40  CG        51.1540    8.4900   44.7260 C.3   260  PRO260      0.0237
     41  CD        52.4450    8.7320   44.0170 C.3   260  PRO260      0.0939
     42  N         56.1750   12.3160   47.8610 N.3   263  ILE263     -0.1231
     43  CA        55.5510   13.4160   48.6150 C.3   263  ILE263      0.1692
     44  C         55.3390   13.0280   50.0850 C.2   263  ILE263      0.2591
     45  O         55.5160   13.8710   50.9610 O.2   263  ILE263     -0.2718
     46  CB        54.2390   13.8970   47.9350 C.3   263  ILE263      0.0266
     47  CG1       54.5780   14.5560   46.5730 C.3   263  ILE263      0.0019
     48  CG2       53.4560   14.8690   48.8500 C.3   263  ILE263      0.0020
     49  CD1       53.4130   14.8630   45.7250 C.3   263  ILE263      0.0001
     50  N         54.9570   11.7690   50.3610 N.am  264  VAL264     -0.1980
     51  CA        54.7430   11.3060   51.7360 C.3   264  VAL264      0.1595
     52  C         56.0590   11.3290   52.5320 C.2   264  VAL264      0.2287
     53  O         56.0360   11.7960   53.6660 O.2   264  VAL264     -0.2864
     54  CB        54.0080    9.9430   51.7830 C.3   264  VAL264      0.0276
     55  CG1       54.1180    9.2890   53.1570 C.3   264  VAL264      0.0022
     56  CG2       52.5420   10.1180   51.4000 C.3   264  VAL264      0.0022
     57  N         56.7640   15.0470   53.2630 N.3   267  LEU267     -0.1245
     58  CA        55.8840   15.4660   54.3650 C.3   267  LEU267      0.1561
     59  C         56.2930   14.8590   55.7130 C.2   267  LEU267      0.2260
     60  O         56.2590   15.5590   56.7250 O.2   267  LEU267     -0.2867
     61  CB        54.4190   15.0890   54.0630 C.3   267  LEU267      0.0270
     62  CG        53.5520   16.1070   53.3100 C.3   267  LEU267      0.0019
     63  CD1       54.3150   16.8670   52.2280 C.3   267  LEU267      0.0001
     64  CD2       52.3590   15.4270   52.7120 C.3   267  LEU267      0.0001
     65  N         52.8230   19.4440   60.2850 N.3   276  LEU276     -0.1245
     66  CA        52.2920   18.1070   60.5420 C.3   276  LEU276      0.1561
     67  C         53.0880   17.4320   61.6820 C.2   276  LEU276      0.2260
     68  O         53.1800   16.2020   61.7330 O.2   276  LEU276     -0.2867
     69  CB        52.4040   17.2890   59.2360 C.3   276  LEU276      0.0270
     70  CG        51.7770   17.9100   57.9790 C.3   276  LEU276      0.0019
     71  CD1       52.1840   17.1450   56.7400 C.3   276  LEU276      0.0001
     72  CD2       50.2630   17.9580   58.0750 C.3   276  LEU276      0.0001
     73  N         49.2190   12.9750   63.2530 N.3   281  SER281     -0.1217
     74  CA        49.7360   13.1570   61.9090 C.3   281  SER281      0.1889
     75  C         50.9910   12.3230   61.5960 C.2   281  SER281      0.2288
     76  O         51.1280   11.8500   60.4710 O.2   281  SER281     -0.2866
     77  CB        50.0090   14.6350   61.6690 C.3   281  SER281      0.2089
     78  OG        50.2130   14.8770   60.2890 O.3   281  SER281     -0.2183
     79  N         49.8320    8.7140   60.9080 N.3   284  GLN284     -0.1231
     80  CA        49.2000    8.6210   59.5890 C.3   284  GLN284      0.1698
     81  C         50.2580    8.6400   58.4770 C.2   284  GLN284      0.2592
     82  O         50.1380    7.8810   57.5180 O.2   284  GLN284     -0.2718
     83  CB        48.1950    9.7660   59.3560 C.3   284  GLN284      0.0381
     84  CG        46.8510    9.5620   60.0300 C.3   284  GLN284      0.0905
     85  CD        45.9970   10.8170   60.0100 C.2   284  GLN284      0.2608
     86  OE1       46.1770   11.7260   59.1980 O.2   284  GLN284     -0.2717
     87  NE2       45.0230   10.8850   60.8850 N.am  284  GLN284     -0.0878
     88  N         51.2810    9.5090   58.6090 N.am  285  LEU285     -0.1980
     89  CA        52.3830    9.6060   57.6480 C.3   285  LEU285      0.1596
     90  C         53.2490    8.3320   57.6410 C.2   285  LEU285      0.2287
     91  O         53.7450    7.9550   56.5790 O.2   285  LEU285     -0.2864
     92  CB        53.2430   10.8540   57.9130 C.3   285  LEU285      0.0297
     93  CG        52.5790   12.1860   57.5330 C.3   285  LEU285      0.0022
     94  CD1       53.1840   13.3520   58.2960 C.3   285  LEU285      0.0001
     95  CD2       52.6770   12.4490   56.0400 C.3   285  LEU285      0.0001
     96  N         51.0440    5.9020   55.7720 N.3   288  ALA288     -0.1245
     97  CA        51.0260    6.3470   54.3840 C.3   288  ALA288      0.1562
     98  C         52.3330    5.9660   53.6870 C.2   288  ALA288      0.2260
     99  O         52.2840    5.5260   52.5400 O.2   288  ALA288     -0.2867
    100  CB        50.8090    7.8470   54.3080 C.3   288  ALA288      0.0290
@<TRIPOS>BOND
     1     6     8    1
     2     6     5    1
     3     5     7    1
     4     5     2    1
     5     1     2    1
     6     2     3    1
     7     3     4    2
     8    18    16   ar
     9    18    19   ar
    10    16    14   ar
    11    26    25    1
    12    19    17   ar
    13    14    13    1
    14    14    15   ar
    15     9    10    1
    16    25    24    1
    17    25    27    1
    18    17    15   ar
    19    13    10    1
    20    24    21    1
    21    10    11    1
    22    20    11   am
    23    20    21    1
    24    11    12    2
    25    21    22    1
    26    22    23    2
    27    33    32    1
    28    32    34    1
    29    32    29    1
    30    28    29    1
    31    29    30    1
    32    41    40    1
    33    41    35    1
    34    30    35   am
    35    30    31    2
    36    40    39    1
    37    35    36    1
    38    49    47    1
    39    39    36    1
    40    36    37    1
    41    47    46    1
    42    37    38    2
    43    42    43    1
    44    46    43    1
    45    46    48    1
    46    43    44    1
    47    44    50   am
    48    44    45    2
    49    50    51    1
    50    56    54    1
    51    51    54    1
    52    51    52    1
    53    54    55    1
    54    63    62    1
    55    52    53    2
    56    99    98    2
    57    64    62    1
    58    57    58    1
    59    62    61    1
    60    98    97    1
    61    61    58    1
    62   100    97    1
    63    58    59    1
    64    97    96    1
    65    59    60    2
    66    95    93    1
    67    91    90    2
    68    71    70    1
    69    82    81    2
    70    93    92    1
    71    93    94    1
    72    90    89    1
    73    89    92    1
    74    89    88    1
    75    70    72    1
    76    70    69    1
    77    81    88   am
    78    81    80    1
    79    86    85    2
    80    69    66    1
    81    83    80    1
    82    83    84    1
    83    80    79    1
    84    85    84    1
    85    85    87   am
    86    65    66    1
    87    78    77    1
    88    76    75    2
    89    66    67    1
    90    75    74    1
    91    77    74    1
    92    67    68    2
    93    74    73    1
