@<TRIPOS>MOLECULE
tmp/6gqdA00.pdb
 140 136 0 0 0
SMALL
GASTEIGER

@<TRIPOS>ATOM
      1  N         75.8620  120.4870   -7.7860 N.3    49  PRO49      -0.2102
      2  CA        75.7530  121.5080   -6.7290 C.3    49  PRO49       0.1504
      3  C         76.8350  121.4500   -5.6540 C.2    49  PRO49       0.2575
      4  O         76.7690  122.2450   -4.7030 O.2    49  PRO49      -0.2718
      5  CB        74.3590  121.2440   -6.1280 C.3    49  PRO49       0.0282
      6  CG        74.1010  119.8030   -6.4170 C.3    49  PRO49       0.0208
      7  CD        74.7690  119.4970   -7.7240 C.3    49  PRO49       0.0893
      8  N         77.8160  120.5420   -5.7460 N.am   50  LEU50      -0.1980
      9  CA        78.9830  120.5550   -4.8790 C.3    50  LEU50       0.1596
     10  C         80.1990  121.2280   -5.5270 C.2    50  LEU50       0.2287
     11  O         81.2190  121.3920   -4.8540 O.2    50  LEU50      -0.2864
     12  CB        79.3460  119.1040   -4.4430 C.3    50  LEU50       0.0297
     13  CG        78.5930  118.5930   -3.1960 C.3    50  LEU50       0.0022
     14  CD1       77.0740  118.6860   -3.3260 C.3    50  LEU50       0.0001
     15  CD2       79.0000  117.1430   -2.8160 C.3    50  LEU50       0.0001
     16  N         73.0520  125.8460   -5.8320 N.3    56  ARG56      -0.1231
     17  CA        72.4610  124.7850   -5.0290 C.3    56  ARG56       0.1694
     18  C         70.9210  124.8930   -5.0040 C.2    56  ARG56       0.2591
     19  O         70.3260  125.8330   -5.5430 O.2    56  ARG56      -0.2718
     20  CB        73.0120  124.8120   -3.5950 C.3    56  ARG56       0.0321
     21  CG        74.5360  124.7470   -3.4570 C.3    56  ARG56       0.0489
     22  CD        74.9390  124.2130   -2.0890 C.3    56  ARG56       0.2205
     23  NE        74.3750  124.9610   -0.9560 N.pl3  56  ARG56      -0.0865
     24  CZ        74.8850  126.0690   -0.4290 C.cat  56  ARG56       0.5346
     25  NH1       75.9840  126.6330   -0.9250 N.pl3  56  ARG56       0.1354
     26  NH2       74.2800  126.6380    0.6060 N.pl3  56  ARG56       0.1354
     27  N         70.2720  123.9280   -4.3150 N.am   57  ALA57      -0.1980
     28  CA        68.8070  123.8570   -4.3020 C.3    57  ALA57       0.1597
     29  C         68.1490  125.0130   -3.5540 C.2    57  ALA57       0.2287
     30  O         66.9370  125.2550   -3.7400 O.2    57  ALA57      -0.2864
     31  CB        68.3740  122.5170   -3.6930 C.3    57  ALA57       0.0319
     32  N         79.0000  123.7840    4.0150 N.3    71  PHE71      -0.1241
     33  CA        77.6920  124.4270    3.8830 C.3    71  PHE71       0.1605
     34  C         76.6020  123.5970    4.5540 C.2    71  PHE71       0.2264
     35  O         76.7450  122.3900    4.7640 O.2    71  PHE71      -0.2867
     36  CB        77.3580  124.7220    2.3860 C.3    71  PHE71       0.0534
     37  CG        77.1850  123.4950    1.5140 C.ar   71  PHE71      -0.0203
     38  CD1       78.2680  122.9030    0.8770 C.ar   71  PHE71      -0.0042
     39  CD2       75.9210  122.9710    1.2880 C.ar   71  PHE71      -0.0042
     40  CE1       78.0960  121.7790    0.0630 C.ar   71  PHE71      -0.0003
     41  CE2       75.7490  121.8460    0.4820 C.ar   71  PHE71      -0.0003
     42  CZ        76.8330  121.2640   -0.1370 C.ar   71  PHE71      -0.0000
     43  N         73.3000  121.5090    4.8120 N.3    73  ASN73      -0.1225
     44  CA        72.5890  120.6130    3.9150 C.3    73  ASN73       0.1785
     45  C         71.2360  121.2320    3.5540 C.2    73  ASN73       0.2597
     46  O         70.4820  121.6520    4.4350 O.2    73  ASN73      -0.2718
     47  CB        72.4050  119.2470    4.5930 C.3    73  ASN73       0.1169
     48  CG        72.1150  118.1280    3.6060 C.2    73  ASN73       0.2627
     49  OD1       71.1960  118.2160    2.8010 O.2    73  ASN73      -0.2716
     50  ND2       72.9000  117.0520    3.6710 N.am   73  ASN73      -0.0877
     51  N         70.9160  121.2720    2.2530 N.am   74  ASP74      -0.1960
     52  CA        69.6200  121.8040    1.8250 C.3    74  ASP74       0.1840
     53  C         68.4530  120.8380    2.0470 C.2    74  ASP74       0.2622
     54  O         67.2870  121.2600    1.9130 O.2    74  ASP74      -0.2715
     55  CB        69.6770  122.2060    0.3430 C.3    74  ASP74       0.1450
     56  CG        70.6820  123.3010    0.0660 C.2    74  ASP74       0.3671
     57  OD1       70.5670  124.3590    0.6900 O.co2  74  ASP74      -0.2456
     58  OD2       71.6230  123.0630   -0.7430 O.co2  74  ASP74      -0.2456
     59  N         68.7290  119.5760    2.4130 N.am   75  PHE75      -0.1974
     60  CA        67.7100  118.5620    2.7140 C.3    75  PHE75       0.1639
     61  C         68.0820  117.8800    4.0300 C.2    75  PHE75       0.2290
     62  O         68.4020  116.6760    4.0690 O.2    75  PHE75      -0.2864
     63  CB        67.5990  117.5570    1.5630 C.3    75  PHE75       0.0560
     64  CG        67.4100  118.2130    0.2100 C.ar   75  PHE75      -0.0200
     65  CD1       66.1520  118.6060   -0.1870 C.ar   75  PHE75      -0.0042
     66  CD2       68.4840  118.4410   -0.6490 C.ar   75  PHE75      -0.0042
     67  CE1       65.9540  119.2460   -1.4180 C.ar   75  PHE75      -0.0003
     68  CE2       68.2820  119.0560   -1.8810 C.ar   75  PHE75      -0.0003
     69  CZ        67.0200  119.4670   -2.2580 C.ar   75  PHE75      -0.0000
     70  N         77.4380  119.6250    4.8320 N.3   104  VAL104     -0.1245
     71  CA        78.1980  118.9360    3.7850 C.3   104  VAL104      0.1561
     72  C         79.5750  119.5820    3.7200 C.2   104  VAL104      0.2260
     73  O         79.6620  120.8140    3.7490 O.2   104  VAL104     -0.2867
     74  CB        77.4910  119.0390    2.4230 C.3   104  VAL104      0.0252
     75  CG1       78.2620  118.3150    1.3260 C.3   104  VAL104      0.0019
     76  CG2       76.0410  118.5140    2.5310 C.3   104  VAL104      0.0019
     77  N         81.0780  111.6610    9.0690 N.3   147  PHE147     -0.1241
     78  CA        81.0840  110.3880    8.3310 C.3   147  PHE147      0.1605
     79  C         81.2330  110.6480    6.8320 C.2   147  PHE147      0.2264
     80  O         80.7960  111.6920    6.3270 O.2   147  PHE147     -0.2867
     81  CB        79.8240  109.5220    8.6180 C.3   147  PHE147      0.0534
     82  CG        78.5140  110.0680    8.0670 C.ar  147  PHE147     -0.0203
     83  CD1       78.0500  109.6780    6.8220 C.ar  147  PHE147     -0.0042
     84  CD2       77.7380  110.9400    8.8230 C.ar  147  PHE147     -0.0042
     85  CE1       76.8240  110.1480    6.3290 C.ar  147  PHE147     -0.0003
     86  CE2       76.5180  111.4190    8.3380 C.ar  147  PHE147     -0.0003
     87  CZ        76.0720  111.0130    7.0860 C.ar  147  PHE147     -0.0000
     88  N         80.4030  108.6270    3.1730 N.3   149  ASN149     -0.1240
     89  CA        79.7080  107.5260    2.5020 C.3   149  ASN149      0.1653
     90  C         80.1060  107.5650    1.0300 C.2   149  ASN149      0.2266
     91  O         79.6440  108.4360    0.2740 O.2   149  ASN149     -0.2867
     92  CB        78.1950  107.6610    2.7050 C.3   149  ASN149      0.1155
     93  CG        77.4450  106.4260    2.3280 C.2   149  ASN149      0.2627
     94  OD1       77.7040  105.3290    2.8540 O.2   149  ASN149     -0.2716
     95  ND2       76.5140  106.5740    1.4050 N.am  149  ASN149     -0.0877
     96  N         75.5310  106.5290   -2.5960 N.3   156  CYS156     -0.1221
     97  CA        75.9840  107.8920   -2.8640 C.3   156  CYS156      0.1808
     98  C         75.9180  108.1470   -4.3670 C.2   156  CYS156      0.2602
     99  O         76.6530  107.5130   -5.1370 O.2   156  CYS156     -0.2717
    100  CB        77.4170  108.0640   -2.3540 C.3   156  CYS156      0.0970
    101  SG        78.1740  109.6680   -2.8080 S.3   156  CYS156     -0.0800
    102  N         75.0900  109.0970   -4.7880 N.am  157  SER157     -0.1938
    103  CA        74.9490  109.3590   -6.2130 C.3   157  SER157      0.2055
    104  C         75.8210  110.5130   -6.7190 C.2   157  SER157      0.2643
    105  O         76.0090  110.6370   -7.9350 O.2   157  SER157     -0.2714
    106  CB        73.4890  109.6670   -6.5830 C.3   157  SER157      0.2130
    107  OG        72.9750  110.7320   -5.8090 O.3   157  SER157     -0.2179
    108  N         76.3900  111.3270   -5.8350 N.am  158  ASN158     -0.1971
    109  CA        77.1770  112.4540   -6.3010 C.3   158  ASN158      0.1688
    110  C         78.6480  112.1060   -6.1120 C.2   158  ASN158      0.2292
    111  O         79.0930  111.9490   -4.9630 O.2   158  ASN158     -0.2864
    112  CB        76.8190  113.7450   -5.5470 C.3   158  ASN158      0.1181
    113  CG        77.5020  114.9720   -6.1550 C.2   158  ASN158      0.2629
    114  OD1       78.6420  114.8840   -6.6130 O.2   158  ASN158     -0.2716
    115  ND2       76.8030  116.1140   -6.1770 N.am  158  ASN158     -0.0877
    116  N         83.6280  114.2610   -0.8680 N.3   162  HIS162     -0.1226
    117  CA        83.0240  114.9700    0.2580 C.3   162  HIS162      0.1752
    118  C         82.6970  114.0330    1.4220 C.2   162  HIS162      0.2596
    119  O         82.6470  112.7990    1.2720 O.2   162  HIS162     -0.2718
    120  CB        81.7180  115.6950   -0.1890 C.3   162  HIS162      0.0759
    121  CG        80.5530  114.7580   -0.4640 C.ar  162  HIS162      0.0818
    122  ND1       80.3840  114.0890   -1.6530 N.ar  162  HIS162     -0.2268
    123  CD2       79.4730  114.4370    0.2960 C.ar  162  HIS162      0.1154
    124  CE1       79.2550  113.3840   -1.6080 C.ar  162  HIS162      0.1986
    125  NE2       78.6750  113.5780   -0.4310 N.ar  162  HIS162     -0.2212
    126  N         82.4150  114.6380    2.5860 N.am  163  CYS163     -0.1956
    127  CA        81.7980  113.9620    3.7230 C.3   163  CYS163      0.1843
    128  C         80.5970  114.7680    4.2370 C.2   163  CYS163      0.2625
    129  O         80.2500  115.8180    3.6820 O.2   163  CYS163     -0.2714
    130  CB        82.8130  113.7260    4.8610 C.3   163  CYS163      0.0997
    131  SG        83.4420  115.2120    5.7090 S.3   163  CYS163     -0.0797
    132  N         79.9870  114.2710    5.3270 N.am  164  GLN164     -0.1977
    133  CA        78.8960  114.9400    6.0320 C.3   164  GLN164      0.1601
    134  C         79.2200  115.0420    7.5200 C.2   164  GLN164      0.2287
    135  O         80.0510  114.2870    8.0450 O.2   164  GLN164     -0.2864
    136  CB        77.5540  114.1870    5.8280 C.3   164  GLN164      0.0394
    137  CG        77.0870  114.1270    4.3890 C.3   164  GLN164      0.0908
    138  CD        75.6880  113.5530    4.2620 C.2   164  GLN164      0.2608
    139  OE1       74.7470  114.0210    4.9260 O.2   164  GLN164     -0.2717
    140  NE2       75.5480  112.4930    3.4470 N.am  164  GLN164     -0.0878
@<TRIPOS>BOND
     1   105   104    2
     2     1     7    1
     3     1     2    1
     4     7     6    1
     5     2     5    1
     6     2     3    1
     7   104   103    1
     8   104   108   am
     9   114   113    2
    10   106   103    1
    11   106   107    1
    12     6     5    1
    13   109   110    1
    14   109   108    1
    15   109   112    1
    16   103   102    1
    17   115   113   am
    18   113   112    1
    19   110   111    2
    20    16    17    1
    21     8     3   am
    22     8     9    1
    23     3     4    2
    24    19    18    2
    25    10     9    1
    26    10    11    2
    27    99    98    2
    28    17    18    1
    29    17    20    1
    30    18    27   am
    31     9    12    1
    32   102    98   am
    33    12    13    1
    34    98    97    1
    35    27    28    1
    36    28    31    1
    37    28    29    1
    38    30    29    2
    39    20    21    1
    40    21    22    1
    41    14    13    1
    42    13    15    1
    43    97    96    1
    44    97   100    1
    45   101   100    1
    46    69    68   ar
    47    69    67   ar
    48    22    23    1
    49    68    66   ar
    50   122   124   ar
    51   122   121   ar
    52   124   125   ar
    53    67    65   ar
    54    23    24    2
    55    25    24    1
    56   116   117    1
    57    58    56   ar
    58    66    64   ar
    59   121   120    1
    60   121   123   ar
    61   125   123   ar
    62    24    26    1
    63   120   117    1
    64    65    64   ar
    65    42    40   ar
    66    42    41   ar
    67    40    38   ar
    68    56    55    1
    69    56    57   ar
    70    64    63    1
    71   117   118    1
    72    91    90    2
    73    55    52    1
    74    41    39   ar
    75    38    37   ar
    76    90    89    1
    77   119   118    2
    78    39    37   ar
    79    75    74    1
    80    95    93   am
    81   118   126   am
    82    37    36    1
    83    63    60    1
    84    52    53    1
    85    52    51    1
    86    54    53    2
    87    53    59   am
    88    51    45   am
    89    93    92    1
    90    93    94    2
    91    36    33    1
    92    59    60    1
    93    74    76    1
    94    74    71    1
    95    89    92    1
    96    89    88    1
    97   126   127    1
    98    60    61    1
    99    49    48    2
   100   140   138   am
   101    45    44    1
   102    45    46    2
   103    48    50   am
   104    48    47    1
   105   129   128    2
   106    72    73    2
   107    72    71    1
   108   127   128    1
   109   127   130    1
   110    71    70    1
   111    33    32    1
   112    33    34    1
   113    44    47    1
   114    44    43    1
   115    61    62    2
   116   128   132   am
   117   138   137    1
   118   138   139    2
   119   137   136    1
   120    34    35    2
   121   130   131    1
   122   132   133    1
   123   136   133    1
   124   133   134    1
   125    80    79    2
   126    85    83   ar
   127    85    87   ar
   128    83    82   ar
   129    79    78    1
   130    87    86   ar
   131   134   135    2
   132    82    81    1
   133    82    84   ar
   134    78    81    1
   135    78    77    1
   136    86    84   ar
