@<TRIPOS>MOLECULE
tmp/6gqfA00.pdb
 236 224 0 0 0
SMALL
GASTEIGER

@<TRIPOS>ATOM
      1  N         -4.5470   -0.2390   26.4830 N.3    37  LEU37      -0.1245
      2  CA        -3.6010    0.8280   26.7960 C.3    37  LEU37       0.1561
      3  C         -3.8520    1.3480   28.2090 C.2    37  LEU37       0.2260
      4  O         -2.9260    1.7700   28.9040 O.2    37  LEU37      -0.2867
      5  CB        -3.7080    1.9650   25.7740 C.3    37  LEU37       0.0270
      6  CG        -3.3650    1.6330   24.3160 C.3    37  LEU37       0.0019
      7  CD1       -3.4440    2.8880   23.4580 C.3    37  LEU37       0.0001
      8  CD2       -1.9950    0.9850   24.1800 C.3    37  LEU37       0.0001
      9  N         -1.9890   -1.2130   30.4400 N.3    40  ARG40      -0.1245
     10  CA        -0.5420   -1.0220   30.5550 C.3    40  ARG40       0.1563
     11  C         -0.2090    0.3730   31.0670 C.2    40  ARG40       0.2260
     12  O          0.9290    0.8320   30.9590 O.2    40  ARG40      -0.2867
     13  CB         0.1470   -1.2610   29.2160 C.3    40  ARG40       0.0307
     14  CG        -0.0170   -2.6670   28.7120 C.3    40  ARG40       0.0489
     15  CD         1.2090   -3.1330   27.9650 C.3    40  ARG40       0.2205
     16  NE         2.1780   -3.8080   28.8340 N.pl3  40  ARG40      -0.0865
     17  CZ         3.4250   -3.3980   29.0770 C.cat  40  ARG40       0.5346
     18  NH1        3.9160   -2.2870   28.5330 N.pl3  40  ARG40       0.1354
     19  NH2        4.1950   -4.1180   29.8780 N.pl3  40  ARG40       0.1354
     20  N         -1.2330    3.6080   30.2850 N.3    42  PHE42      -0.1241
     21  CA        -0.9280    4.7080   29.3770 C.3    42  PHE42       0.1605
     22  C         -1.9700    5.8070   29.5270 C.2    42  PHE42       0.2264
     23  O         -3.1720    5.5440   29.4820 O.2    42  PHE42      -0.2867
     24  CB        -0.8750    4.2250   27.9260 C.3    42  PHE42       0.0534
     25  CG         0.2800    3.3080   27.6280 C.ar   42  PHE42      -0.0203
     26  CD1        1.2400    3.0220   28.5880 C.ar   42  PHE42      -0.0042
     27  CD2        0.4050    2.7370   26.3760 C.ar   42  PHE42      -0.0042
     28  CE1        2.2950    2.1800   28.3000 C.ar   42  PHE42      -0.0003
     29  CE2        1.4540    1.8970   26.0840 C.ar   42  PHE42      -0.0003
     30  CZ         2.4010    1.6170   27.0430 C.ar   42  PHE42      -0.0000
     31  N          0.6860    9.2310   23.4310 N.3    64  TYR64      -0.1241
     32  CA         0.3160    8.8340   24.7780 C.3    64  TYR64       0.1605
     33  C          1.5170    8.9220   25.6960 C.2    64  TYR64       0.2264
     34  O          2.6650    8.8440   25.2500 O.2    64  TYR64      -0.2867
     35  CB        -0.2660    7.4170   24.7950 C.3    64  TYR64       0.0534
     36  CG         0.4210    6.4590   23.8570 C.ar   64  TYR64      -0.0201
     37  CD1        1.7050    5.9990   24.1150 C.ar   64  TYR64      -0.0009
     38  CD2       -0.2170    6.0150   22.7120 C.ar   64  TYR64      -0.0009
     39  CE1        2.3360    5.1270   23.2500 C.ar   64  TYR64       0.0417
     40  CE2        0.4000    5.1450   21.8440 C.ar   64  TYR64       0.0417
     41  CZ         1.6760    4.7020   22.1160 C.ar   64  TYR64       0.1957
     42  OH         2.2900    3.8310   21.2470 O.3    64  TYR64      -0.2866
     43  N          3.6370    7.3470   28.8340 N.3    66  ILE66      -0.1245
     44  CA         3.9250    6.0210   29.3650 C.3    66  ILE66       0.1561
     45  C          4.7140    6.1190   30.6610 C.2    66  ILE66       0.2260
     46  O          5.3620    7.1330   30.9210 O.2    66  ILE66      -0.2867
     47  CB         4.7250    5.1590   28.3610 C.3    66  ILE66       0.0252
     48  CG1        6.1320    5.7410   28.1460 C.3    66  ILE66       0.0019
     49  CG2        3.9560    5.0290   27.0440 C.3    66  ILE66       0.0019
     50  CD1        7.0050    4.9070   27.2340 C.3    66  ILE66       0.0001
     51  N          7.9180    4.8800   33.0350 N.3    68  ILE68      -0.1245
     52  CA         9.2720    4.3370   32.9200 C.3    68  ILE68       0.1561
     53  C          9.6480    3.6960   34.2530 C.2    68  ILE68       0.2260
     54  O          9.5280    4.3200   35.3080 O.2    68  ILE68      -0.2867
     55  CB        10.3090    5.4240   32.5330 C.3    68  ILE68       0.0252
     56  CG1       10.2920    5.6780   31.0230 C.3    68  ILE68       0.0019
     57  CG2       11.7320    5.0090   32.9150 C.3    68  ILE68       0.0019
     58  CD1        9.0570    6.3530   30.5140 C.3    68  ILE68       0.0001
     59  N         12.6890    1.4240   34.5190 N.3    70  ASN70      -0.1240
     60  CA        14.1460    1.3250   34.6140 C.3    70  ASN70       0.1653
     61  C         14.7280    2.5420   35.3260 C.2    70  ASN70       0.2266
     62  O         14.5550    3.6750   34.8760 O.2    70  ASN70      -0.2867
     63  CB        14.7960    1.1540   33.2230 C.3    70  ASN70       0.1155
     64  CG        14.0850    1.9330   32.1180 C.2    70  ASN70       0.2627
     65  OD1       14.3580    3.1160   31.8990 O.2    70  ASN70      -0.2716
     66  ND2       13.1960    1.2560   31.3910 N.am   70  ASN70      -0.0877
     67  N         16.3650    5.0510   35.6340 N.3    72  LEU72      -0.1245
     68  CA        17.1770    5.9160   34.7920 C.3    72  LEU72       0.1561
     69  C         16.3680    7.1370   34.3740 C.2    72  LEU72       0.2260
     70  O         15.4800    7.0490   33.5250 O.2    72  LEU72      -0.2867
     71  CB        17.6770    5.1600   33.5560 C.3    72  LEU72       0.0270
     72  CG        18.9900    5.6680   32.9570 C.3    72  LEU72       0.0019
     73  CD1       20.1740    5.3050   33.8390 C.3    72  LEU72       0.0001
     74  CD2       19.1730    5.1030   31.5740 C.3    72  LEU72       0.0001
     75  N          5.0560    9.5590   23.9470 N.3    79  VAL79      -0.1245
     76  CA         5.3200    8.7260   22.7840 C.3    79  VAL79       0.1561
     77  C          4.4310    9.1300   21.6270 C.2    79  VAL79       0.2260
     78  O          3.2270    8.9080   21.6650 O.2    79  VAL79      -0.2867
     79  CB         5.0830    7.2350   23.0900 C.3    79  VAL79       0.0252
     80  CG1        5.2270    6.3900   21.8230 C.3    79  VAL79       0.0019
     81  CG2        6.0390    6.7560   24.1660 C.3    79  VAL79       0.0019
     82  N          3.4670    8.2710   17.8680 N.3    81  GLU81      -0.1245
     83  CA         3.5410    7.1160   16.9810 C.3    81  GLU81       0.1567
     84  C          2.8540    7.4060   15.6510 C.2    81  GLU81       0.2260
     85  O          1.8350    8.0900   15.6090 O.2    81  GLU81      -0.2867
     86  CB         2.9080    5.8870   17.6470 C.3    81  GLU81       0.0388
     87  CG         2.9980    4.6010   16.8220 C.3    81  GLU81       0.1160
     88  CD         2.3590    3.4120   17.5130 C.2    81  GLU81       0.3649
     89  OE1        1.7610    3.6030   18.5940 O.co2  81  GLU81      -0.2457
     90  OE2        2.4520    2.2860   16.9750 O.co2  81  GLU81      -0.2457
     91  N          7.7540    4.6970   16.1220 N.3    96  VAL96      -0.1245
     92  CA         7.5280    5.0940   17.5060 C.3    96  VAL96       0.1561
     93  C          8.6700    5.9640   17.9910 C.2    96  VAL96       0.2260
     94  O          9.8170    5.5250   18.0690 O.2    96  VAL96      -0.2867
     95  CB         7.3840    3.8710   18.4330 C.3    96  VAL96       0.0252
     96  CG1        7.2500    4.3040   19.8920 C.3    96  VAL96       0.0019
     97  CG2        6.1830    3.0370   18.0180 C.3    96  VAL96       0.0019
     98  N          9.8320    8.0430   21.1930 N.3    98  THR98      -0.1218
     99  CA         9.6800    8.2910   22.6150 C.3    98  THR98       0.1862
    100  C         10.4450    9.5580   22.9880 C.2    98  THR98       0.2287
    101  O         11.6460    9.6590   22.7370 O.2    98  THR98      -0.2866
    102  CB        10.1950    7.1060   23.4440 C.3    98  THR98       0.1770
    103  OG1       11.6150    7.0020   23.2940 O.3    98  THR98      -0.2211
    104  CG2        9.5560    5.8090   22.9740 C.3    98  THR98       0.0375
    105  N         12.9070   11.0700   27.3490 N.3   101  ILE101     -0.1231
    106  CA        13.8010   10.0860   27.9500 C.3   101  ILE101      0.1678
    107  C         15.2530   10.4750   27.7110 C.2   101  ILE101      0.2434
    108  O         15.5380   11.3330   26.8740 O.2   101  ILE101     -0.2733
    109  CB        13.5640    8.6700   27.3840 C.3   101  ILE101      0.0265
    110  CG1       13.8340    8.6360   25.8720 C.3   101  ILE101      0.0019
    111  CG2       12.1480    8.2210   27.6880 C.3   101  ILE101      0.0020
    112  CD1       13.8750    7.2450   25.2900 C.3   101  ILE101      0.0001
    113  N         16.1770    9.8500   28.4540 N.am  102  PRO102     -0.2718
    114  CA        17.6080    9.9590   28.1510 C.3   102  PRO102      0.1535
    115  C         17.9660    9.3650   26.7860 C.2   102  PRO102      0.2598
    116  O         17.4750    8.2920   26.4380 O.2   102  PRO102     -0.2715
    117  CB        18.2660    9.1540   29.2730 C.3   102  PRO102      0.0310
    118  CG        17.2710    9.1460   30.3720 C.3   102  PRO102      0.0237
    119  CD        15.9360    9.1430   29.7240 C.3   102  PRO102      0.0939
    120  N         18.8140   10.0610   26.0340 N.am  103  TYR103     -0.1974
    121  CA        19.3090    9.5690   24.7490 C.3   103  TYR103      0.1639
    122  C         18.2030    9.4320   23.7020 C.2   103  TYR103      0.2290
    123  O         18.2920    8.5890   22.8120 O.2   103  TYR103     -0.2864
    124  CB        20.0160    8.2210   24.9300 C.3   103  TYR103      0.0560
    125  CG        21.0730    8.2260   26.0120 C.ar  103  TYR103     -0.0198
    126  CD1       22.2390    8.9650   25.8640 C.ar  103  TYR103     -0.0009
    127  CD2       20.9120    7.4840   27.1740 C.ar  103  TYR103     -0.0009
    128  CE1       23.2090    8.9720   26.8440 C.ar  103  TYR103      0.0417
    129  CE2       21.8780    7.4820   28.1610 C.ar  103  TYR103      0.0417
    130  CZ        23.0260    8.2290   27.9940 C.ar  103  TYR103      0.1957
    131  OH        24.0000    8.2360   28.9760 O.3   103  TYR103     -0.2866
    132  N         18.1610    7.5300   19.0650 N.3   107  PHE107     -0.1241
    133  CA        17.4620    6.4020   18.4620 C.3   107  PHE107      0.1605
    134  C         15.9520    6.5700   18.4340 C.2   107  PHE107      0.2264
    135  O         15.3920    7.4200   19.1190 O.2   107  PHE107     -0.2867
    136  CB        17.8000    5.1090   19.2180 C.3   107  PHE107      0.0534
    137  CG        17.0700    4.9660   20.5360 C.ar  107  PHE107     -0.0203
    138  CD1       17.4430    5.7190   21.6420 C.ar  107  PHE107     -0.0042
    139  CD2       16.0090    4.0820   20.6670 C.ar  107  PHE107     -0.0042
    140  CE1       16.7700    5.5930   22.8510 C.ar  107  PHE107     -0.0003
    141  CE2       15.3370    3.9540   21.8720 C.ar  107  PHE107     -0.0003
    142  CZ        15.7200    4.7110   22.9630 C.ar  107  PHE107     -0.0000
    143  N         12.4100    3.6160   17.2170 N.3   109  THR109     -0.1218
    144  CA        12.1390    2.2050   16.9160 C.3   109  THR109      0.1862
    145  C         11.0690    2.0430   15.8420 C.2   109  THR109      0.2287
    146  O         10.1870    2.8920   15.6990 O.2   109  THR109     -0.2866
    147  CB        11.7030    1.4170   18.1850 C.3   109  THR109      0.1770
    148  OG1       10.4390    1.9000   18.6670 O.3   109  THR109     -0.2211
    149  CG2       12.7530    1.5440   19.2740 C.3   109  THR109      0.0375
    150  N          8.3430   -0.9280   13.9140 N.3   111  HIS111     -0.1241
    151  CA         7.5890   -2.1610   14.1290 C.3   111  HIS111      0.1621
    152  C          6.6690   -2.4440   12.9420 C.2   111  HIS111      0.2264
    153  O          6.0730   -1.5280   12.3720 O.2   111  HIS111     -0.2867
    154  CB         6.7760   -2.0590   15.4210 C.3   111  HIS111      0.0745
    155  CG         7.5720   -1.5550   16.5820 C.ar  111  HIS111      0.0817
    156  ND1        8.0660   -2.3840   17.5630 N.ar  111  HIS111     -0.2268
    157  CD2        7.9800   -0.3040   16.9010 C.ar  111  HIS111      0.1154
    158  CE1        8.7410   -1.6670   18.4410 C.ar  111  HIS111      0.1986
    159  NE2        8.7100   -0.4020   18.0600 N.ar  111  HIS111     -0.2212
    160  N          3.4260   -4.8820   11.7150 N.3   113  TYR113     -0.1241
    161  CA         2.3480   -5.8300   11.9700 C.3   113  TYR113      0.1605
    162  C          1.9240   -6.4790   10.6560 C.2   113  TYR113      0.2264
    163  O          1.6670   -5.7770    9.6800 O.2   113  TYR113     -0.2867
    164  CB         1.1330   -5.1430   12.5910 C.3   113  TYR113      0.0534
    165  CG         1.3520   -4.4300   13.9080 C.ar  113  TYR113     -0.0201
    166  CD1        2.0210   -3.2140   13.9650 C.ar  113  TYR113     -0.0009
    167  CD2        0.8390   -4.9470   15.0860 C.ar  113  TYR113     -0.0009
    168  CE1        2.2020   -2.5550   15.1610 C.ar  113  TYR113      0.0417
    169  CE2        1.0100   -4.2930   16.2860 C.ar  113  TYR113      0.0417
    170  CZ         1.6920   -3.0960   16.3180 C.ar  113  TYR113      0.1957
    171  OH         1.8650   -2.4390   17.5120 O.3   113  TYR113     -0.2866
    172  N         23.0070   -0.2220   26.9030 N.3   144  LEU144     -0.1231
    173  CA        21.9170    0.1600   27.7870 C.3   144  LEU144      0.1693
    174  C         20.6290    0.4500   27.0170 C.2   144  LEU144      0.2591
    175  O         19.5380    0.1030   27.4700 O.2   144  LEU144     -0.2718
    176  CB        22.3190    1.3830   28.6140 C.3   144  LEU144      0.0284
    177  CG        21.3550    1.8050   29.7280 C.3   144  LEU144      0.0019
    178  CD1       21.1880    0.7050   30.7630 C.3   144  LEU144      0.0001
    179  CD2       21.8430    3.0790   30.3830 C.3   144  LEU144      0.0001
    180  N         20.7520    1.0900   25.8580 N.am  145  ILE145     -0.1980
    181  CA        19.5870    1.3630   25.0220 C.3   145  ILE145      0.1595
    182  C         19.0010    0.0630   24.4660 C.2   145  ILE145      0.2287
    183  O         17.7850   -0.1070   24.4400 O.2   145  ILE145     -0.2864
    184  CB        19.9310    2.3180   23.8600 C.3   145  ILE145      0.0276
    185  CG1       20.4420    3.6490   24.4180 C.3   145  ILE145      0.0022
    186  CG2       18.7020    2.5460   22.9790 C.3   145  ILE145      0.0022
    187  CD1       20.7860    4.6890   23.3770 C.3   145  ILE145      0.0001
    188  N         17.3090   -1.9520   27.7240 N.3   148  ASN148     -0.1225
    189  CA        16.0640   -1.3730   28.2320 C.3   148  ASN148      0.1785
    190  C         14.9500   -1.3330   27.1880 C.2   148  ASN148      0.2597
    191  O         13.7780   -1.5260   27.5200 O.2   148  ASN148     -0.2718
    192  CB        16.3020    0.0480   28.7510 C.3   148  ASN148      0.1169
    193  CG        17.3660    0.1150   29.8310 C.2   148  ASN148      0.2627
    194  OD1       18.2220    0.9990   29.8100 O.2   148  ASN148     -0.2716
    195  ND2       17.3160   -0.8080   30.7850 N.am  148  ASN148     -0.0877
    196  N         15.3140   -1.0600   25.9360 N.am  149  SER149     -0.1952
    197  CA        14.3400   -1.0050   24.8490 C.3   149  SER149      0.1924
    198  C         13.6950   -2.3670   24.5980 C.2   149  SER149      0.2314
    199  O         12.4710   -2.4790   24.5810 O.2   149  SER149     -0.2863
    200  CB        14.9930   -0.5010   23.5600 C.3   149  SER149      0.2116
    201  OG        15.3910    0.8570   23.6660 O.3   149  SER149     -0.2180
    202  N         11.3030   -3.4800   27.3590 N.3   152  GLY152     -0.1210
    203  CA        10.0310   -2.7800   27.2900 C.3   152  GLY152      0.1956
    204  C          9.2180   -3.1220   26.0510 C.2   152  GLY152      0.2611
    205  O          7.9890   -3.0140   26.0590 O.2   152  GLY152     -0.2717
    206  N          9.9020   -3.5300   24.9830 N.am  153  ILE153     -0.1979
    207  CA         9.2350   -3.9150   23.7430 C.3   153  ILE153      0.1595
    208  C          8.6240   -5.3070   23.8740 C.2   153  ILE153      0.2287
    209  O          7.4830   -5.5350   23.4700 O.2   153  ILE153     -0.2864
    210  CB        10.2130   -3.8760   22.5360 C.3   153  ILE153      0.0276
    211  CG1       10.4910   -2.4270   22.1310 C.3   153  ILE153      0.0022
    212  CG2        9.6390   -4.6310   21.3210 C.3   153  ILE153      0.0022
    213  CD1       11.6530   -2.2560   21.1690 C.3   153  ILE153      0.0001
    214  N          5.7280   -5.3930   26.3420 N.3   156  TYR156     -0.1227
    215  CA         4.5290   -4.7860   25.7760 C.3   156  TYR156      0.1736
    216  C          3.7910   -5.7610   24.8640 C.2   156  TYR156      0.2595
    217  O          2.6000   -6.0130   25.0470 O.2   156  TYR156     -0.2718
    218  CB         4.8780   -3.5090   24.9980 C.3   156  TYR156      0.0548
    219  CG         3.6860   -2.9300   24.2630 C.ar  156  TYR156     -0.0200
    220  CD1        2.8160   -2.0470   24.8950 C.ar  156  TYR156     -0.0009
    221  CD2        3.4160   -3.2820   22.9480 C.ar  156  TYR156     -0.0009
    222  CE1        1.7190   -1.5280   24.2340 C.ar  156  TYR156      0.0417
    223  CE2        2.3220   -2.7680   22.2830 C.ar  156  TYR156      0.0417
    224  CZ         1.4770   -1.8910   22.9310 C.ar  156  TYR156      0.1957
    225  OH         0.3860   -1.3750   22.2680 O.3   156  TYR156     -0.2866
    226  N          4.5040   -6.3060   23.8820 N.am  157  PHE157     -0.1976
    227  CA         3.8810   -7.1400   22.8610 C.3   157  PHE157      0.1639
    228  C          3.4900   -8.5200   23.3850 C.2   157  PHE157      0.2290
    229  O          2.5260   -9.1160   22.9080 O.2   157  PHE157     -0.2864
    230  CB         4.8120   -7.2740   21.6510 C.3   157  PHE157      0.0560
    231  CG         4.8240   -6.0600   20.7650 C.ar  157  PHE157     -0.0200
    232  CD1        3.7580   -5.7890   19.9200 C.ar  157  PHE157     -0.0042
    233  CD2        5.8930   -5.1810   20.7880 C.ar  157  PHE157     -0.0042
    234  CE1        3.7630   -4.6660   19.1130 C.ar  157  PHE157     -0.0003
    235  CE2        5.9030   -4.0590   19.9790 C.ar  157  PHE157     -0.0003
    236  CZ         4.8370   -3.8040   19.1410 C.ar  157  PHE157     -0.0000
@<TRIPOS>BOND
     1   163   162    2
     2   162   161    1
     3   160   161    1
     4   161   164    1
     5   153   152    2
     6   164   165    1
     7   152   151    1
     8   165   166   ar
     9   165   167   ar
    10   150   151    1
    11   166   168   ar
    12   151   154    1
    13   167   169   ar
    14   168   170   ar
    15   154   155    1
    16    85    84    2
    17    84    83    1
    18   146   145    2
    19   145   144    1
    20    91    92    1
    21   169   170   ar
    22   170   171    1
    23   155   157   ar
    24   155   156   ar
    25    87    88    1
    26    87    86    1
    27   157   159   ar
    28   144   143    1
    29   144   147    1
    30    90    88   ar
    31    83    86    1
    32    83    82    1
    33    92    93    1
    34    92    95    1
    35    88    89   ar
    36   156   158   ar
    37    93    94    2
    38    97    95    1
    39   159   158   ar
    40   147   148    1
    41   147   149    1
    42    95    96    1
    43   134   133    1
    44   134   135    2
    45   133   132    1
    46   133   136    1
    47   234   236   ar
    48   234   232   ar
    49   236   235   ar
    50   136   137    1
    51   232   231   ar
    52   235   233   ar
    53   137   139   ar
    54   137   138   ar
    55   139   141   ar
    56   231   233   ar
    57   231   230    1
    58   213   211    1
    59    98    99    1
    60    42    41    1
    61   212   210    1
    62    77    78    2
    63    77    76    1
    64   138   140   ar
    65   230   227    1
    66    80    79    1
    67    40    41   ar
    68    40    38   ar
    69   141   142   ar
    70    41    39   ar
    71   211   210    1
    72   225   224    1
    73   223   224   ar
    74   223   221   ar
    75   210   207    1
    76    99   100    1
    77    99   102    1
    78    38    36   ar
    79   101   100    2
    80    76    79    1
    81    76    75    1
    82   123   122    2
    83   140   142   ar
    84   227   228    1
    85   227   226    1
    86   229   228    2
    87   224   222   ar
    88   221   219   ar
    89   104   102    1
    90   186   184    1
    91    79    81    1
    92    39    37   ar
    93   103   102    1
    94   187   185    1
    95    31    32    1
    96     7     6    1
    97   209   208    2
    98   200   201    1
    99   200   197    1
   100   122   121    1
   101   207   208    1
   102   207   206    1
   103    36    37   ar
   104    36    35    1
   105   184   185    1
   106   184   181    1
   107   226   216   am
   108     8     6    1
   109   222   220   ar
   110   219   220   ar
   111   219   218    1
   112     6     5    1
   113   183   182    2
   114   182   181    1
   115   199   198    2
   116   198   197    1
   117   121   124    1
   118   121   120    1
   119    32    35    1
   120    32    33    1
   121   197   196    1
   122   216   217    2
   123   216   215    1
   124   124   125    1
   125   206   204   am
   126   218   215    1
   127   181   180    1
   128    34    33    2
   129   112   110    1
   130     5     2    1
   131   215   214    1
   132   180   174   am
   133   126   125   ar
   134   126   128   ar
   135   110   109    1
   136   196   190   am
   137   125   127   ar
   138   120   115   am
   139   204   205    2
   140   204   203    1
   141    29    27   ar
   142    29    30   ar
   143    27    25   ar
   144   116   115    2
   145     1     2    1
   146   115   114    1
   147     2     3    1
   148   128   130   ar
   149   108   107    2
   150   172   173    1
   151   174   175    2
   152   174   173    1
   153    30    28   ar
   154    49    47    1
   155   127   129   ar
   156   190   191    2
   157   190   189    1
   158    50    48    1
   159   203   202    1
   160   105   106    1
   161   109   111    1
   162   109   106    1
   163    25    24    1
   164    25    26   ar
   165   107   106    1
   166   107   113   am
   167   188   189    1
   168   173   176    1
   169    24    21    1
   170    15    14    1
   171    15    16    1
   172   130   129   ar
   173   130   131    1
   174    48    47    1
   175   114   113    1
   176   114   117    1
   177     3     4    2
   178   189   192    1
   179    28    26   ar
   180    47    44    1
   181   113   119    1
   182    18    17    1
   183   176   177    1
   184    14    13    1
   185   192   193    1
   186    43    44    1
   187    16    17    2
   188    17    19    1
   189    13    10    1
   190   117   118    1
   191    44    45    1
   192    21    22    1
   193    21    20    1
   194    23    22    2
   195   119   118    1
   196   177   179    1
   197   177   178    1
   198   194   193    2
   199   193   195   am
   200     9    10    1
   201    58    56    1
   202    10    11    1
   203    45    46    2
   204    12    11    2
   205    56    55    1
   206    66    64   am
   207    74    72    1
   208    65    64    2
   209    64    63    1
   210    55    57    1
   211    55    52    1
   212    52    51    1
   213    52    53    1
   214    72    71    1
   215    72    73    1
   216    63    60    1
   217    70    69    2
   218    71    68    1
   219    53    54    2
   220    69    68    1
   221    59    60    1
   222    60    61    1
   223    68    67    1
   224    62    61    2
