@<TRIPOS>MOLECULE
tmp/6gqiB03.pdb
 132 128 0 0 0
SMALL
GASTEIGER

@<TRIPOS>ATOM
      1  N          5.6400   64.2030    1.5530 N.3   240  THR240     -0.1203
      2  CA         5.1860   63.0660    2.3310 C.3   240  THR240      0.1994
      3  C          5.5280   63.1630    3.8610 C.2   240  THR240      0.2617
      4  O          4.6270   63.2590    4.7070 O.2   240  THR240     -0.2717
      5  CB         5.7870   61.7280    1.8200 C.3   240  THR240      0.1784
      6  OG1        5.4970   61.5890    0.4540 O.3   240  THR240     -0.2211
      7  CG2        5.1630   60.5000    2.4980 C.3   240  THR240      0.0376
      8  N          6.8240   63.1250    4.1910 N.am  241  VAL241     -0.1979
      9  CA         7.2210   62.9940    5.5470 C.3   241  VAL241      0.1595
     10  C          7.5090   64.3280    6.2210 C.2   241  VAL241      0.2287
     11  O          7.7930   64.3520    7.3680 O.2   241  VAL241     -0.2864
     12  CB         8.3190   61.9060    5.7770 C.3   241  VAL241      0.0276
     13  CG1        7.8690   60.5070    5.3840 C.3   241  VAL241      0.0022
     14  CG2        9.6470   62.2330    5.0620 C.3   241  VAL241      0.0022
     15  N         15.6550   59.8090    8.1250 N.3   274  PHE274     -0.1241
     16  CA        14.5350   60.0400    7.2120 C.3   274  PHE274      0.1605
     17  C         15.0690   60.3510    5.7660 C.2   274  PHE274      0.2264
     18  O         14.5560   59.7890    4.7880 O.2   274  PHE274     -0.2867
     19  CB        13.5610   61.1170    7.7570 C.3   274  PHE274      0.0534
     20  CG        12.5980   60.5590    8.7830 C.ar  274  PHE274     -0.0203
     21  CD1       12.9790   60.5250   10.1290 C.ar  274  PHE274     -0.0042
     22  CD2       11.4600   59.9620    8.4060 C.ar  274  PHE274     -0.0042
     23  CE1       12.1830   59.9830   11.0600 C.ar  274  PHE274     -0.0003
     24  CE2       10.6420   59.4000    9.3110 C.ar  274  PHE274     -0.0003
     25  CZ        11.0170   59.4160   10.6590 C.ar  274  PHE274     -0.0000
     26  N         16.0560   56.9820    4.1890 N.3   277  MET277     -0.1230
     27  CA        14.9260   56.1020    3.9410 C.3   277  MET277      0.1702
     28  C         14.0900   56.5840    2.7800 C.2   277  MET277      0.2592
     29  O         13.5890   55.7660    2.0290 O.2   277  MET277     -0.2718
     30  CB        14.0850   55.9790    5.1970 C.3   277  MET277      0.0401
     31  CG        12.9690   54.9580    5.0140 C.3   277  MET277      0.0596
     32  SD        11.9910   54.5560    6.4560 S.3   277  MET277     -0.1393
     33  CE        12.8460   53.1150    7.0250 C.3   277  MET277      0.0692
     34  N         13.9380   57.9020    2.6770 N.am  278  PHE278     -0.1976
     35  CA        13.0270   58.5840    1.7220 C.3   278  PHE278      0.1639
     36  C         13.6680   59.5570    0.6970 C.2   278  PHE278      0.2290
     37  O         13.0640   59.8960   -0.2970 O.2   278  PHE278     -0.2864
     38  CB        11.9520   59.3600    2.4880 C.3   278  PHE278      0.0560
     39  CG        11.1080   58.4860    3.3180 C.ar  278  PHE278     -0.0200
     40  CD1       10.1900   57.6680    2.7180 C.ar  278  PHE278     -0.0042
     41  CD2       11.2770   58.4080    4.6770 C.ar  278  PHE278     -0.0042
     42  CE1        9.3880   56.8020    3.4670 C.ar  278  PHE278     -0.0003
     43  CE2       10.5300   57.5930    5.4340 C.ar  278  PHE278     -0.0003
     44  CZ         9.5580   56.7760    4.8410 C.ar  278  PHE278     -0.0000
     45  N         11.7550   49.9520   10.5260 N.3   323  LYS323     -0.1231
     46  CA        11.3150   50.6260   11.7500 C.3   323  LYS323      0.1693
     47  C         11.5230   52.1070   11.4980 C.2   323  LYS323      0.2592
     48  O         12.1080   52.4890   10.4680 O.2   323  LYS323     -0.2718
     49  CB        12.1200   50.1730   12.9370 C.3   323  LYS323      0.0285
     50  CG        11.9420   48.6910   13.2570 C.3   323  LYS323      0.0035
     51  CD        12.8650   48.2450   14.4000 C.3   323  LYS323      0.0206
     52  CE        12.5850   46.7900   14.7540 C.3   323  LYS323      0.1093
     53  NZ        13.2690   46.3390   16.0000 N.3   323  LYS323     -0.1314
     54  N         11.1190   52.9340   12.4590 N.am  324  ARG324     -0.1966
     55  CA        11.3370   54.3780   12.3820 C.3   324  ARG324      0.1714
     56  C         12.8590   54.5330   12.2110 C.2   324  ARG324      0.2458
     57  O         13.5870   53.9070   12.9400 O.2   324  ARG324     -0.2730
     58  CB        10.8420   55.0350   13.6810 C.3   324  ARG324      0.0347
     59  CG        10.8200   56.5140   13.6990 C.3   324  ARG324      0.0492
     60  CD        12.1850   57.1140   13.8390 C.3   324  ARG324      0.2205
     61  NE        11.9620   58.5110   14.2120 N.pl3 324  ARG324     -0.0865
     62  CZ        12.9150   59.3960   14.4310 C.cat 324  ARG324      0.5346
     63  NH1       12.5480   60.6140   14.7790 N.pl3 324  ARG324      0.1354
     64  NH2       14.2200   59.0890   14.3330 N.pl3 324  ARG324      0.1354
     65  N         13.3070   55.2930   11.2090 N.am  325  PRO325     -0.2727
     66  CA        14.7400   55.2860   10.9210 C.3   325  PRO325      0.1402
     67  C         15.5380   56.1150   11.8540 C.2   325  PRO325      0.2269
     68  O         15.1730   57.2810   12.1620 O.2   325  PRO325     -0.2865
     69  CB        14.8910   55.8650    9.5110 C.3   325  PRO325      0.0296
     70  CG        13.6640   56.6940    9.3310 C.3   325  PRO325      0.0237
     71  CD        12.5550   55.9340   10.1110 C.3   325  PRO325      0.0939
     72  N          2.0420   60.1920    9.8990 N.3   429  PHE429     -0.1241
     73  CA         3.3360   59.8470   10.4370 C.3   429  PHE429      0.1605
     74  C          4.3620   60.6680    9.6970 C.2   429  PHE429      0.2264
     75  O          4.8100   60.3110    8.5970 O.2   429  PHE429     -0.2867
     76  CB         3.5890   58.3670   10.2630 C.3   429  PHE429      0.0534
     77  CG         4.7680   57.8520   11.0440 C.ar  429  PHE429     -0.0203
     78  CD1        6.0820   58.2820   10.7800 C.ar  429  PHE429     -0.0042
     79  CD2        4.5440   56.9400   12.0500 C.ar  429  PHE429     -0.0042
     80  CE1        7.1270   57.7640   11.4910 C.ar  429  PHE429     -0.0003
     81  CE2        5.5760   56.4210   12.7820 C.ar  429  PHE429     -0.0003
     82  CZ         6.8790   56.8720   12.5340 C.ar  429  PHE429     -0.0000
     83  N          3.0800   48.9130    2.0980 N.3   479  THR479     -0.1218
     84  CA         4.4250   49.1570    2.5580 C.3   479  THR479      0.1862
     85  C          4.9320   47.9080    3.2580 C.2   479  THR479      0.2287
     86  O          4.2230   46.8960    3.5160 O.2   479  THR479     -0.2866
     87  CB         4.4940   50.3810    3.5000 C.3   479  THR479      0.1770
     88  OG1        3.8520   50.0770    4.7400 O.3   479  THR479     -0.2211
     89  CG2        3.8430   51.5770    2.9190 C.3   479  THR479      0.0375
     90  N          6.2340   48.4360    6.2110 N.3   481  PHE481     -0.1241
     91  CA         6.2420   48.8690    7.6030 C.3   481  PHE481      0.1605
     92  C          5.5020   47.8760    8.5210 C.2   481  PHE481      0.2264
     93  O          5.9910   47.6650    9.6290 O.2   481  PHE481     -0.2867
     94  CB         5.6610   50.2430    7.7620 C.3   481  PHE481      0.0534
     95  CG         6.3960   51.3270    7.0530 C.ar  481  PHE481     -0.0203
     96  CD1        7.7300   51.5590    7.3240 C.ar  481  PHE481     -0.0042
     97  CD2        5.7470   52.1740    6.1530 C.ar  481  PHE481     -0.0042
     98  CE1        8.4050   52.5910    6.7380 C.ar  481  PHE481     -0.0003
     99  CE2        6.4230   53.2160    5.5640 C.ar  481  PHE481     -0.0003
    100  CZ         7.7670   53.4100    5.8520 C.ar  481  PHE481     -0.0000
    101  N          5.0740   51.0070   16.1690 N.3   488  ILE488     -0.1245
    102  CA         4.1840   51.6190   15.1290 C.3   488  ILE488      0.1561
    103  C          2.8570   50.8330   14.8540 C.2   488  ILE488      0.2260
    104  O          1.8080   51.4120   14.5530 O.2   488  ILE488     -0.2867
    105  CB         5.0110   51.7810   13.8600 C.3   488  ILE488      0.0252
    106  CG1        6.2350   52.6760   14.1790 C.3   488  ILE488      0.0019
    107  CG2        4.1980   52.3970   12.7630 C.3   488  ILE488      0.0019
    108  CD1        7.2630   52.7210   13.0800 C.3   488  ILE488      0.0001
    109  N         -2.2030   56.9290    9.4320 N.3   503  TYR503     -0.1227
    110  CA        -2.3770   57.1570    7.9800 C.3   503  TYR503      0.1736
    111  C         -0.9620   57.3730    7.4080 C.2   503  TYR503      0.2595
    112  O         -0.2690   58.3600    7.7110 O.2   503  TYR503     -0.2718
    113  CB        -3.3390   58.3590    7.7680 C.3   503  TYR503      0.0548
    114  CG        -3.4230   58.8540    6.3960 C.ar  503  TYR503     -0.0200
    115  CD1       -2.4890   59.8300    5.9240 C.ar  503  TYR503     -0.0009
    116  CD2       -4.3870   58.3660    5.5370 C.ar  503  TYR503     -0.0009
    117  CE1       -2.5420   60.2970    4.6430 C.ar  503  TYR503      0.0417
    118  CE2       -4.4160   58.7990    4.1990 C.ar  503  TYR503      0.0417
    119  CZ        -3.5260   59.7830    3.7900 C.ar  503  TYR503      0.1957
    120  OH        -3.5670   60.2260    2.4900 O.3   503  TYR503     -0.2866
    121  N         -0.5070   56.3560    6.6600 N.am  504  LEU504     -0.1980
    122  CA         0.8500   56.3800    6.0400 C.3   504  LEU504      0.1596
    123  C          0.9190   57.0770    4.6240 C.2   504  LEU504      0.2287
    124  O          1.8780   56.8860    3.9070 O.2   504  LEU504     -0.2864
    125  CB         1.4180   54.9660    6.0520 C.3   504  LEU504      0.0297
    126  CG         1.4710   54.3680    7.4730 C.3   504  LEU504      0.0022
    127  CD1        1.9200   52.9430    7.5610 C.3   504  LEU504      0.0001
    128  CD2        2.4620   55.1800    8.2920 C.3   504  LEU504      0.0001
    129  N          1.2510   60.3790    4.0820 N.3   506  GLY506     -0.1225
    130  CA         2.0180   61.5880    4.0560 C.3   506  GLY506      0.1811
    131  C          1.2120   62.8160    4.3090 C.2   506  GLY506      0.2280
    132  O          0.0020   62.8010    4.2610 O.2   506  GLY506     -0.2866
@<TRIPOS>BOND
     1    37    36    2
     2     6     5    1
     3    36    35    1
     4     1     2    1
     5    35    38    1
     6    35    34    1
     7     5     2    1
     8     5     7    1
     9    29    28    2
    10    83    84    1
    11     2     3    1
    12    38    39    1
    13   120   119    1
    14    84    85    1
    15    84    87    1
    16    34    28   am
    17    40    39   ar
    18    40    42   ar
    19    28    27    1
    20    89    87    1
    21    85    86    2
    22    39    41   ar
    23    42    44   ar
    24    87    88    1
    25   119   118   ar
    26   119   117   ar
    27     3     8   am
    28     3     4    2
    29   124   123    2
    30    27    26    1
    31    27    30    1
    32   130   129    1
    33   130   131    1
    34     8     9    1
    35   118   116   ar
    36   132   131    2
    37   123   122    1
    38   117   115   ar
    39    41    43   ar
    40    18    17    2
    41    44    43   ar
    42    31    30    1
    43    31    32    1
    44    14    12    1
    45    13    12    1
    46   116   114   ar
    47     9    12    1
    48     9    10    1
    49    99   100   ar
    50    99    97   ar
    51    17    16    1
    52   100    98   ar
    53   115   114   ar
    54   122   125    1
    55   122   121    1
    56   125   126    1
    57    97    95   ar
    58    90    91    1
    59    10    11    2
    60   114   113    1
    61    32    33    1
    62   121   111   am
    63    98    96   ar
    64    95    96   ar
    65    95    94    1
    66    16    19    1
    67    16    15    1
    68   111   112    2
    69   111   110    1
    70   126   127    1
    71   126   128    1
    72    91    94    1
    73    91    92    1
    74    19    20    1
    75   113   110    1
    76   110   109    1
    77    22    20   ar
    78    22    24   ar
    79    92    93    2
    80    75    74    2
    81    20    21   ar
    82    24    25   ar
    83    70    69    1
    84    70    71    1
    85    69    66    1
    86    74    73    1
    87    72    73    1
    88    71    65    1
    89    21    23   ar
    90    76    73    1
    91    76    77    1
    92    48    47    2
    93    45    46    1
    94    25    23   ar
    95    78    77   ar
    96    78    80   ar
    97    66    65    1
    98    66    67    1
    99    77    79   ar
   100    65    56   am
   101    80    82   ar
   102    47    46    1
   103    47    54   am
   104    46    49    1
   105    67    68    2
   106    79    81   ar
   107    56    55    1
   108    56    57    2
   109    55    54    1
   110    55    58    1
   111    82    81   ar
   112   107   105    1
   113    49    50    1
   114   108   106    1
   115    50    51    1
   116    58    59    1
   117    59    60    1
   118    60    61    1
   119   105   106    1
   120   105   102    1
   121    61    62    2
   122    64    62    1
   123    51    52    1
   124    62    63    1
   125   104   103    2
   126    52    53    1
   127   103   102    1
   128   102   101    1
