@<TRIPOS>MOLECULE
tmp/6gqiA02.pdb
 115 113 0 0 0
SMALL
GASTEIGER

@<TRIPOS>ATOM
      1  N         15.5460   19.9940   12.7990 N.3    55  THR55      -0.1218
      2  CA        15.0000   20.8860   11.8700 C.3    55  THR55       0.1862
      3  C         15.9410   22.0680   11.8590 C.2    55  THR55       0.2287
      4  O         16.2630   22.5950   12.8750 O.2    55  THR55      -0.2866
      5  CB        13.6230   21.3530   12.3360 C.3    55  THR55       0.1770
      6  OG1       12.7720   20.2270   12.4410 O.3    55  THR55      -0.2211
      7  CG2       13.0060   22.4360   11.4260 C.3    55  THR55       0.0375
      8  N          3.3740   14.3610   20.9580 N.3   140  LEU140     -0.1231
      9  CA         3.6640   13.0790   20.3920 C.3   140  LEU140      0.1693
     10  C          4.8280   12.3280   21.0420 C.2   140  LEU140      0.2588
     11  O          4.9190   11.0840   20.9360 O.2   140  LEU140     -0.2718
     12  CB         4.1130   13.3280   18.9030 C.3   140  LEU140      0.0284
     13  CG         3.0840   13.8320   18.0400 C.3   140  LEU140      0.0019
     14  CD1        3.6020   14.0170   16.6270 C.3   140  LEU140      0.0001
     15  CD2        2.0630   12.6900   18.1120 C.3   140  LEU140      0.0001
     16  N          5.7760   13.0760   21.5750 N.am  141  LEU141     -0.2033
     17  CA         7.0310   12.5380   22.0930 C.3   141  LEU141      0.1282
     18  C          7.2400   13.2080   23.4600 C.3   141  LEU141      0.2036
     19  O          8.2360   14.0020   23.6910 O.3   141  LEU141     -0.2185
     20  CB         8.1910   12.8770   21.0880 C.3   141  LEU141      0.0244
     21  CG         8.1580   12.0430   19.7740 C.3   141  LEU141      0.0018
     22  CD1        9.0740   12.6910   18.7060 C.3   141  LEU141      0.0001
     23  CD2        8.5140   10.5880   19.9960 C.3   141  LEU141      0.0001
     24  N         11.0700   20.5130    6.0520 N.3   243  PHE243     -0.1241
     25  CA        12.3250   20.8390    6.6630 C.3   243  PHE243      0.1605
     26  C         13.0860   22.0000    6.0080 C.2   243  PHE243      0.2264
     27  O         14.2320   22.2630    6.3980 O.2   243  PHE243     -0.2867
     28  CB        13.1930   19.6140    6.7310 C.3   243  PHE243      0.0534
     29  CG        13.0260   18.8080    8.0140 C.ar  243  PHE243     -0.0203
     30  CD1       11.9230   18.0260    8.2190 C.ar  243  PHE243     -0.0042
     31  CD2       14.0110   18.7990    8.9440 C.ar  243  PHE243     -0.0042
     32  CE1       11.7490   17.3270    9.3370 C.ar  243  PHE243     -0.0003
     33  CE2       13.8540   18.0590   10.0820 C.ar  243  PHE243     -0.0003
     34  CZ        12.7110   17.3230   10.2530 C.ar  243  PHE243     -0.0000
     35  N         17.2460   14.3510    7.3900 N.3   274  PHE274     -0.1241
     36  CA        16.0700   14.4860    6.4730 C.3   274  PHE274      0.1605
     37  C         16.4930   14.8360    5.0420 C.2   274  PHE274      0.2264
     38  O         15.9520   14.2930    4.1060 O.2   274  PHE274     -0.2867
     39  CB        15.0140   15.4320    7.0410 C.3   274  PHE274      0.0534
     40  CG        14.1430   14.7630    8.1560 C.ar  274  PHE274     -0.0203
     41  CD1       14.5860   14.6780    9.4430 C.ar  274  PHE274     -0.0042
     42  CD2       12.8690   14.2350    7.8700 C.ar  274  PHE274     -0.0042
     43  CE1       13.7940   14.0950   10.4230 C.ar  274  PHE274     -0.0003
     44  CE2       12.0690   13.6140    8.8260 C.ar  274  PHE274     -0.0003
     45  CZ        12.5190   13.5730   10.1220 C.ar  274  PHE274     -0.0000
     46  N         13.4380    7.1460   11.8760 N.3   324  ARG324     -0.1245
     47  CA        13.5360    8.6310   11.8280 C.3   324  ARG324      0.1563
     48  C         14.9820    8.8540   11.6010 C.2   324  ARG324      0.2260
     49  O         15.7920    8.2220   12.2090 O.2   324  ARG324     -0.2867
     50  CB        13.0800    9.1970   13.1340 C.3   324  ARG324      0.0307
     51  CG        12.8130   10.6600   13.1960 C.3   324  ARG324      0.0489
     52  CD        14.0750   11.3770   13.4690 C.3   324  ARG324      0.2205
     53  NE        13.7670   12.7600   13.8510 N.pl3 324  ARG324     -0.0865
     54  CZ        14.6720   13.7040   14.0070 C.cat 324  ARG324      0.5346
     55  NH1       14.3140   14.9500   14.3950 N.pl3 324  ARG324      0.1354
     56  NH2       15.9700   13.4010   13.8200 N.pl3 324  ARG324      0.1354
     57  N          3.8410   13.5670    9.6430 N.3   429  PHE429     -0.1227
     58  CA         5.1810   13.2640   10.1150 C.3   429  PHE429      0.1736
     59  C          6.1290   14.2040    9.3740 C.2   429  PHE429      0.2596
     60  O          6.6000   13.8880    8.2520 O.2   429  PHE429     -0.2718
     61  CB         5.5740   11.7990    9.9040 C.3   429  PHE429      0.0547
     62  CG         6.8220   11.3850   10.6780 C.ar  429  PHE429     -0.0202
     63  CD1        8.0380   11.8230   10.3140 C.ar  429  PHE429     -0.0042
     64  CD2        6.7300   10.5680   11.8360 C.ar  429  PHE429     -0.0042
     65  CE1        9.1810   11.4730   11.0450 C.ar  429  PHE429     -0.0003
     66  CE2        7.8300   10.1710   12.5460 C.ar  429  PHE429     -0.0003
     67  CZ         9.0890   10.6400   12.1520 C.ar  429  PHE429     -0.0000
     68  N          6.3270   15.3780    9.9650 N.am  430  THR430     -0.1939
     69  CA         7.0230   16.4810    9.3830 C.3   430  THR430      0.2028
     70  C          7.7270   17.3070   10.4380 C.2   430  THR430      0.2642
     71  O          7.5210   17.0790   11.6340 O.2   430  THR430     -0.2714
     72  CB         6.0660   17.4400    8.6560 C.3   430  THR430      0.1808
     73  OG1        5.3000   18.1510    9.5970 O.3   430  THR430     -0.2208
     74  CG2        5.1410   16.6740    7.6630 C.3   430  THR430      0.0379
     75  N          8.5520   18.2680    9.9830 N.am  431  ASN431     -0.1957
     76  CA         8.8890   19.4270   10.7920 C.3   431  ASN431      0.1819
     77  C          7.5490   19.8840   11.4550 C.2   431  ASN431      0.2621
     78  O          6.6540   20.2520   10.7780 O.2   431  ASN431     -0.2715
     79  CB         9.5230   20.5340    9.9270 C.3   431  ASN431      0.1195
     80  CG         9.8690   21.7340   10.7170 C.2   431  ASN431      0.2630
     81  OD1       10.1400   21.6330   11.9510 O.2   431  ASN431     -0.2716
     82  ND2        9.8300   22.8970   10.0560 N.am  431  ASN431     -0.0877
     83  N          7.4560   19.8440   12.7980 N.am  432  LEU432     -0.1977
     84  CA         6.2070   19.9110   13.4910 C.3   432  LEU432      0.1596
     85  C          5.6140   21.2690   13.6820 C.2   432  LEU432      0.2287
     86  O          4.3650   21.4090   13.5390 O.2   432  LEU432     -0.2864
     87  CB         6.2330   19.0520   14.7720 C.3   432  LEU432      0.0297
     88  CG         6.3490   17.5910   14.4550 C.3   432  LEU432      0.0022
     89  CD1        6.8030   16.7050   15.5990 C.3   432  LEU432      0.0001
     90  CD2        5.0480   17.0030   13.8110 C.3   432  LEU432      0.0001
     91  N          9.3630    3.3960   17.5260 N.3   487  TRP487     -0.1241
     92  CA         8.1980    4.0530   18.1110 C.3   487  TRP487      0.1605
     93  C          7.2110    4.5850   17.1830 C.2   487  TRP487      0.2264
     94  O          6.1110    4.6590   17.5560 O.2   487  TRP487     -0.2867
     95  CB         8.6240    5.2120   18.9180 C.3   487  TRP487      0.0550
     96  CG         9.2980    6.2980   18.1900 C.ar  487  TRP487      0.0003
     97  CD1       10.6030    6.4590   17.9920 C.ar  487  TRP487      0.0946
     98  CD2        8.6490    7.4300   17.5900 C.ar  487  TRP487      0.0152
     99  NE1       10.8580    7.6530   17.3180 N.ar  487  TRP487     -0.2442
    100  CE2        9.6590    8.2850   17.1110 C.ar  487  TRP487      0.0810
    101  CE3        7.3440    7.8260   17.5000 C.ar  487  TRP487      0.0012
    102  CZ2        9.3780    9.4760   16.4940 C.ar  487  TRP487      0.0191
    103  CZ3        7.0750    8.9700   16.9100 C.ar  487  TRP487      0.0001
    104  CH2        8.0980    9.8060   16.4090 C.ar  487  TRP487      0.0015
    105  N          0.6220    7.6300   11.9860 N.3   502  PHE502     -0.1241
    106  CA         0.8240    8.8820   11.2580 C.3   502  PHE502      0.1605
    107  C          0.2580    8.8200    9.8410 C.2   502  PHE502      0.2264
    108  O          0.2430    7.7850    9.1770 O.2   502  PHE502     -0.2867
    109  CB         2.3050    9.1780   11.0660 C.3   502  PHE502      0.0534
    110  CG         3.0330    9.5390   12.3430 C.ar  502  PHE502     -0.0203
    111  CD1        3.0550   10.8590   12.7890 C.ar  502  PHE502     -0.0042
    112  CD2        3.6100    8.5370   13.0850 C.ar  502  PHE502     -0.0042
    113  CE1        3.6440   11.2080   13.9930 C.ar  502  PHE502     -0.0003
    114  CE2        4.2540    8.8730   14.2870 C.ar  502  PHE502     -0.0003
    115  CZ         4.2550   10.2200   14.7310 C.ar  502  PHE502     -0.0000
@<TRIPOS>BOND
     1    38    37    2
     2    37    36    1
     3    26    27    2
     4    26    25    1
     5    24    25    1
     6    36    39    1
     7    36    35    1
     8    25    28    1
     9    28    29    1
    10    39    40    1
    11    74    72    1
    12    42    40   ar
    13    42    44   ar
    14    29    30   ar
    15    29    31   ar
    16    40    41   ar
    17    30    32   ar
    18    60    59    2
    19    72    69    1
    20    72    73    1
    21    44    45   ar
    22    31    33   ar
    23   108   107    2
    24    32    34   ar
    25    59    68   am
    26    59    58    1
    27    69    68    1
    28    69    70    1
    29    41    43   ar
    30    57    58    1
    31   107   106    1
    32    61    58    1
    33    61    62    1
    34    79    80    1
    35    79    76    1
    36    75    70   am
    37    75    76    1
    38    82    80   am
    39    33    34   ar
    40    45    43   ar
    41    63    62   ar
    42    63    65   ar
    43    70    71    2
    44    62    64   ar
    45    80    81    2
    46    78    77    2
    47    76    77    1
    48    65    67   ar
    49   109   106    1
    50   109   110    1
    51   106   105    1
    52     7     5    1
    53    77    83   am
    54    48    47    1
    55    48    49    2
    56    47    46    1
    57    47    50    1
    58    64    66   ar
    59     3     2    1
    60     3     4    2
    61     2     5    1
    62     2     1    1
    63    67    66   ar
    64     5     6    1
    65   110   111   ar
    66   110   112   ar
    67   111   113   ar
    68    83    84    1
    69   112   114   ar
    70    50    51    1
    71    51    52    1
    72    52    53    1
    73    84    85    1
    74    84    87    1
    75    86    85    2
    76    90    88    1
    77    56    54    1
    78    53    54    2
    79   113   115   ar
    80    54    55    1
    81   114   115   ar
    82    88    87    1
    83    88    89    1
    84   104   102   ar
    85   104   103   ar
    86   102   100   ar
    87    14    13    1
    88   103   101   ar
    89   100    99   ar
    90   100    98   ar
    91    93    94    2
    92    93    92    1
    93    99    97   ar
    94   101    98   ar
    95    91    92    1
    96    98    96   ar
    97    97    96   ar
    98    13    15    1
    99    13    12    1
   100    92    95    1
   101    96    95    1
   102    22    21    1
   103    12     9    1
   104    21    23    1
   105    21    20    1
   106     9     8    1
   107     9    10    1
   108    11    10    2
   109    10    16   am
   110    20    17    1
   111    16    17    1
   112    17    18    1
   113    18    19    1
