@<TRIPOS>MOLECULE
tmp/6gqjA00.pdb
 226 216 0 0 0
SMALL
GASTEIGER

@<TRIPOS>ATOM
      1  N         43.0960   89.1640    2.6360 N.3    27  LYS27      -0.1245
      2  CA        41.9540   88.2810    2.8160 C.3    27  LYS27       0.1561
      3  C         40.6180   89.0230    3.0300 C.2    27  LYS27       0.2260
      4  O         40.5780   90.1490    3.5440 O.2    27  LYS27      -0.2867
      5  CB        42.2130   87.2690    3.9420 C.3    27  LYS27       0.0271
      6  CG        42.1110   87.8810    5.3270 C.3    27  LYS27       0.0035
      7  CD        41.9750   86.8130    6.3890 C.3    27  LYS27       0.0206
      8  CE        42.3300   87.3540    7.7570 C.3    27  LYS27       0.1093
      9  NZ        42.3060   86.3030    8.8110 N.3    27  LYS27      -0.1314
     10  N         37.4810   89.5190    5.0440 N.3    29  LEU29      -0.1231
     11  CA        37.1270   89.3330    6.4520 C.3    29  LEU29       0.1693
     12  C         35.6770   88.8820    6.5760 C.2    29  LEU29       0.2592
     13  O         35.3530   88.0310    7.4090 O.2    29  LEU29      -0.2718
     14  CB        37.3930   90.6320    7.2440 C.3    29  LEU29       0.0284
     15  CG        38.8530   91.1500    7.2410 C.3    29  LEU29       0.0019
     16  CD1       38.9430   92.5510    7.8410 C.3    29  LEU29       0.0001
     17  CD2       39.7700   90.2050    7.9730 C.3    29  LEU29       0.0001
     18  N         34.8310   89.4370    5.7160 N.am   30  GLY30      -0.1957
     19  CA        33.4060   89.1600    5.6440 C.3    30  GLY30       0.1869
     20  C         32.8380   89.5670    4.3060 C.2    30  GLY30       0.2309
     21  O         33.3210   90.5180    3.6930 O.2    30  GLY30      -0.2863
     22  N         34.1260   93.1540    3.2600 N.3    37  VAL37      -0.1245
     23  CA        35.1330   93.8290    4.0900 C.3    37  VAL37       0.1561
     24  C         36.4130   93.0460    3.8370 C.2    37  VAL37       0.2260
     25  O         36.4100   91.8350    3.9440 O.2    37  VAL37      -0.2867
     26  CB        34.7470   93.9200    5.5910 C.3    37  VAL37       0.0252
     27  CG1       35.9130   94.4560    6.4510 C.3    37  VAL37       0.0019
     28  CG2       33.5220   94.8000    5.7630 C.3    37  VAL37       0.0019
     29  N         40.9180   97.9300    7.4240 N.3    55  ALA55      -0.1231
     30  CA        39.7950   97.1230    6.9610 C.3    55  ALA55       0.1694
     31  C         39.1040   98.0030    5.9020 C.2    55  ALA55       0.2592
     32  O         38.9330   99.2040    6.0830 O.2    55  ALA55      -0.2718
     33  CB        38.8280   96.8080    8.1170 C.3    55  ALA55       0.0304
     34  N         38.7510   97.4150    4.7840 N.am   56  VAL56      -0.1966
     35  CA        38.1790   98.1710    3.6880 C.3    56  VAL56       0.1727
     36  C         36.8590   97.5480    3.2850 C.2    56  VAL56       0.2616
     37  O         36.8120   96.3820    2.9100 O.2    56  VAL56      -0.2715
     38  CB        39.1600   98.2920    2.4680 C.3    56  VAL56       0.0290
     39  CG1       38.5770   99.1960    1.3750 C.3    56  VAL56       0.0023
     40  CG2       40.5260   98.8130    2.9030 C.3    56  VAL56       0.0023
     41  N         35.7990   98.3320    3.3640 N.am   57  LYS57      -0.1977
     42  CA        34.4620   97.9260    2.9540 C.3    57  LYS57       0.1596
     43  C         34.2630   98.4070    1.5300 C.2    57  LYS57       0.2287
     44  O         34.6020   99.5400    1.2070 O.2    57  LYS57      -0.2864
     45  CB        33.3720   98.4750    3.8870 C.3    57  LYS57       0.0298
     46  CG        31.9940   97.8990    3.5700 C.3    57  LYS57       0.0038
     47  CD        31.0120   98.1650    4.6810 C.3    57  LYS57       0.0206
     48  CE        29.6180   97.7780    4.2630 C.3    57  LYS57       0.1093
     49  NZ        28.6560   98.0460    5.3350 N.3    57  LYS57      -0.1314
     50  N         26.6550  105.6680    3.9320 N.3    74  GLU74      -0.1245
     51  CA        27.3930  105.0690    5.0580 C.3    74  GLU74       0.1567
     52  C         28.6830  105.8580    5.2890 C.2    74  GLU74       0.2260
     53  O         28.9800  106.2350    6.4110 O.2    74  GLU74      -0.2867
     54  CB        27.6740  103.6010    4.7180 C.3    74  GLU74       0.0388
     55  CG        28.6370  102.8410    5.6260 C.3    74  GLU74       0.1160
     56  CD        28.5760  101.3340    5.4400 C.2    74  GLU74       0.3649
     57  OE1       28.2050  100.8760    4.3340 O.co2  74  GLU74      -0.2457
     58  OE2       28.8720  100.6050    6.4120 O.co2  74  GLU74      -0.2457
     59  N         27.8050  109.3080    6.7400 N.3    77  VAL77      -0.1231
     60  CA        27.4410  109.1160    8.1470 C.3    77  VAL77       0.1692
     61  C         28.6910  108.9190    9.0010 C.2    77  VAL77       0.2591
     62  O         28.8280  109.6030    9.9960 O.2    77  VAL77      -0.2718
     63  CB        26.3800  108.0000    8.3310 C.3    77  VAL77       0.0266
     64  CG1       26.2130  107.6070    9.8150 C.3    77  VAL77       0.0020
     65  CG2       25.0360  108.4350    7.7310 C.3    77  VAL77       0.0020
     66  N         29.6250  108.0410    8.5800 N.am   78  LEU78      -0.1980
     67  CA        30.8680  107.7990    9.2960 C.3    78  LEU78       0.1596
     68  C         31.7400  109.0490    9.3830 C.2    78  LEU78       0.2287
     69  O         32.3120  109.3180   10.4340 O.2    78  LEU78      -0.2864
     70  CB        31.6310  106.6320    8.6570 C.3    78  LEU78       0.0297
     71  CG        31.0980  105.2600    9.0110 C.3    78  LEU78       0.0022
     72  CD1       31.6770  104.2150    8.0870 C.3    78  LEU78       0.0001
     73  CD2       31.4110  104.9340   10.4960 C.3    78  LEU78       0.0001
     74  N         29.9190  111.5060   11.9070 N.3    81  LEU81      -0.1245
     75  CA        30.0360  111.1250   13.3130 C.3    81  LEU81       0.1561
     76  C         31.3950  111.4800   13.9100 C.2    81  LEU81       0.2260
     77  O         31.4750  111.8640   15.0790 O.2    81  LEU81      -0.2867
     78  CB        29.7590  109.6310   13.4940 C.3    81  LEU81       0.0270
     79  CG        28.3580  109.1390   13.1950 C.3    81  LEU81       0.0019
     80  CD1       28.3650  107.6460   13.0840 C.3    81  LEU81       0.0001
     81  CD2       27.3600  109.5920   14.2450 C.3    81  LEU81       0.0001
     82  N         33.2330  103.6720   18.6560 N.3    87  ILE87      -0.1231
     83  CA        32.6260  103.4950   17.3210 C.3    87  ILE87       0.1692
     84  C         33.7960  103.1620   16.4150 C.2    87  ILE87       0.2591
     85  O         34.9110  103.6060   16.7240 O.2    87  ILE87      -0.2718
     86  CB        31.8590  104.7770   16.9350 C.3    87  ILE87       0.0266
     87  CG1       30.6810  105.0730   17.9190 C.3    87  ILE87       0.0019
     88  CG2       31.4250  104.8020   15.4990 C.3    87  ILE87       0.0020
     89  CD1       29.5160  104.1830   17.8990 C.3    87  ILE87       0.0001
     90  N         33.5940  102.2730   15.3950 N.am   88  VAL88      -0.1980
     91  CA        34.6870  101.9370   14.4540 C.3    88  VAL88       0.1595
     92  C         35.0940  103.2420   13.7370 C.2    88  VAL88       0.2287
     93  O         34.2260  104.0120   13.2850 O.2    88  VAL88      -0.2864
     94  CB        34.3850  100.7350   13.5080 C.3    88  VAL88       0.0276
     95  CG1       35.5360  100.4400   12.5480 C.3    88  VAL88       0.0022
     96  CG2       34.1050   99.4990   14.3290 C.3    88  VAL88       0.0022
     97  N         35.5210  102.2720    1.6170 N.3   102  VAL102     -0.1245
     98  CA        35.4310  102.8590    2.9610 C.3   102  VAL102      0.1561
     99  C         36.5190  102.1860    3.7920 C.2   102  VAL102      0.2260
    100  O         36.5120  100.9680    3.9500 O.2   102  VAL102     -0.2867
    101  CB        34.0110  102.6970    3.5720 C.3   102  VAL102      0.0252
    102  CG1       33.9890  103.1620    5.0340 C.3   102  VAL102      0.0019
    103  CG2       32.9620  103.4500    2.7290 C.3   102  VAL102      0.0019
    104  N         38.5960  101.7630    7.2970 N.3   104  THR104     -0.1203
    105  CA        38.5340  101.9720    8.7280 C.3   104  THR104      0.1994
    106  C         39.7270  101.3020    9.3720 C.2   104  THR104      0.2618
    107  O         40.4900  100.5940    8.7070 O.2   104  THR104     -0.2717
    108  CB        37.2270  101.4610    9.3660 C.3   104  THR104      0.1784
    109  OG1       37.2180  100.0470    9.3390 O.3   104  THR104     -0.2211
    110  CG2       35.9550  102.0840    8.7620 C.3   104  THR104      0.0376
    111  N         39.8690  101.5330   10.6700 N.am  105  GLU105     -0.1965
    112  CA        40.8710  100.9270   11.5400 C.3   105  GLU105      0.1733
    113  C         40.5820   99.4360   11.6150 C.2   105  GLU105      0.2616
    114  O         39.4170   99.0090   11.5780 O.2   105  GLU105     -0.2715
    115  CB        40.7890  101.5440   12.9510 C.3   105  GLU105      0.0429
    116  CG        39.3960  101.3830   13.5680 C.3   105  GLU105      0.1163
    117  CD        39.2860  101.5590   15.0640 C.2   105  GLU105      0.3649
    118  OE1       39.8720  100.7480   15.8200 O.co2 105  GLU105     -0.2457
    119  OE2       38.5620  102.4900   15.4770 O.co2 105  GLU105     -0.2457
    120  N         41.6330   98.6480   11.6800 N.am  106  TYR106     -0.1960
    121  CA        41.4960   97.2110   11.7710 C.3   106  TYR106      0.1771
    122  C         41.3270   96.8460   13.2660 C.2   106  TYR106      0.2620
    123  O         42.0960   97.3420   14.0960 O.2   106  TYR106     -0.2715
    124  CB        42.7480   96.5750   11.1470 C.3   106  TYR106      0.0574
    125  CG        42.7130   95.0710   11.0690 C.ar  106  TYR106     -0.0198
    126  CD1       42.1390   94.4230    9.9790 C.ar  106  TYR106     -0.0009
    127  CD2       43.3090   94.2880   12.0560 C.ar  106  TYR106     -0.0009
    128  CE1       42.1530   93.0330    9.8730 C.ar  106  TYR106      0.0417
    129  CE2       43.3230   92.8950   11.9650 C.ar  106  TYR106      0.0417
    130  CZ        42.7550   92.2720   10.8640 C.ar  106  TYR106      0.1957
    131  OH        42.7840   90.8990   10.7490 O.3   106  TYR106     -0.2866
    132  N         40.3060   96.0270   13.6010 N.am  107  CYS107     -0.1954
    133  CA        40.0310   95.5490   14.9630 C.3   107  CYS107      0.1843
    134  C         40.5370   94.1360   15.1280 C.2   107  CYS107      0.2626
    135  O         39.9290   93.1990   14.5990 O.2   107  CYS107     -0.2714
    136  CB        38.5560   95.6830   15.3160 C.3   107  CYS107      0.0997
    137  SG        37.9550   97.3980   15.2680 S.3   107  CYS107     -0.0797
    138  N         41.6560   94.0210   15.9100 N.am  108  CYS108     -0.1954
    139  CA        42.4490   92.8270   16.2440 C.3   108  CYS108      0.1843
    140  C         41.6590   91.5380   16.4210 C.2   108  CYS108      0.2625
    141  O         42.0910   90.5120   15.9100 O.2   108  CYS108     -0.2714
    142  CB        43.3480   93.0380   17.4740 C.3   108  CYS108      0.0997
    143  SG        43.9290   94.7390   17.7630 S.3   108  CYS108     -0.0797
    144  N         40.5670   91.5640   17.2050 N.am  109  TYR109     -0.1960
    145  CA        39.8770   90.3510   17.6320 C.3   109  TYR109      0.1771
    146  C         38.5570   90.0520   16.9430 C.2   109  TYR109      0.2620
    147  O         37.8890   89.1060   17.3590 O.2   109  TYR109     -0.2715
    148  CB        39.7140   90.3540   19.1680 C.3   109  TYR109      0.0574
    149  CG        41.0450   90.5940   19.8430 C.ar  109  TYR109     -0.0198
    150  CD1       42.0160   89.5960   19.8860 C.ar  109  TYR109     -0.0009
    151  CD2       41.3810   91.8520   20.3360 C.ar  109  TYR109     -0.0009
    152  CE1       43.2590   89.8220   20.4670 C.ar  109  TYR109      0.0417
    153  CE2       42.6300   92.0960   20.9010 C.ar  109  TYR109      0.0417
    154  CZ        43.5670   91.0770   20.9620 C.ar  109  TYR109      0.1957
    155  OH        44.7820   91.3110   21.5530 O.3   109  TYR109     -0.2866
    156  N         38.2420   90.7460   15.8550 N.am  110  GLY110     -0.1940
    157  CA        37.0110   90.5210   15.1010 C.3   110  GLY110      0.2014
    158  C         35.7280   90.8850   15.8310 C.2   110  GLY110      0.2638
    159  O         35.7600   91.6370   16.7950 O.2   110  GLY110     -0.2714
    160  N         34.5770   90.3550   15.3800 N.am  111  ASP111     -0.1971
    161  CA        33.2910   90.6210   16.0270 C.3   111  ASP111      0.1709
    162  C         33.1870   90.0020   17.4360 C.2   111  ASP111      0.2293
    163  O         33.7220   88.9150   17.7060 O.2   111  ASP111     -0.2864
    164  CB        32.1040   90.2300   15.1460 C.3   111  ASP111      0.1436
    165  CG        32.0740   88.7670   14.8600 C.2   111  ASP111      0.3671
    166  OD1       32.8700   88.3170   14.0060 O.co2 111  ASP111     -0.2456
    167  OD2       31.2910   88.0520   15.5250 O.co2 111  ASP111     -0.2456
    168  N         25.8710  107.8520   19.3830 N.3   150  LEU150     -0.1245
    169  CA        25.0660  107.7260   18.1590 C.3   150  LEU150      0.1561
    170  C         23.7080  108.4010   18.2780 C.2   150  LEU150      0.2260
    171  O         23.2910  109.0010   17.3230 O.2   150  LEU150     -0.2867
    172  CB        24.8380  106.2440   17.7980 C.3   150  LEU150      0.0270
    173  CG        26.0360  105.4640   17.2580 C.3   150  LEU150      0.0019
    174  CD1       25.5940  104.1270   16.6840 C.3   150  LEU150      0.0001
    175  CD2       26.8000  106.2540   16.2000 C.3   150  LEU150      0.0001
    176  N         21.0800  102.8640   14.7890 N.3   157  HIS157     -0.1241
    177  CA        21.8320  101.7320   14.2340 C.3   157  HIS157      0.1621
    178  C         20.9380  100.8060   13.3480 C.2   157  HIS157      0.2264
    179  O         21.3070  100.5170   12.2080 O.2   157  HIS157     -0.2867
    180  CB        22.4810  100.9110   15.3550 C.3   157  HIS157      0.0745
    181  CG        23.5150   99.9560   14.8580 C.ar  157  HIS157      0.0817
    182  ND1       23.1870   98.8880   14.0530 N.ar  157  HIS157     -0.2268
    183  CD2       24.8460   99.9530   15.0590 C.ar  157  HIS157      0.1154
    184  CE1       24.3280   98.2760   13.8010 C.ar  157  HIS157      0.1986
    185  NE2       25.3440   98.8730   14.4030 N.ar  157  HIS157     -0.2212
    186  N         32.8260   95.1950   17.2660 N.3   166  LEU166     -0.1245
    187  CA        34.1760   94.6660   17.0270 C.3   166  LEU166      0.1561
    188  C         34.9880   94.7820   18.3010 C.2   166  LEU166      0.2260
    189  O         34.7030   95.6310   19.1370 O.2   166  LEU166     -0.2867
    190  CB        34.8650   95.3790   15.8550 C.3   166  LEU166      0.0270
    191  CG        34.1830   95.2160   14.4990 C.3   166  LEU166      0.0019
    192  CD1       34.7250   96.1990   13.5100 C.3   166  LEU166      0.0001
    193  CD2       34.3670   93.8270   13.9410 C.3   166  LEU166      0.0001
    194  N         31.3820   99.8450   18.0340 N.3   175  ILE175     -0.1231
    195  CA        30.1660   99.6010   17.2680 C.3   175  ILE175      0.1692
    196  C         30.4770   99.7710   15.7910 C.2   175  ILE175      0.2592
    197  O         31.1340  100.7320   15.3930 O.2   175  ILE175     -0.2718
    198  CB        29.0170  100.5270   17.7170 C.3   175  ILE175      0.0266
    199  CG1       28.7220  100.2900   19.2110 C.3   175  ILE175      0.0019
    200  CG2       27.7330  100.2910   16.8550 C.3   175  ILE175      0.0020
    201  CD1       28.0680  101.3450   19.8440 C.3   175  ILE175      0.0001
    202  N         30.0200   98.8300   14.9780 N.am  176  CYS176     -0.1956
    203  CA        30.1930   98.9120   13.5520 C.3   176  CYS176      0.1843
    204  C         28.8630   98.5150   12.9510 C.2   176  CYS176      0.2625
    205  O         27.8790   98.3490   13.6760 O.2   176  CYS176     -0.2714
    206  CB        31.3230   97.9810   13.0970 C.3   176  CYS176      0.0997
    207  SG        30.8960   96.2220   13.1050 S.3   176  CYS176     -0.0797
    208  N         28.8390   98.3190   11.6300 N.am  177  ASP177     -0.1957
    209  CA        27.6610   97.8660   10.9120 C.3   177  ASP177      0.1840
    210  C         28.1440   97.1810    9.6330 C.2   177  ASP177      0.2622
    211  O         28.5740   97.8530    8.7020 O.2   177  ASP177     -0.2715
    212  CB        26.6860   98.9970   10.6140 C.3   177  ASP177      0.1450
    213  CG        25.3290   98.5180   10.0910 C.2   177  ASP177      0.3671
    214  OD1       25.1300   97.2920    9.9880 O.co2 177  ASP177     -0.2456
    215  OD2       24.4660   99.3730    9.8050 O.co2 177  ASP177     -0.2456
    216  N         28.1820   95.8280    9.6490 N.am  178  PHE178     -0.1974
    217  CA        28.6340   95.0400    8.4920 C.3   178  PHE178      0.1639
    218  C         27.7370   95.2770    7.2900 C.2   178  PHE178      0.2290
    219  O         28.2310   95.3290    6.1740 O.2   178  PHE178     -0.2864
    220  CB        28.7320   93.5440    8.8170 C.3   178  PHE178      0.0560
    221  CG        30.0130   93.1930    9.5250 C.ar  178  PHE178     -0.0200
    222  CD1       30.0940   93.2360   10.9240 C.ar  178  PHE178     -0.0042
    223  CD2       31.1570   92.8580    8.8060 C.ar  178  PHE178     -0.0042
    224  CE1       31.2700   92.8970   11.5880 C.ar  178  PHE178     -0.0003
    225  CE2       32.3380   92.5090    9.4730 C.ar  178  PHE178     -0.0003
    226  CZ        32.3830   92.5220   10.8600 C.ar  178  PHE178     -0.0000
@<TRIPOS>BOND
     1    44    43    2
     2    39    38    1
     3    43    42    1
     4    97    98    1
     5    38    40    1
     6    38    35    1
     7     1     2    1
     8   103   101    1
     9     2     3    1
    10     2     5    1
    11    37    36    2
    12    42    41    1
    13    42    45    1
    14    98   101    1
    15    98    99    1
    16     3     4    2
    17    22    23    1
    18    36    41   am
    19    36    35    1
    20    46    45    1
    21    46    47    1
    22   101   102    1
    23    35    34    1
    24    21    20    2
    25    99   100    2
    26    24    25    2
    27    24    23    1
    28    50    51    1
    29     5     6    1
    30    23    26    1
    31    48    47    1
    32    48    49    1
    33    20    19    1
    34    57    56   ar
    35    54    51    1
    36    54    55    1
    37    34    31   am
    38    10    11    1
    39    51    52    1
    40    52    53    2
    41     6     7    1
    42    56    55    1
    43    56    58   ar
    44    26    28    1
    45    26    27    1
    46    19    18    1
    47    18    12   am
    48    31    32    2
    49    31    30    1
    50   219   218    2
    51     7     8    1
    52    11    12    1
    53    11    14    1
    54    12    13    2
    55    59    60    1
    56    30    29    1
    57    30    33    1
    58    15    14    1
    59    15    16    1
    60    15    17    1
    61   218   217    1
    62   104   105    1
    63    65    63    1
    64     8     9    1
    65    72    71    1
    66    60    63    1
    67    60    61    1
    68    63    64    1
    69   217   220    1
    70   217   216    1
    71    66    61   am
    72    66    67    1
    73    70    71    1
    74    70    67    1
    75   211   210    2
    76   107   106    2
    77   105   108    1
    78   105   106    1
    79   110   108    1
    80   223   225   ar
    81   223   221   ar
    82   220   221    1
    83    61    62    2
    84    71    73    1
    85    67    68    1
    86   109   108    1
    87   106   111   am
    88    68    69    2
    89   225   226   ar
    90   221   222   ar
    91   210   216   am
    92   210   209    1
    93   215   213   ar
    94   128   126   ar
    95   128   130   ar
    96   126   125   ar
    97   214   213   ar
    98   213   212    1
    99   212   209    1
   100   111   112    1
   101   131   130    1
   102   226   224   ar
   103   130   129   ar
   104   209   208    1
   105   222   224   ar
   106   125   124    1
   107   125   127   ar
   108   124   121    1
   109   112   113    1
   110   112   115    1
   111   114   113    2
   112   113   120   am
   113   208   204   am
   114   120   121    1
   115   121   122    1
   116    74    75    1
   117   129   127   ar
   118   179   178    2
   119    95    94    1
   120   204   203    1
   121   204   205    2
   122   115   116    1
   123    80    79    1
   124   206   207    1
   125   206   203    1
   126    79    78    1
   127    79    81    1
   128   122   132   am
   129   122   123    2
   130    93    92    2
   131    75    78    1
   132    75    76    1
   133   178   177    1
   134    94    96    1
   135    94    91    1
   136   192   191    1
   137   203   202    1
   138   116   117    1
   139   132   133    1
   140    92    91    1
   141   184   182   ar
   142   184   185   ar
   143    76    77    2
   144   193   191    1
   145   166   165   ar
   146   182   181   ar
   147   177   176    1
   148   177   180    1
   149   185   183   ar
   150    91    90    1
   151   191   190    1
   152   135   134    2
   153   181   183   ar
   154   181   180    1
   155   165   164    1
   156   165   167   ar
   157   133   134    1
   158   133   136    1
   159   202   196   am
   160   117   119   ar
   161   117   118   ar
   162   157   158    1
   163   157   156    1
   164   134   138   am
   165   164   161    1
   166   137   136    1
   167   160   158   am
   168   160   161    1
   169   197   196    2
   170    90    84   am
   171    88    86    1
   172   196   195    1
   173   158   159    2
   174   190   187    1
   175   156   146   am
   176   138   139    1
   177   141   140    2
   178   161   162    1
   179   175   173    1
   180   139   140    1
   181   139   142    1
   182    84    85    2
   183    84    83    1
   184   140   144   am
   185   174   173    1
   186   200   198    1
   187    86    83    1
   188    86    87    1
   189   146   147    2
   190   146   145    1
   191   187   186    1
   192   187   188    1
   193   144   145    1
   194   173   172    1
   195   195   198    1
   196   195   194    1
   197    83    82    1
   198   171   170    2
   199   162   163    2
   200   142   143    1
   201   145   148    1
   202   198   199    1
   203   172   169    1
   204    89    87    1
   205   169   170    1
   206   169   168    1
   207   188   189    2
   208   148   149    1
   209   199   201    1
   210   149   150   ar
   211   149   151   ar
   212   150   152   ar
   213   151   153   ar
   214   152   154   ar
   215   153   154   ar
   216   154   155    1
