@<TRIPOS>MOLECULE
tmp/6gqkA00.pdb
 212 202 0 0 0
SMALL
GASTEIGER

@<TRIPOS>ATOM
      1  N         43.8720   91.3020    2.7610 N.3    27  LYS27      -0.1245
      2  CA        42.7130   90.4220    2.9230 C.3    27  LYS27       0.1561
      3  C         41.3830   91.1710    3.1100 C.2    27  LYS27       0.2260
      4  O         41.3520   92.2900    3.6380 O.2    27  LYS27      -0.2867
      5  CB        42.9250   89.3990    4.0530 C.3    27  LYS27       0.0271
      6  CG        42.8520   89.9450    5.4670 C.3    27  LYS27       0.0035
      7  CD        43.2340   88.8850    6.4960 C.3    27  LYS27       0.0206
      8  CE        42.8950   89.3620    7.8870 C.3    27  LYS27       0.1093
      9  NZ        43.1740   88.3290    8.9190 N.3    27  LYS27      -0.1314
     10  N         38.0950   91.6210    5.0920 N.3    29  LEU29      -0.1231
     11  CA        37.6760   91.4450    6.4860 C.3    29  LEU29       0.1693
     12  C         36.2120   91.0060    6.6050 C.2    29  LEU29       0.2592
     13  O         35.8790   90.2040    7.4760 O.2    29  LEU29      -0.2718
     14  CB        37.9330   92.7370    7.2960 C.3    29  LEU29       0.0284
     15  CG        39.4010   93.2590    7.3480 C.3    29  LEU29       0.0019
     16  CD1       39.4660   94.6400    7.9770 C.3    29  LEU29       0.0001
     17  CD2       40.3420   92.2830    8.0880 C.3    29  LEU29       0.0001
     18  N         35.3640   91.5450    5.7310 N.am   30  GLY30      -0.1957
     19  CA        33.9330   91.2650    5.6670 C.3    30  GLY30       0.1869
     20  C         33.3570   91.7170    4.3390 C.2    30  GLY30       0.2309
     21  O         33.8670   92.6700    3.7380 O.2    30  GLY30      -0.2863
     22  N         34.7060   95.3620    3.2410 N.3    37  VAL37      -0.1245
     23  CA        35.7180   96.0250    4.0670 C.3    37  VAL37       0.1561
     24  C         37.0230   95.2430    3.8890 C.2    37  VAL37       0.2260
     25  O         37.0400   94.0330    4.1080 O.2    37  VAL37      -0.2867
     26  CB        35.3240   96.1940    5.5630 C.3    37  VAL37       0.0252
     27  CG1       36.5240   96.6540    6.3950 C.3    37  VAL37       0.0019
     28  CG2       34.1990   97.1860    5.7090 C.3    37  VAL37       0.0019
     29  N         41.4820  100.2680    7.5820 N.3    55  ALA55      -0.1245
     30  CA        40.3510   99.4910    7.0700 C.3    55  ALA55       0.1562
     31  C         39.7660  100.3200    5.9140 C.2    55  ALA55       0.2260
     32  O         39.6770  101.5400    6.0320 O.2    55  ALA55      -0.2867
     33  CB        39.3040   99.2880    8.1630 C.3    55  ALA55       0.0290
     34  N         36.4760  100.6450    3.1970 N.3    57  LYS57      -0.1245
     35  CA        35.1440  100.2490    2.7370 C.3    57  LYS57       0.1561
     36  C         34.9590  100.6950    1.2770 C.2    57  LYS57       0.2260
     37  O         35.2550  101.8350    0.9280 O.2    57  LYS57      -0.2867
     38  CB        34.0280  100.7730    3.6590 C.3    57  LYS57       0.0271
     39  CG        32.5980  100.3690    3.2120 C.3    57  LYS57       0.0035
     40  CD        31.8010   99.7060    4.2940 C.3    57  LYS57       0.0206
     41  CE        30.8950  100.6590    4.9830 C.3    57  LYS57       0.1093
     42  NZ        30.5970  100.2310    6.3590 N.3    57  LYS57      -0.1314
     43  N         27.3780  107.9350    3.9500 N.3    74  GLU74      -0.1245
     44  CA        28.1240  107.4470    5.1190 C.3    74  GLU74       0.1567
     45  C         29.3630  108.3300    5.3300 C.2    74  GLU74       0.2260
     46  O         29.6350  108.7490    6.4570 O.2    74  GLU74      -0.2867
     47  CB        28.5450  105.9730    4.9320 C.3    74  GLU74       0.0388
     48  CG        29.2940  105.3990    6.1290 C.3    74  GLU74       0.1160
     49  CD        29.8220  103.9900    5.9500 C.2    74  GLU74       0.3649
     50  OE1       29.0760  103.0310    6.2490 O.co2  74  GLU74      -0.2457
     51  OE2       30.9860  103.8410    5.5120 O.co2  74  GLU74      -0.2457
     52  N         28.3940  111.7360    6.8320 N.3    77  VAL77      -0.1231
     53  CA        28.0840  111.5620    8.2610 C.3    77  VAL77       0.1692
     54  C         29.3830  111.4570    9.0840 C.2    77  VAL77       0.2591
     55  O         29.5300  112.1770   10.0710 O.2    77  VAL77      -0.2718
     56  CB        27.0810  110.3990    8.5340 C.3    77  VAL77       0.0266
     57  CG1       26.9210  110.1350   10.0360 C.3    77  VAL77       0.0020
     58  CG2       25.7120  110.6970    7.9040 C.3    77  VAL77       0.0020
     59  N         30.3400  110.6170    8.6420 N.am   78  LEU78      -0.1980
     60  CA        31.6250  110.4480    9.3260 C.3    78  LEU78       0.1596
     61  C         32.4290  111.7540    9.3830 C.2    78  LEU78       0.2287
     62  O         32.9730  112.0860   10.4330 O.2    78  LEU78      -0.2864
     63  CB        32.4490  109.3130    8.6920 C.3    78  LEU78       0.0297
     64  CG        32.0070  107.8860    9.0060 C.3    78  LEU78       0.0022
     65  CD1       32.7980  106.8920    8.1900 C.3    78  LEU78       0.0001
     66  CD2       32.1950  107.5570   10.4740 C.3    78  LEU78       0.0001
     67  N         30.5240  114.1110   11.8830 N.3    81  LEU81      -0.1245
     68  CA        30.6590  113.7050   13.2830 C.3    81  LEU81       0.1561
     69  C         31.9470  114.1650   13.9710 C.2    81  LEU81       0.2260
     70  O         31.9050  114.5260   15.1460 O.2    81  LEU81      -0.2867
     71  CB        30.5000  112.1820   13.4700 C.3    81  LEU81       0.0270
     72  CG        29.1230  111.5540   13.2830 C.3    81  LEU81       0.0019
     73  CD1       29.2250  110.0450   13.3840 C.3    81  LEU81       0.0001
     74  CD2       28.1070  112.0800   14.2990 C.3    81  LEU81       0.0001
     75  N         33.7620  105.9080   18.9580 N.3    87  ILE87      -0.1231
     76  CA        33.2100  105.6860   17.6230 C.3    87  ILE87       0.1692
     77  C         34.3840  105.3840   16.6840 C.2    87  ILE87       0.2591
     78  O         35.4490  105.9750   16.8660 O.2    87  ILE87      -0.2718
     79  CB        32.3830  106.9080   17.1160 C.3    87  ILE87       0.0266
     80  CG1       31.3990  107.4860   18.2020 C.3    87  ILE87       0.0019
     81  CG2       31.6540  106.5740   15.8170 C.3    87  ILE87       0.0020
     82  CD1       30.1930  106.7110   18.5040 C.3    87  ILE87       0.0001
     83  N         34.1910  104.4680   15.6910 N.am   88  VAL88      -0.1980
     84  CA        35.1850  104.1890   14.6390 C.3    88  VAL88       0.1595
     85  C         35.4070  105.5420   13.8770 C.2    88  VAL88       0.2287
     86  O         34.4270  106.1750   13.4390 O.2    88  VAL88      -0.2864
     87  CB        34.7110  103.0170   13.7180 C.3    88  VAL88       0.0276
     88  CG1       35.1830  103.1860   12.2860 C.3    88  VAL88       0.0022
     89  CG2       35.1830  101.6780   14.2650 C.3    88  VAL88       0.0022
     90  N         38.9500  104.1770    7.3370 N.3   104  THR104     -0.1203
     91  CA        38.6960  104.2630    8.7790 C.3   104  THR104      0.1994
     92  C         39.7870  103.5290    9.5590 C.2   104  THR104      0.2618
     93  O         40.6020  102.8120    8.9650 O.2   104  THR104     -0.2717
     94  CB        37.2920  103.7580    9.1220 C.3   104  THR104      0.1784
     95  OG1       37.1780  102.4110    8.6740 O.3   104  THR104     -0.2211
     96  CG2       36.1660  104.6410    8.5310 C.3   104  THR104      0.0376
     97  N         39.8080  103.7030   10.8790 N.am  105  GLU105     -0.1965
     98  CA        40.8490  103.1050   11.7330 C.3   105  GLU105      0.1733
     99  C         40.7060  101.5930   11.9200 C.2   105  GLU105      0.2616
    100  O         39.6050  101.0540   12.0070 O.2   105  GLU105     -0.2715
    101  CB        40.9460  103.8190   13.0890 C.3   105  GLU105      0.0429
    102  CG        39.6970  103.6840   13.9530 C.3   105  GLU105      0.1163
    103  CD        39.7620  104.4280   15.2710 C.2   105  GLU105      0.3649
    104  OE1       40.7910  104.3210   15.9750 O.co2 105  GLU105     -0.2457
    105  OE2       38.7750  105.1170   15.6020 O.co2 105  GLU105     -0.2457
    106  N         41.8380  100.9210   11.9320 N.am  106  TYR106     -0.1960
    107  CA        41.9000   99.4800   12.0970 C.3   106  TYR106      0.1771
    108  C         41.7640   99.1240   13.6020 C.2   106  TYR106      0.2620
    109  O         42.4340   99.7370   14.4330 O.2   106  TYR106     -0.2715
    110  CB        43.2090   98.9500   11.4820 C.3   106  TYR106      0.0574
    111  CG        43.2700   97.4410   11.4150 C.ar  106  TYR106     -0.0198
    112  CD1       42.7410   96.7500   10.3280 C.ar  106  TYR106     -0.0009
    113  CD2       43.8610   96.6990   12.4370 C.ar  106  TYR106     -0.0009
    114  CE1       42.7780   95.3560   10.2710 C.ar  106  TYR106      0.0417
    115  CE2       43.9080   95.3050   12.3870 C.ar  106  TYR106      0.0417
    116  CZ        43.3670   94.6380   11.3010 C.ar  106  TYR106      0.1957
    117  OH        43.4030   93.2660   11.2580 O.3   106  TYR106     -0.2866
    118  N         40.8690   98.1760   13.9410 N.am  107  CYS107     -0.1954
    119  CA        40.6450   97.6950   15.3260 C.3   107  CYS107      0.1843
    120  C         41.1220   96.2380   15.4100 C.2   107  CYS107      0.2626
    121  O         40.4660   95.3340   14.8940 O.2   107  CYS107     -0.2714
    122  CB        39.1820   97.8550   15.7360 C.3   107  CYS107      0.0997
    123  SG        38.5620   99.5580   15.5900 S.3   107  CYS107     -0.0797
    124  N         42.2620   96.0430   16.0930 N.am  108  CYS108     -0.1954
    125  CA        43.0370   94.8050   16.1960 C.3   108  CYS108      0.1843
    126  C         42.2910   93.5570   16.6960 C.2   108  CYS108      0.2625
    127  O         42.6790   92.4720   16.2780 O.2   108  CYS108     -0.2714
    128  CB        44.3320   95.0100   16.9850 C.3   108  CYS108      0.0997
    129  SG        44.1280   95.7720   18.6210 S.3   108  CYS108     -0.0797
    130  N         41.2550   93.6690   17.5270 N.am  109  TYR109     -0.1960
    131  CA        40.5690   92.4730   18.0260 C.3   109  TYR109      0.1771
    132  C         39.2520   92.1260   17.2990 C.2   109  TYR109      0.2620
    133  O         38.6310   91.1240   17.6610 O.2   109  TYR109     -0.2715
    134  CB        40.3750   92.5340   19.5520 C.3   109  TYR109      0.0574
    135  CG        41.7140   92.5870   20.2490 C.ar  109  TYR109     -0.0198
    136  CD1       42.5640   91.4810   20.2510 C.ar  109  TYR109     -0.0009
    137  CD2       42.1940   93.7780   20.7830 C.ar  109  TYR109     -0.0009
    138  CE1       43.8240   91.5410   20.8280 C.ar  109  TYR109      0.0417
    139  CE2       43.4550   93.8500   21.3630 C.ar  109  TYR109      0.0417
    140  CZ        44.2680   92.7250   21.3860 C.ar  109  TYR109      0.1957
    141  OH        45.5200   92.7410   21.9620 O.3   109  TYR109     -0.2866
    142  N         38.8980   92.8670   16.2500 N.am  110  GLY110     -0.1940
    143  CA        37.6800   92.6140   15.4690 C.3   110  GLY110      0.2014
    144  C         36.3810   92.9420   16.1940 C.2   110  GLY110      0.2638
    145  O         36.3910   93.7330   17.1360 O.2   110  GLY110     -0.2714
    146  N         35.2430   92.3420   15.7630 N.am  111  ASP111     -0.1971
    147  CA        33.9230   92.5930   16.3880 C.3   111  ASP111      0.1709
    148  C         33.7850   91.9820   17.7970 C.2   111  ASP111      0.2293
    149  O         34.3500   90.9100   18.0770 O.2   111  ASP111     -0.2864
    150  CB        32.7640   92.1610   15.4790 C.3   111  ASP111      0.1436
    151  CG        32.5670   90.6650   15.3930 C.2   111  ASP111      0.3671
    152  OD1       33.3050   90.0110   14.6250 O.co2 111  ASP111     -0.2456
    153  OD2       31.7000   90.1400   16.1180 O.co2 111  ASP111     -0.2456
    154  N         26.3940  110.2910   19.6420 N.3   157  LEU157     -0.1245
    155  CA        25.6290  110.1390   18.3890 C.3   157  LEU157      0.1561
    156  C         24.2940  110.8900   18.4480 C.2   157  LEU157      0.2260
    157  O         23.9540  111.6050   17.5010 O.2   157  LEU157     -0.2867
    158  CB        25.3880  108.6530   18.1050 C.3   157  LEU157      0.0270
    159  CG        26.1480  107.9750   16.9420 C.3   157  LEU157      0.0019
    160  CD1       27.4550  108.6950   16.5550 C.3   157  LEU157      0.0001
    161  CD2       26.4420  106.5170   17.2590 C.3   157  LEU157      0.0001
    162  N         21.3680  105.2520   14.9160 N.3   164  HIS164     -0.1241
    163  CA        22.1640  104.1350   14.4080 C.3   164  HIS164      0.1621
    164  C         21.3220  103.1630   13.5560 C.2   164  HIS164      0.2264
    165  O         21.7180  102.8390   12.4280 O.2   164  HIS164     -0.2867
    166  CB        22.8830  103.3960   15.5700 C.3   164  HIS164      0.0745
    167  CG        23.9250  102.4290   15.1000 C.ar  164  HIS164      0.0817
    168  ND1       23.5870  101.2780   14.3890 N.ar  164  HIS164     -0.2268
    169  CD2       25.2700  102.4830   15.2320 C.ar  164  HIS164      0.1154
    170  CE1       24.7340  100.6720   14.1280 C.ar  164  HIS164      0.1986
    171  NE2       25.7750  101.3570   14.6110 N.ar  164  HIS164     -0.2212
    172  N         33.3200   97.2690   17.6450 N.3   173  LEU173     -0.1245
    173  CA        34.6830   96.7560   17.4310 C.3   173  LEU173      0.1561
    174  C         35.5190   96.9310   18.6840 C.2   173  LEU173      0.2260
    175  O         35.2350   97.8110   19.4990 O.2   173  LEU173     -0.2867
    176  CB        35.3700   97.4340   16.2120 C.3   173  LEU173      0.0270
    177  CG        34.6930   97.2090   14.8340 C.3   173  LEU173      0.0019
    178  CD1       35.3940   97.9800   13.7400 C.3   173  LEU173      0.0001
    179  CD2       34.6650   95.7450   14.4500 C.3   173  LEU173      0.0001
    180  N         31.8370  101.9620   18.5020 N.3   182  ILE182     -0.1231
    181  CA        30.6020  101.7580   17.7410 C.3   182  ILE182      0.1692
    182  C         30.9160  101.8600   16.2310 C.2   182  ILE182      0.2592
    183  O         31.6460  102.7570   15.8070 O.2   182  ILE182     -0.2718
    184  CB        29.4800  102.7430   18.1610 C.3   182  ILE182      0.0266
    185  CG1       29.0980  102.5140   19.6410 C.3   182  ILE182      0.0019
    186  CG2       28.2180  102.5940   17.2440 C.3   182  ILE182      0.0020
    187  CD1       28.5920  103.6920   20.3220 C.3   182  ILE182      0.0001
    188  N         30.3970  100.9120   15.4490 N.am  183  CYS183     -0.1956
    189  CA        30.5920  100.8900   14.0170 C.3   183  CYS183      0.1843
    190  C         29.2860  100.5130   13.3140 C.2   183  CYS183      0.2625
    191  O         28.2640  100.3210   13.9680 O.2   183  CYS183     -0.2714
    192  CB        31.7400   99.9440   13.6460 C.3   183  CYS183      0.0997
    193  SG        31.2720   98.1980   13.5070 S.3   183  CYS183     -0.0797
    194  N         29.3250  100.4410   11.9760 N.am  184  ASP184     -0.1957
    195  CA        28.2340   99.9960   11.1300 C.3   184  ASP184      0.1840
    196  C         28.8290   99.3700    9.8680 C.2   184  ASP184      0.2622
    197  O         29.3100  100.0940    8.9850 O.2   184  ASP184     -0.2715
    198  CB        27.2300  101.1110   10.8010 C.3   184  ASP184      0.1450
    199  CG        25.8730  100.5990   10.2760 C.2   184  ASP184      0.3671
    200  OD1       25.7820   99.4110    9.9010 O.co2 184  ASP184     -0.2456
    201  OD2       24.9080  101.3800   10.2670 O.co2 184  ASP184     -0.2456
    202  N         28.8380   98.0140    9.8170 N.am  185  PHE185     -0.1974
    203  CA        29.3460   97.2420    8.6730 C.3   185  PHE185      0.1639
    204  C         28.5120   97.5450    7.4220 C.2   185  PHE185      0.2290
    205  O         29.0590   97.5970    6.3240 O.2   185  PHE185     -0.2864
    206  CB        29.3520   95.7260    8.9790 C.3   185  PHE185      0.0560
    207  CG        30.5740   95.2500    9.7380 C.ar  185  PHE185     -0.0200
    208  CD1       30.6060   95.2840   11.1250 C.ar  185  PHE185     -0.0042
    209  CD2       31.6900   94.7600    9.0630 C.ar  185  PHE185     -0.0042
    210  CE1       31.7230   94.8280   11.8250 C.ar  185  PHE185     -0.0003
    211  CE2       32.7990   94.2790    9.7640 C.ar  185  PHE185     -0.0003
    212  CZ        32.8150   94.3290   11.1410 C.ar  185  PHE185     -0.0000
@<TRIPOS>BOND
     1    37    36    2
     2    36    35    1
     3    35    34    1
     4    35    38    1
     5     1     2    1
     6     2     3    1
     7     2     5    1
     8     3     4    2
     9    39    38    1
    10    39    40    1
    11    22    23    1
    12    21    20    2
    13    24    23    1
    14    24    25    2
    15    43    44    1
    16     5     6    1
    17    23    26    1
    18    40    41    1
    19    20    19    1
    20    47    44    1
    21    47    48    1
    22    41    42    1
    23    10    11    1
    24    44    45    1
    25    45    46    2
    26     6     7    1
    27    51    49   ar
    28    26    28    1
    29    26    27    1
    30    19    18    1
    31    18    12   am
    32    31    32    2
    33    31    30    1
    34    49    48    1
    35    49    50   ar
    36   205   204    2
    37    11    12    1
    38    11    14    1
    39     7     8    1
    40    12    13    2
    41    52    53    1
    42    30    29    1
    43    30    33    1
    44    14    15    1
    45    90    91    1
    46    15    16    1
    47    15    17    1
    48   204   203    1
    49     8     9    1
    50    58    56    1
    51    65    64    1
    52    53    56    1
    53    53    54    1
    54    96    94    1
    55    56    57    1
    56    59    54   am
    57    59    60    1
    58   203   206    1
    59   203   202    1
    60    95    94    1
    61    63    64    1
    62    63    60    1
    63    91    94    1
    64    91    92    1
    65    93    92    2
    66   206   207    1
    67   197   196    2
    68    64    66    1
    69   209   207   ar
    70   209   211   ar
    71    54    55    2
    72    60    61    1
    73    61    62    2
    74    92    97   am
    75   207   208   ar
    76   211   212   ar
    77   202   196   am
    78   196   195    1
    79   200   199   ar
    80   201   199   ar
    81   114   112   ar
    82   114   116   ar
    83   199   198    1
    84   112   111   ar
    85   198   195    1
    86    97    98    1
    87   208   210   ar
    88   195   194    1
    89   212   210   ar
    90   117   116    1
    91   116   115   ar
    92   111   110    1
    93   111   113   ar
    94   110   107    1
    95    98    99    1
    96    98   101    1
    97    67    68    1
    98    99   106   am
    99    99   100    2
   100   106   107    1
   101   194   190   am
   102   107   108    1
   103    88    87    1
   104   115   113   ar
   105   165   164    2
   106   101   102    1
   107    68    71    1
   108    68    69    1
   109    72    73    1
   110    72    71    1
   111    72    74    1
   112   190   191    2
   113   190   189    1
   114    86    85    2
   115   193   192    1
   116   164   163    1
   117   108   118   am
   118   108   109    2
   119   192   189    1
   120    87    89    1
   121    87    84    1
   122   178   177    1
   123    85    84    1
   124   118   119    1
   125   102   103    1
   126    69    70    2
   127   189   188    1
   128   170   168   ar
   129   170   171   ar
   130   168   167   ar
   131   163   162    1
   132   163   166    1
   133   179   177    1
   134   171   169   ar
   135   152   151   ar
   136    84    83    1
   137   177   176    1
   138   121   120    2
   139   167   169   ar
   140   167   166    1
   141   103   105   ar
   142   103   104   ar
   143   119   120    1
   144   119   122    1
   145   151   150    1
   146   151   153   ar
   147   120   124   am
   148   188   182   am
   149   143   144    1
   150   143   142    1
   151   150   147    1
   152   123   122    1
   153    83    77   am
   154   146   144   am
   155   146   147    1
   156   183   182    2
   157    81    79    1
   158   124   125    1
   159   144   145    2
   160   125   126    1
   161   125   128    1
   162   176   173    1
   163   182   181    1
   164   142   132   am
   165   127   126    2
   166   147   148    1
   167   160   159    1
   168    77    78    2
   169    77    76    1
   170   126   130   am
   171   159   161    1
   172   159   158    1
   173   128   129    1
   174    79    76    1
   175    79    80    1
   176   186   184    1
   177   132   133    2
   178   132   131    1
   179   173   172    1
   180   173   174    1
   181   157   156    2
   182   130   131    1
   183    76    75    1
   184   181   184    1
   185   181   180    1
   186   148   149    2
   187   131   134    1
   188   158   155    1
   189   184   185    1
   190    80    82    1
   191   155   156    1
   192   155   154    1
   193   174   175    2
   194   134   135    1
   195   185   187    1
   196   135   136   ar
   197   135   137   ar
   198   136   138   ar
   199   137   139   ar
   200   138   140   ar
   201   139   140   ar
   202   140   141    1
