@<TRIPOS>MOLECULE
tmp/6gqlB00.pdb
 210 200 0 0 0
SMALL
GASTEIGER

@<TRIPOS>ATOM
      1  N         52.4740  100.9510   29.9500 N.3    19  LEU19      -0.1231
      2  CA        52.6660   99.6380   29.3250 C.3    19  LEU19       0.1693
      3  C         53.7670   98.8320   30.0350 C.2    19  LEU19       0.2592
      4  O         53.6850   97.6030   30.1110 O.2    19  LEU19      -0.2718
      5  CB        53.0030   99.7940   27.8230 C.3    19  LEU19       0.0284
      6  CG        51.9470  100.4420   26.8930 C.3    19  LEU19       0.0019
      7  CD1       52.5310  100.7100   25.5050 C.3    19  LEU19       0.0001
      8  CD2       50.7150   99.5660   26.7540 C.3    19  LEU19       0.0001
      9  N         54.7810   99.5350   30.5360 N.am   20  GLY20      -0.1957
     10  CA        55.9120   98.9350   31.2340 C.3    20  GLY20       0.1869
     11  C         56.7380   99.9650   31.9740 C.2    20  GLY20       0.2309
     12  O         56.8210  101.1210   31.5480 O.2    20  GLY20      -0.2863
     13  N         57.2980  103.2520   29.6430 N.3    27  VAL27      -0.1245
     14  CA        56.6560  103.3120   28.3320 C.3    27  VAL27       0.1561
     15  C         55.1550  103.5000   28.5920 C.2    27  VAL27       0.2260
     16  O         54.5670  102.7770   29.4010 O.2    27  VAL27      -0.2867
     17  CB        56.9710  102.1090   27.4010 C.3    27  VAL27       0.0252
     18  CG1       56.0900  102.1360   26.1510 C.3    27  VAL27       0.0019
     19  CG2       58.4380  102.1190   26.9970 C.3    27  VAL27       0.0019
     20  N         53.4410  104.8920   21.1880 N.3    45  ALA45      -0.1245
     21  CA        54.1180  104.4900   22.4210 C.3    45  ALA45       0.1562
     22  C         55.0880  105.6190   22.7610 C.2    45  ALA45       0.2260
     23  O         55.7590  106.1430   21.8660 O.2    45  ALA45      -0.2867
     24  CB        54.8740  103.1780   22.2250 C.3    45  ALA45       0.0290
     25  N         58.2420  106.8210   25.3520 N.3    47  LYS47      -0.1245
     26  CA        59.2480  106.4700   26.3500 C.3    47  LYS47       0.1561
     27  C         59.6980  107.7620   27.0400 C.2    47  LYS47       0.2260
     28  O         59.9590  108.7710   26.3770 O.2    47  LYS47      -0.2867
     29  CB        60.4340  105.6790   25.7540 C.3    47  LYS47       0.0271
     30  CG        61.4090  105.1670   26.8360 C.3    47  LYS47       0.0035
     31  CD        62.6380  104.4420   26.2790 C.3    47  LYS47       0.0206
     32  CE        62.4100  102.9610   26.0280 C.3    47  LYS47       0.1093
     33  NZ        63.6450  102.2770   25.5840 N.3    47  LYS47      -0.1314
     34  N         69.6560  107.3570   22.8010 N.3    64  GLU64      -0.1245
     35  CA        68.7310  106.4290   22.1410 C.3    64  GLU64       0.1567
     36  C         68.0120  107.1580   20.9990 C.2    64  GLU64       0.2260
     37  O         67.8450  106.5840   19.9230 O.2    64  GLU64      -0.2867
     38  CB        67.7100  105.8600   23.1480 C.3    64  GLU64       0.0388
     39  CG        66.8120  104.7770   22.5670 C.3    64  GLU64       0.1160
     40  CD        66.3790  103.7060   23.5510 C.2    64  GLU64       0.3649
     41  OE1       65.3750  103.9380   24.2560 O.co2  64  GLU64      -0.2457
     42  OE2       67.0350  102.6400   23.6310 O.co2  64  GLU64      -0.2457
     43  N         70.4340  107.6200   17.9780 N.3    67  VAL67      -0.1231
     44  CA        70.5660  106.3320   17.2680 C.3    67  VAL67       0.1692
     45  C         69.3250  106.0640   16.3720 C.2    67  VAL67       0.2591
     46  O         69.4780  105.6900   15.2090 O.2    67  VAL67      -0.2718
     47  CB        70.8660  105.1580   18.2500 C.3    67  VAL67       0.0266
     48  CG1       70.7740  103.7970   17.5640 C.3    67  VAL67       0.0020
     49  CG2       72.2330  105.3300   18.9090 C.3    67  VAL67       0.0020
     50  N         68.1130  106.2780   16.9080 N.am   68  LEU68      -0.1980
     51  CA        66.8620  106.0900   16.1660 C.3    68  LEU68       0.1596
     52  C         66.7650  107.0490   14.9720 C.2    68  LEU68       0.2287
     53  O         66.3580  106.6250   13.8910 O.2    68  LEU68      -0.2864
     54  CB        65.6400  106.2400   17.0870 C.3    68  LEU68       0.0297
     55  CG        65.4060  105.1260   18.1110 C.3    68  LEU68       0.0022
     56  CD1       64.3260  105.5250   19.0900 C.3    68  LEU68       0.0001
     57  CD2       65.0560  103.7910   17.4290 C.3    68  LEU68       0.0001
     58  N         69.3830  105.7500   12.3310 N.3    71  LEU71      -0.1245
     59  CA        68.9920  104.5140   11.6630 C.3    71  LEU71       0.1561
     60  C         67.9730  104.7180   10.5560 C.2    71  LEU71       0.2260
     61  O         68.0740  104.0770    9.5100 O.2    71  LEU71      -0.2867
     62  CB        68.4510  103.4890   12.6690 C.3    71  LEU71       0.0270
     63  CG        69.4360  102.8180   13.6220 C.3    71  LEU71       0.0019
     64  CD1       68.6850  101.9990   14.6510 C.3    71  LEU71       0.0001
     65  CD2       70.4070  101.9110   12.8790 C.3    71  LEU71       0.0001
     66  N         62.1840   96.8770   12.4880 N.3    77  ILE77      -0.1231
     67  CA        62.6960   97.6410   13.6390 C.3    77  ILE77       0.1692
     68  C         61.5460   98.5400   14.1100 C.2    77  ILE77       0.2591
     69  O         60.7430   98.9470   13.2670 O.2    77  ILE77      -0.2718
     70  CB        63.9130   98.5050   13.1500 C.3    77  ILE77       0.0266
     71  CG1       65.0670   97.6460   12.5350 C.3    77  ILE77       0.0019
     72  CG2       64.4520   99.4690   14.2230 C.3    77  ILE77       0.0020
     73  CD1       65.8180   96.6610   13.4580 C.3    77  ILE77       0.0001
     74  N         61.4510   98.8660   15.4210 N.am   78  VAL78      -0.1980
     75  CA        60.4160   99.8230   15.8660 C.3    78  VAL78       0.1595
     76  C         60.8400  101.2110   15.3500 C.2    78  VAL78       0.2287
     77  O         61.9920  101.6060   15.5400 O.2    78  VAL78      -0.2864
     78  CB        60.0340   99.8230   17.3750 C.3    78  VAL78       0.0276
     79  CG1       59.3350   98.5280   17.7720 C.3    78  VAL78       0.0022
     80  CG2       61.2340  100.1030   18.2730 C.3    78  VAL78       0.0022
     81  N         60.2340  110.3080   23.8060 N.3    92  VAL92      -0.1245
     82  CA        60.5680  109.6330   22.5430 C.3    92  VAL92       0.1561
     83  C         59.3040  108.9070   22.0650 C.2    92  VAL92       0.2260
     84  O         58.7640  108.0700   22.7940 O.2    92  VAL92      -0.2867
     85  CB        61.8150  108.7120   22.6350 C.3    92  VAL92       0.0252
     86  CG1       62.1650  108.1040   21.2760 C.3    92  VAL92       0.0019
     87  CG2       63.0120  109.4750   23.1890 C.3    92  VAL92       0.0019
     88  N         57.4630  106.4530   19.4370 N.3    94  THR94      -0.1203
     89  CA        57.6740  105.3310   18.5200 C.3    94  THR94       0.1994
     90  C         56.3310  104.6770   18.1800 C.2    94  THR94       0.2618
     91  O         55.3260  104.9580   18.8390 O.2    94  THR94      -0.2717
     92  CB        58.6730  104.3090   19.1000 C.3    94  THR94       0.1784
     93  OG1       58.2090  103.8780   20.3770 O.3    94  THR94      -0.2211
     94  CG2       60.0990  104.8570   19.2100 C.3    94  THR94       0.0376
     95  N         56.3160  103.8080   17.1530 N.am   95  GLU95      -0.1965
     96  CA        55.0970  103.1300   16.7240 C.3    95  GLU95       0.1733
     97  C         54.5530  102.1580   17.7660 C.2    95  GLU95       0.2616
     98  O         55.3260  101.4980   18.4750 O.2    95  GLU95      -0.2715
     99  CB        55.2810  102.4480   15.3580 C.3    95  GLU95       0.0429
    100  CG        56.3460  101.3690   15.3140 C.3    95  GLU95       0.1163
    101  CD        56.4490  100.6570   13.9770 C.2    95  GLU95       0.3649
    102  OE1       55.4030  100.2110   13.4500 O.co2  95  GLU95      -0.2457
    103  OE2       57.5860  100.5110   13.4710 O.co2  95  GLU95      -0.2457
    104  N         53.2170  102.1020   17.8700 N.am   96  TYR96      -0.1960
    105  CA        52.5070  101.2110   18.7860 C.3    96  TYR96       0.1771
    106  C         52.3030   99.8640   18.0850 C.2    96  TYR96       0.2620
    107  O         51.8930   99.8420   16.9250 O.2    96  TYR96      -0.2715
    108  CB        51.1640  101.8450   19.2180 C.3    96  TYR96       0.0574
    109  CG        50.3820  101.0340   20.2290 C.ar   96  TYR96      -0.0198
    110  CD1       50.6310  101.1530   21.5920 C.ar   96  TYR96      -0.0009
    111  CD2       49.3660  100.1770   19.8250 C.ar   96  TYR96      -0.0009
    112  CE1       49.9120  100.4110   22.5270 C.ar   96  TYR96       0.0417
    113  CE2       48.6450   99.4250   20.7500 C.ar   96  TYR96       0.0417
    114  CZ        48.9120   99.5540   22.1020 C.ar   96  TYR96       0.1957
    115  OH        48.1980   98.8140   23.0140 O.3    96  TYR96      -0.2866
    116  N         52.6300   98.7530   18.7720 N.am   97  CYS97      -0.1954
    117  CA        52.4890   97.3810   18.2580 C.3    97  CYS97       0.1843
    118  C         51.3870   96.6540   19.0570 C.2    97  CYS97       0.2626
    119  O         51.5840   96.2860   20.2160 O.2    97  CYS97      -0.2714
    120  CB        53.8250   96.6510   18.3200 C.3    97  CYS97       0.0997
    121  SG        55.1630   97.4830   17.4160 S.3    97  CYS97      -0.0797
    122  N         50.2030   96.5230   18.4410 N.am   98  CYS98      -0.1954
    123  CA        48.9730   96.0110   19.0510 C.3    98  CYS98       0.1843
    124  C         49.0780   94.6510   19.7640 C.2    98  CYS98       0.2625
    125  O         48.3490   94.4670   20.7390 O.2    98  CYS98      -0.2714
    126  CB        47.8350   96.0060   18.0400 C.3    98  CYS98       0.0997
    127  SG        48.2390   95.1840   16.4850 S.3    98  CYS98      -0.0797
    128  N         49.9470   93.7210   19.3320 N.am   99  TYR99      -0.1960
    129  CA        50.0170   92.4080   19.9920 C.3    99  TYR99       0.1771
    130  C         51.0740   92.2920   21.1210 C.2    99  TYR99       0.2620
    131  O         51.1690   91.2370   21.7420 O.2    99  TYR99      -0.2715
    132  CB        50.1780   91.2760   18.9600 C.3    99  TYR99       0.0574
    133  CG        48.9790   91.1820   18.0440 C.ar   99  TYR99      -0.0198
    134  CD1       47.7740   90.6490   18.4940 C.ar   99  TYR99      -0.0009
    135  CD2       49.0160   91.7170   16.7590 C.ar   99  TYR99      -0.0009
    136  CE1       46.6390   90.6340   17.6820 C.ar   99  TYR99       0.0417
    137  CE2       47.8900   91.7000   15.9350 C.ar   99  TYR99       0.0417
    138  CZ        46.7040   91.1530   16.4000 C.ar   99  TYR99       0.1957
    139  OH        45.5930   91.1170   15.5890 O.3    99  TYR99      -0.2866
    140  N         51.8000   93.3720   21.4150 N.am  100  GLY100     -0.1940
    141  CA        52.8120   93.3950   22.4780 C.3   100  GLY100      0.2014
    142  C         54.0630   92.5900   22.1870 C.2   100  GLY100      0.2638
    143  O         54.4100   92.3610   21.0190 O.2   100  GLY100     -0.2714
    144  N         54.7600   92.1560   23.2550 N.am  101  ASP101     -0.1971
    145  CA        56.0190   91.4080   23.1260 C.3   101  ASP101      0.1709
    146  C         55.7990   89.9590   22.6410 C.2   101  ASP101      0.2293
    147  O         54.8080   89.3070   22.9950 O.2   101  ASP101     -0.2864
    148  CB        56.8570   91.4720   24.4160 C.3   101  ASP101      0.1436
    149  CG        56.2970   90.6140   25.5310 C.2   101  ASP101      0.3671
    150  OD1       55.3520   91.0760   26.2200 O.co2 101  ASP101     -0.2456
    151  OD2       56.7530   89.4580   25.6750 O.co2 101  ASP101     -0.2456
    152  N         70.7980   96.2940   11.2660 N.3   138  LEU138     -0.1245
    153  CA        71.5220   96.9190   12.3680 C.3   138  LEU138      0.1561
    154  C         73.0410   96.7800   12.2120 C.2   138  LEU138      0.2260
    155  O         73.7400   97.7910   12.2910 O.2   138  LEU138     -0.2867
    156  CB        71.0540   96.3930   13.7370 C.3   138  LEU138      0.0270
    157  CG        69.6420   96.7820   14.1860 C.3   138  LEU138      0.0019
    158  CD1       69.2860   96.1140   15.5040 C.3   138  LEU138      0.0001
    159  CD2       69.4990   98.3020   14.3470 C.3   138  LEU138      0.0001
    160  N         73.1700   95.2670   19.3190 N.3   145  HIS145     -0.1241
    161  CA        71.9810   95.3010   20.1720 C.3   145  HIS145      0.1621
    162  C         72.3130   95.1200   21.6660 C.2   145  HIS145      0.2264
    163  O         71.8840   95.9420   22.4700 O.2   145  HIS145     -0.2867
    164  CB        70.9060   94.2980   19.6980 C.3   145  HIS145      0.0745
    165  CG        69.5650   94.4930   20.3420 C.ar  145  HIS145      0.0817
    166  ND1       69.3680   94.2510   21.6930 N.ar  145  HIS145     -0.2268
    167  CD2       68.3930   94.8910   19.7980 C.ar  145  HIS145      0.1154
    168  CE1       68.0970   94.5300   21.9310 C.ar  145  HIS145      0.1986
    169  NE2       67.4660   94.9140   20.8210 N.ar  145  HIS145     -0.2212
    170  N         58.6450   92.9530   19.2810 N.3   154  LEU154     -0.1245
    171  CA        57.2250   93.2900   19.3310 C.3   154  LEU154      0.1561
    172  C         56.5150   92.7350   18.0920 C.2   154  LEU154      0.2260
    173  O         57.1540   92.5270   17.0590 O.2   154  LEU154     -0.2867
    174  CB        56.9900   94.8050   19.4740 C.3   154  LEU154      0.0270
    175  CG        57.6570   95.5170   20.6740 C.3   154  LEU154      0.0019
    176  CD1       57.4400   96.9800   20.6170 C.3   154  LEU154      0.0001
    177  CD2       57.1670   94.9820   22.0230 C.3   154  LEU154      0.0001
    178  N         62.0620   94.5660   16.0050 N.3   163  ILE163     -0.1231
    179  CA        63.1130   94.5380   17.0250 C.3   163  ILE163      0.1692
    180  C         63.0080   95.8290   17.8400 C.2   163  ILE163      0.2592
    181  O         62.8320   96.9100   17.2760 O.2   163  ILE163     -0.2718
    182  CB        64.5130   94.3560   16.3800 C.3   163  ILE163      0.0266
    183  CG1       64.5910   93.0050   15.6150 C.3   163  ILE163      0.0019
    184  CG2       65.6580   94.4760   17.4440 C.3   163  ILE163      0.0020
    185  CD1       65.7260   92.8990   14.6520 C.3   163  ILE163      0.0001
    186  N         63.0680   95.6980   19.1650 N.am  164  CYS164     -0.1956
    187  CA        63.0010   96.8360   20.0720 C.3   164  CYS164      0.1843
    188  C         64.0250   96.6700   21.2160 C.2   164  CYS164      0.2625
    189  O         64.7780   95.6960   21.2420 O.2   164  CYS164     -0.2714
    190  CB        61.5760   97.0200   20.5950 C.3   164  CYS164      0.0997
    191  SG        61.1230   95.9250   21.9740 S.3   164  CYS164     -0.0797
    192  N         64.0710   97.6410   22.1250 N.am  165  ASP165     -0.1957
    193  CA        64.8800   97.5850   23.3290 C.3   165  ASP165      0.1840
    194  C         64.1390   98.3570   24.4110 C.2   165  ASP165      0.2622
    195  O         64.1030   99.5900   24.3590 O.2   165  ASP165     -0.2715
    196  CB        66.3190   98.1320   23.1340 C.3   165  ASP165      0.1450
    197  CG        67.3030   97.8030   24.2750 C.2   165  ASP165      0.3671
    198  OD1       66.8980   97.1140   25.2490 O.co2 165  ASP165     -0.2456
    199  OD2       68.4790   98.2020   24.1780 O.co2 165  ASP165     -0.2456
    200  N         63.5050   97.6290   25.3680 N.am  166  PHE166     -0.1974
    201  CA        62.7800   98.2680   26.4730 C.3   166  PHE166      0.1639
    202  C         63.7320   99.1110   27.3490 C.2   166  PHE166      0.2290
    203  O         63.3350  100.1770   27.8320 O.2   166  PHE166     -0.2864
    204  CB        62.0210   97.2340   27.3130 C.3   166  PHE166      0.0560
    205  CG        60.6740   96.8300   26.7450 C.ar  166  PHE166     -0.0200
    206  CD1       60.5810   95.8730   25.7360 C.ar  166  PHE166     -0.0042
    207  CD2       59.4980   97.3980   27.2260 C.ar  166  PHE166     -0.0042
    208  CE1       59.3290   95.4850   25.2210 C.ar  166  PHE166     -0.0003
    209  CE2       58.2520   97.0250   26.7000 C.ar  166  PHE166     -0.0003
    210  CZ        58.1740   96.0670   25.7030 C.ar  166  PHE166     -0.0000
@<TRIPOS>BOND
     1    61    60    2
     2    60    59    1
     3   152   153    1
     4    59    58    1
     5    59    62    1
     6   154   155    2
     7   154   153    1
     8   153   156    1
     9    66    67    1
    10    71    70    1
    11    71    73    1
    12    62    63    1
    13    65    63    1
    14    70    67    1
    15    70    72    1
    16    69    68    2
    17   102   101   ar
    18   103   101   ar
    19    63    64    1
    20    67    68    1
    21   156   157    1
    22    53    52    2
    23   101   100    1
    24    68    74   am
    25   157   159    1
    26   157   158    1
    27   185   183    1
    28    52    51    1
    29    46    45    2
    30   100    99    1
    31    76    77    2
    32    76    75    1
    33    99    96    1
    34    74    75    1
    35   139   138    1
    36   183   182    1
    37    75    78    1
    38   137   138   ar
    39   137   135   ar
    40   178   179    1
    41    51    50    1
    42    51    54    1
    43    45    50   am
    44    45    44    1
    45   182   179    1
    46   182   184    1
    47   138   136   ar
    48   127   126    1
    49    96    95    1
    50    96    97    1
    51   135   133   ar
    52   107   106    2
    53   179   180    1
    54   173   172    2
    55    54    55    1
    56    95    90   am
    57    44    43    1
    58    44    47    1
    59   181   180    2
    60    78    79    1
    61    78    80    1
    62   121   120    1
    63    57    55    1
    64    48    47    1
    65   136   134   ar
    66    97   104   am
    67    97    98    2
    68   180   186   am
    69   104   105    1
    70   126   123    1
    71   133   134   ar
    72   133   132    1
    73   106   116   am
    74   106   105    1
    75   172   171    1
    76    55    56    1
    77    90    89    1
    78    90    91    2
    79    47    49    1
    80   117   120    1
    81   117   116    1
    82   117   118    1
    83   122   123    1
    84   122   118   am
    85    89    92    1
    86    89    88    1
    87   105   108    1
    88   132   129    1
    89   123   124    1
    90   118   119    2
    91    92    94    1
    92    92    93    1
    93   186   187    1
    94   108   109    1
    95   170   171    1
    96   160   161    1
    97   171   174    1
    98   128   124   am
    99   128   129    1
   100   174   175    1
   101   164   161    1
   102   164   165    1
   103   124   125    2
   104   167   165   ar
   105   167   169   ar
   106   111   109   ar
   107   111   113   ar
   108    37    36    2
   109   129   130    1
   110   187   190    1
   111   187   188    1
   112   161   162    1
   113   109   110   ar
   114   165   166   ar
   115   190   191    1
   116   176   175    1
   117   175   177    1
   118   113   114   ar
   119   169   168   ar
   120    36    35    1
   121   143   142    2
   122   130   140   am
   123   130   131    2
   124    20    21    1
   125   188   189    2
   126   188   192   am
   127    86    85    1
   128   140   141    1
   129   110   112   ar
   130   162   163    2
   131   166   168   ar
   132    23    22    2
   133    83    82    1
   134    83    84    2
   135   114   112   ar
   136   114   115    1
   137   192   193    1
   138    35    34    1
   139    35    38    1
   140   142   141    1
   141   142   144   am
   142    24    21    1
   143    21    22    1
   144    82    85    1
   145    82    81    1
   146    39    38    1
   147    39    40    1
   148    85    87    1
   149   146   147    2
   150   146   145    1
   151   145   144    1
   152   145   148    1
   153   196   193    1
   154   196   197    1
   155   193   194    1
   156    40    42   ar
   157    40    41   ar
   158   199   197   ar
   159   197   198   ar
   160   195   194    2
   161   194   200   am
   162   148   149    1
   163   208   210   ar
   164   208   206   ar
   165    25    26    1
   166   200   201    1
   167     7     6    1
   168   149   151   ar
   169   149   150   ar
   170    33    32    1
   171   210   209   ar
   172   206   205   ar
   173    29    26    1
   174    29    30    1
   175    32    31    1
   176    18    17    1
   177    31    30    1
   178    26    27    1
   179    28    27    2
   180   201   204    1
   181   201   202    1
   182   209   207   ar
   183   205   207   ar
   184   205   204    1
   185     8     6    1
   186     6     5    1
   187    19    17    1
   188   202   203    2
   189    17    14    1
   190     5     2    1
   191    14    15    1
   192    14    13    1
   193    15    16    2
   194     2     1    1
   195     2     3    1
   196     3     4    2
   197     3     9   am
   198     9    10    1
   199    10    11    1
   200    12    11    2
