@<TRIPOS>MOLECULE
tmp/6gqmA00.pdb
 219 208 0 0 0
SMALL
GASTEIGER

@<TRIPOS>ATOM
      1  N         43.2950   90.2650    1.7850 N.3    25  LYS25      -0.1245
      2  CA        42.1540   89.3580    1.9230 C.3    25  LYS25       0.1561
      3  C         40.8160   90.0550    2.2440 C.2    25  LYS25       0.2260
      4  O         40.7830   91.1180    2.8820 O.2    25  LYS25      -0.2867
      5  CB        42.4600   88.2430    2.9470 C.3    25  LYS25       0.0271
      6  CG        42.5430   88.6820    4.4040 C.3    25  LYS25       0.0035
      7  CD        42.9460   87.5210    5.2960 C.3    25  LYS25       0.0206
      8  CE        42.0670   87.3940    6.5090 C.3    25  LYS25       0.1093
      9  NZ        42.3950   86.1690    7.2850 N.3    25  LYS25      -0.1314
     10  N         37.5950   90.4850    4.3130 N.3    27  LEU27      -0.1245
     11  CA        37.2590   90.3260    5.7290 C.3    27  LEU27       0.1561
     12  C         35.7730   89.9990    5.9120 C.2    27  LEU27       0.2260
     13  O         35.3680   89.4450    6.9380 O.2    27  LEU27      -0.2867
     14  CB        37.6260   91.6050    6.5030 C.3    27  LEU27       0.0270
     15  CG        39.1050   92.0520    6.4990 C.3    27  LEU27       0.0019
     16  CD1       39.2610   93.3910    7.2070 C.3    27  LEU27       0.0001
     17  CD2       40.0100   91.0110    7.1740 C.3    27  LEU27       0.0001
     18  N         34.2760   94.0690    2.4500 N.3    35  VAL35      -0.1245
     19  CA        35.2980   94.7330    3.2300 C.3    35  VAL35       0.1561
     20  C         36.5820   93.9660    2.9910 C.2    35  VAL35       0.2260
     21  O         36.6140   92.7460    3.1110 O.2    35  VAL35      -0.2867
     22  CB        34.9550   94.9310    4.7230 C.3    35  VAL35       0.0252
     23  CG1       36.2110   95.3660    5.5080 C.3    35  VAL35       0.0019
     24  CG2       33.8440   95.9650    4.8670 C.3    35  VAL35       0.0019
     25  N         40.9820   98.9540    6.7520 N.3    53  ALA53      -0.1245
     26  CA        39.8500   98.1910    6.2160 C.3    53  ALA53       0.1562
     27  C         39.2440   99.0740    5.1150 C.2    53  ALA53       0.2260
     28  O         39.2170  100.2950    5.2560 O.2    53  ALA53      -0.2867
     29  CB        38.8280   97.8860    7.3030 C.3    53  ALA53       0.0290
     30  N         35.9000   99.3920    2.5040 N.3    55  LYS55      -0.1245
     31  CA        34.5890   98.9600    2.0800 C.3    55  LYS55       0.1561
     32  C         34.3900   99.4410    0.6360 C.2    55  LYS55       0.2260
     33  O         34.6280  100.6090    0.3220 O.2    55  LYS55      -0.2867
     34  CB        33.4640   99.4670    2.9970 C.3    55  LYS55       0.0271
     35  CG        32.1080   98.8350    2.6080 C.3    55  LYS55       0.0035
     36  CD        30.9590   99.2770    3.4920 C.3    55  LYS55       0.0206
     37  CE        30.9930   98.6740    4.8760 C.3    55  LYS55       0.1093
     38  NZ        29.7430   98.9930    5.6050 N.3    55  LYS55      -0.1314
     39  N         26.7830  106.4220    3.4390 N.3    72  GLU72      -0.1245
     40  CA        27.5840  105.9360    4.5770 C.3    72  GLU72       0.1567
     41  C         28.8330  106.8190    4.7750 C.2    72  GLU72       0.2260
     42  O         29.1700  107.1910    5.9160 O.2    72  GLU72      -0.2867
     43  CB        27.9840  104.4780    4.3970 C.3    72  GLU72       0.0388
     44  CG        28.9590  103.9950    5.4700 C.3    72  GLU72       0.1160
     45  CD        29.5830  102.6450    5.1930 C.2    72  GLU72       0.3649
     46  OE1       28.9410  101.6280    5.5250 O.co2  72  GLU72      -0.2457
     47  OE2       30.6920  102.5970    4.6120 O.co2  72  GLU72      -0.2457
     48  N         27.8160  110.2280    6.3190 N.3    75  VAL75      -0.1231
     49  CA        27.5220  110.0110    7.7470 C.3    75  VAL75       0.1692
     50  C         28.8410  109.9240    8.5330 C.2    75  VAL75       0.2591
     51  O         28.9740  110.5940    9.5490 O.2    75  VAL75      -0.2718
     52  CB        26.5850  108.7790    7.9960 C.3    75  VAL75       0.0266
     53  CG1       26.5420  108.3620    9.4730 C.3    75  VAL75       0.0020
     54  CG2       25.1810  109.0400    7.4730 C.3    75  VAL75       0.0020
     55  N         29.8170  109.1260    8.0460 N.am   76  LEU76      -0.1980
     56  CA        31.1170  108.9590    8.7280 C.3    76  LEU76       0.1596
     57  C         31.8960  110.2600    8.8100 C.2    76  LEU76       0.2287
     58  O         32.5050  110.5420    9.8460 O.2    76  LEU76      -0.2864
     59  CB        31.9790  107.8590    8.0920 C.3    76  LEU76       0.0297
     60  CG        31.4960  106.4190    8.2610 C.3    76  LEU76       0.0022
     61  CD1       32.3020  105.4870    7.3780 C.3    76  LEU76       0.0001
     62  CD2       31.5250  105.9820    9.7340 C.3    76  LEU76       0.0001
     63  N         29.9770  112.6090   11.3480 N.3    79  LEU79      -0.1245
     64  CA        30.1490  112.1790   12.7290 C.3    79  LEU79       0.1561
     65  C         31.4890  112.6050   13.3320 C.2    79  LEU79       0.2260
     66  O         31.5410  113.0100   14.4940 O.2    79  LEU79      -0.2867
     67  CB        30.0010  110.6530   12.8300 C.3    79  LEU79       0.0270
     68  CG        28.5870  110.0700   12.7520 C.3    79  LEU79       0.0019
     69  CD1       28.6520  108.5860   12.6760 C.3    79  LEU79       0.0001
     70  CD2       27.7280  110.4970   13.9410 C.3    79  LEU79       0.0001
     71  N         33.5360  104.2110   18.2050 N.3    85  ILE85      -0.1231
     72  CA        33.0110  103.9810   16.8490 C.3    85  ILE85       0.1692
     73  C         34.1950  103.6690   15.9160 C.2    85  ILE85       0.2591
     74  O         35.2930  104.1850   16.1430 O.2    85  ILE85      -0.2718
     75  CB        32.2540  105.2840   16.3470 C.3    85  ILE85       0.0266
     76  CG1       31.2070  105.8500   17.3780 C.3    85  ILE85       0.0019
     77  CG2       31.6290  105.1030   14.9920 C.3    85  ILE85       0.0020
     78  CD1       29.9500  104.9610   17.6710 C.3    85  ILE85       0.0001
     79  N         33.9670  102.8720   14.8510 N.am   86  VAL86      -0.1980
     80  CA        34.9940  102.6510   13.8270 C.3    86  VAL86       0.1595
     81  C         35.2420  104.0130   13.1470 C.2    86  VAL86       0.2287
     82  O         34.2950  104.7130   12.7570 O.2    86  VAL86      -0.2864
     83  CB        34.7020  101.5210   12.7880 C.3    86  VAL86       0.0276
     84  CG1       34.7050  100.1500   13.4510 C.3    86  VAL86       0.0022
     85  CG2       33.4060  101.7600   12.0190 C.3    86  VAL86       0.0022
     86  N         38.4590  102.7490    6.5660 N.3   102  THR102     -0.1203
     87  CA        38.2260  102.7920    8.0150 C.3   102  THR102      0.1994
     88  C         39.3460  102.0770    8.7600 C.2   102  THR102      0.2618
     89  O         40.1660  101.3980    8.1530 O.2   102  THR102     -0.2717
     90  CB        36.8220  102.2940    8.3930 C.3   102  THR102      0.1784
     91  OG1       36.6260  100.9810    7.8660 O.3   102  THR102     -0.2211
     92  CG2       35.7160  103.2480    7.9480 C.3   102  THR102      0.0376
     93  N         39.4090  102.2590   10.0710 N.am  103  GLU103     -0.1965
     94  CA        40.4450  101.6230   10.8770 C.3   103  GLU103      0.1733
     95  C         40.3250  100.0860   10.9330 C.2   103  GLU103      0.2616
     96  O         39.2230   99.5360   10.9600 O.2   103  GLU103     -0.2715
     97  CB        40.4930  102.2290   12.2890 C.3   103  GLU103      0.0429
     98  CG        39.2860  101.8720   13.1400 C.3   103  GLU103      0.1163
     99  CD        39.3470  102.4820   14.5240 C.2   103  GLU103      0.3649
    100  OE1       40.2590  102.1150   15.3030 O.co2 103  GLU103     -0.2457
    101  OE2       38.4790  103.3320   14.8240 O.co2 103  GLU103     -0.2457
    102  N         41.4760   99.4110   10.9300 N.am  104  TYR104     -0.1960
    103  CA        41.5540   97.9690   11.0600 C.3   104  TYR104      0.1771
    104  C         41.4690   97.5960   12.5560 C.2   104  TYR104      0.2620
    105  O         42.1680   98.1910   13.3880 O.2   104  TYR104     -0.2715
    106  CB        42.8270   97.4320   10.3900 C.3   104  TYR104      0.0574
    107  CG        42.9680   95.9320   10.4800 C.ar  104  TYR104     -0.0198
    108  CD1       42.4060   95.0980    9.5150 C.ar  104  TYR104     -0.0009
    109  CD2       43.6640   95.3390   11.5320 C.ar  104  TYR104     -0.0009
    110  CE1       42.5340   93.7120    9.5980 C.ar  104  TYR104      0.0417
    111  CE2       43.7810   93.9570   11.6360 C.ar  104  TYR104      0.0417
    112  CZ        43.2280   93.1460   10.6610 C.ar  104  TYR104      0.1957
    113  OH        43.3770   91.7890   10.7770 O.3   104  TYR104     -0.2866
    114  N         40.5910   96.6220   12.8900 N.am  105  CYS105     -0.1954
    115  CA        40.3920   96.1600   14.2730 C.3   105  CYS105      0.1843
    116  C         40.8460   94.7070   14.3170 C.2   105  CYS105      0.2626
    117  O         40.2470   93.8310   13.6950 O.2   105  CYS105     -0.2714
    118  CB        38.9350   96.3470   14.7100 C.3   105  CYS105      0.0997
    119  SG        38.2960   98.0330   14.4650 S.3   105  CYS105     -0.0797
    120  N         41.9810   94.4790   14.9600 N.am  106  CYS106     -0.1954
    121  CA        42.7020   93.2100   14.9880 C.3   106  CYS106      0.1843
    122  C         41.9310   91.9890   15.5090 C.2   106  CYS106      0.2625
    123  O         42.2800   90.8870   15.1040 O.2   106  CYS106     -0.2714
    124  CB        44.0110   93.3750   15.7390 C.3   106  CYS106      0.0997
    125  SG        43.8640   94.3570   17.2480 S.3   106  CYS106     -0.0797
    126  N         40.9240   92.1480   16.3830 N.am  107  TYR107     -0.1960
    127  CA        40.2110   90.9910   16.9160 C.3   107  TYR107      0.1771
    128  C         38.9000   90.6710   16.1780 C.2   107  TYR107      0.2620
    129  O         38.2790   89.6550   16.4830 O.2   107  TYR107     -0.2715
    130  CB        40.0000   91.1250   18.4350 C.3   107  TYR107      0.0574
    131  CG        41.3130   91.2160   19.1810 C.ar  107  TYR107     -0.0198
    132  CD1       42.1040   90.0880   19.3790 C.ar  107  TYR107     -0.0009
    133  CD2       41.8020   92.4430   19.6280 C.ar  107  TYR107     -0.0009
    134  CE1       43.3280   90.1660   20.0490 C.ar  107  TYR107      0.0417
    135  CE2       43.0330   92.5380   20.2800 C.ar  107  TYR107      0.0417
    136  CZ        43.7850   91.3920   20.5060 C.ar  107  TYR107      0.1957
    137  OH        44.9830   91.4580   21.1830 O.3   107  TYR107     -0.2866
    138  N         38.5350   91.4970   15.1890 N.am  108  GLY108     -0.1940
    139  CA        37.3320   91.3360   14.3740 C.3   108  GLY108      0.2014
    140  C         36.0380   91.6140   15.1180 C.2   108  GLY108      0.2638
    141  O         36.0110   92.3400   16.1210 O.2   108  GLY108     -0.2714
    142  N         34.9540   91.0210   14.6320 N.am  109  ASP109     -0.1971
    143  CA        33.6260   91.1920   15.2040 C.3   109  ASP109      0.1709
    144  C         33.5070   90.5390   16.5920 C.2   109  ASP109      0.2293
    145  O         34.0620   89.4750   16.8370 O.2   109  ASP109     -0.2864
    146  CB        32.5160   90.7370   14.2310 C.3   109  ASP109      0.1436
    147  CG        32.3090   89.2300   14.2010 C.2   109  ASP109      0.3671
    148  OD1       33.0790   88.5340   13.4850 O.co2 109  ASP109     -0.2456
    149  OD2       31.3990   88.7450   14.9080 O.co2 109  ASP109     -0.2456
    150  N         34.4300   82.2790   20.4200 N.3   116  ARG116     -0.1245
    151  CA        35.7850   81.7270   20.4850 C.3   116  ARG116      0.1563
    152  C         36.3190   81.7110   21.9310 C.2   116  ARG116      0.2260
    153  O         37.1020   80.8330   22.2920 O.2   116  ARG116     -0.2867
    154  CB        36.6930   82.5990   19.6290 C.3   116  ARG116      0.0307
    155  CG        37.9050   81.9000   19.0390 C.3   116  ARG116      0.0489
    156  CD        38.7190   82.8260   18.1280 C.3   116  ARG116      0.2205
    157  NE        37.8910   83.6090   17.2030 N.pl3 116  ARG116     -0.0865
    158  CZ        37.8030   84.9360   17.2010 C.cat 116  ARG116      0.5346
    159  NH1       36.9780   85.5490   16.3670 N.pl3 116  ARG116      0.1354
    160  NH2       38.4650   85.6540   18.0990 N.pl3 116  ARG116      0.1354
    161  N         26.2550  108.5720   19.0630 N.3   149  LEU149     -0.1245
    162  CA        25.4570  108.4620   17.8190 C.3   149  LEU149      0.1561
    163  C         24.1090  109.1710   17.9710 C.2   149  LEU149      0.2260
    164  O         23.7240  109.9490   17.0960 O.2   149  LEU149     -0.2867
    165  CB        25.2570  107.0000   17.3840 C.3   149  LEU149      0.0270
    166  CG        26.4680  106.3180   16.7420 C.3   149  LEU149      0.0019
    167  CD1       26.1730  104.8490   16.4470 C.3   149  LEU149      0.0001
    168  CD2       26.8840  107.0100   15.4450 C.3   149  LEU149      0.0001
    169  N         21.2290  103.7940   14.4460 N.3   156  HIS156     -0.1241
    170  CA        22.0170  102.6950   13.9030 C.3   156  HIS156      0.1621
    171  C         21.1460  101.7560   13.0480 C.2   156  HIS156      0.2264
    172  O         21.5310  101.4500   11.9210 O.2   156  HIS156     -0.2867
    173  CB        22.7400  101.9160   15.0330 C.3   156  HIS156      0.0745
    174  CG        23.7650  100.9560   14.5120 C.ar  156  HIS156      0.0817
    175  ND1       23.4070   99.8570   13.7660 N.ar  156  HIS156     -0.2268
    176  CD2       25.1100  101.0060   14.5870 C.ar  156  HIS156      0.1154
    177  CE1       24.5380   99.2800   13.4070 C.ar  156  HIS156      0.1986
    178  NE2       25.5800   99.9030   13.9090 N.ar  156  HIS156     -0.2212
    179  N         33.1260   95.7990   16.5790 N.3   165  LEU165     -0.1245
    180  CA        34.4770   95.3160   16.3430 C.3   165  LEU165      0.1561
    181  C         35.2980   95.4590   17.5970 C.2   165  LEU165      0.2260
    182  O         35.0210   96.3140   18.4290 O.2   165  LEU165     -0.2867
    183  CB        35.1530   96.0300   15.1580 C.3   165  LEU165      0.0270
    184  CG        34.4870   95.8790   13.7960 C.3   165  LEU165      0.0019
    185  CD1       35.1390   96.7840   12.7720 C.3   165  LEU165      0.0001
    186  CD2       34.4860   94.4200   13.3050 C.3   165  LEU165      0.0001
    187  N         31.6960  100.3850   17.5370 N.3   174  ILE174     -0.1231
    188  CA        30.4240  100.1680   16.8420 C.3   174  ILE174      0.1692
    189  C         30.6800  100.3460   15.3420 C.2   174  ILE174      0.2592
    190  O         31.3530  101.2840   14.9310 O.2   174  ILE174     -0.2718
    191  CB        29.2970  101.1050   17.3540 C.3   174  ILE174      0.0266
    192  CG1       29.0700  100.9010   18.8690 C.3   174  ILE174      0.0019
    193  CG2       27.9820  100.8230   16.5890 C.3   174  ILE174      0.0020
    194  CD1       28.3940  102.0160   19.5290 C.3   174  ILE174      0.0001
    195  N         30.1810   99.3980   14.5540 N.am  175  CYS175     -0.1956
    196  CA        30.3390   99.4300   13.1220 C.3   175  CYS175      0.1843
    197  C         29.0070   99.0560   12.4800 C.2   175  CYS175      0.2625
    198  O         28.0120   98.8310   13.1750 O.2   175  CYS175     -0.2714
    199  CB        31.4750   98.4900   12.6950 C.3   175  CYS175      0.0997
    200  SG        31.0430   96.7270   12.6660 S.3   175  CYS175     -0.0797
    201  N         28.9870   99.0280   11.1500 N.am  176  ASP176     -0.1957
    202  CA        27.8460   98.5890   10.3850 C.3   176  ASP176      0.1840
    203  C         28.3980   97.9470    9.1170 C.2   176  ASP176      0.2622
    204  O         28.8180   98.6510    8.1890 O.2   176  ASP176     -0.2715
    205  CB        26.8680   99.7390   10.0890 C.3   176  ASP176      0.1450
    206  CG        25.5530   99.2830    9.4820 C.2   176  ASP176      0.3671
    207  OD1       25.0780   98.2150    9.8540 O.co2 176  ASP176     -0.2456
    208  OD2       24.9940  100.0180    8.6550 O.co2 176  ASP176     -0.2456
    209  N         28.4540   96.6140    9.1070 N.am  177  PHE177     -0.1974
    210  CA        28.9370   95.8490    7.9360 C.3   177  PHE177      0.1639
    211  C         28.0810   96.1420    6.7010 C.2   177  PHE177      0.2290
    212  O         28.6130   96.2280    5.5900 O.2   177  PHE177     -0.2864
    213  CB        28.9460   94.3430    8.2220 C.3   177  PHE177      0.0560
    214  CG        30.1870   93.8500    8.9170 C.ar  177  PHE177     -0.0200
    215  CD1       30.3260   93.9690   10.2980 C.ar  177  PHE177     -0.0042
    216  CD2       31.2040   93.2280    8.1980 C.ar  177  PHE177     -0.0042
    217  CE1       31.4740   93.4950   10.9410 C.ar  177  PHE177     -0.0003
    218  CE2       32.3460   92.7350    8.8430 C.ar  177  PHE177     -0.0003
    219  CZ        32.4650   92.8540   10.2110 C.ar  177  PHE177     -0.0000
@<TRIPOS>BOND
     1    33    32    2
     2    32    31    1
     3     1     2    1
     4     2     3    1
     5     2     5    1
     6    31    30    1
     7    31    34    1
     8     3     4    2
     9    18    19    1
    10    35    34    1
    11    35    36    1
    12     5     6    1
    13    20    21    2
    14    20    19    1
    15    19    22    1
    16    39    40    1
    17    36    37    1
    18    10    11    1
    19    43    40    1
    20    43    44    1
    21     6     7    1
    22    40    41    1
    23    47    45   ar
    24    22    24    1
    25    22    23    1
    26    41    42    2
    27    37    38    1
    28    27    28    2
    29    27    26    1
    30    45    44    1
    31    45    46   ar
    32     7     8    1
    33   212   211    2
    34    11    12    1
    35    11    14    1
    36    12    13    2
    37    26    25    1
    38    26    29    1
    39    48    49    1
    40    15    14    1
    41    15    17    1
    42    15    16    1
    43     8     9    1
    44    86    87    1
    45   211   210    1
    46    61    60    1
    47    54    52    1
    48    49    52    1
    49    49    50    1
    50    91    90    1
    51   210   213    1
    52   210   209    1
    53    92    90    1
    54    52    53    1
    55    87    90    1
    56    87    88    1
    57    55    50   am
    58    55    56    1
    59    59    60    1
    60    59    56    1
    61    89    88    2
    62   204   203    2
    63   216   218   ar
    64   216   214   ar
    65   213   214    1
    66    60    62    1
    67    50    51    2
    68   208   206   ar
    69    56    57    1
    70    88    93   am
    71    57    58    2
    72   218   219   ar
    73   214   215   ar
    74   209   203   am
    75   203   202    1
    76   206   207   ar
    77   206   205    1
    78   108   110   ar
    79   108   107   ar
    80   110   112   ar
    81    93    94    1
    82   205   202    1
    83   219   217   ar
    84   215   217   ar
    85   202   201    1
    86   106   107    1
    87   106   103    1
    88   107   109   ar
    89   112   113    1
    90   112   111   ar
    91    94    95    1
    92    94    97    1
    93   102    95   am
    94   102   103    1
    95    95    96    2
    96   103   104    1
    97   201   197   am
    98    63    64    1
    99   109   111   ar
   100   172   171    2
   101    85    83    1
   102    97    98    1
   103   197   196    1
   104   197   198    2
   105   104   114   am
   106   104   105    2
   107   200   199    1
   108    69    68    1
   109   199   196    1
   110    64    67    1
   111    64    65    1
   112    68    67    1
   113    68    70    1
   114    82    81    2
   115   185   184    1
   116    83    84    1
   117    83    80    1
   118   114   115    1
   119   171   170    1
   120   196   195    1
   121    98    99    1
   122    81    80    1
   123   186   184    1
   124    65    66    2
   125   177   175   ar
   126   177   178   ar
   127   148   147   ar
   128   117   116    2
   129   175   174   ar
   130   184   183    1
   131    80    79    1
   132   170   169    1
   133   170   173    1
   134   178   176   ar
   135   147   146    1
   136   147   149   ar
   137   146   143    1
   138   115   116    1
   139   115   118    1
   140   116   120   am
   141   139   140    1
   142   139   138    1
   143   119   118    1
   144   174   176   ar
   145   174   173    1
   146    99   101   ar
   147    99   100   ar
   148   195   189   am
   149   142   140   am
   150   142   143    1
   151    79    73   am
   152   190   189    2
   153   120   121    1
   154   121   122    1
   155   121   124    1
   156    77    75    1
   157   123   122    2
   158   140   141    2
   159   183   180    1
   160   138   128   am
   161   143   144    1
   162   189   188    1
   163   168   166    1
   164   122   126   am
   165   124   125    1
   166    73    74    2
   167    73    72    1
   168   128   129    2
   169   128   127    1
   170   180   179    1
   171   180   181    1
   172    75    72    1
   173    75    76    1
   174   159   158    1
   175   126   127    1
   176   167   166    1
   177   193   191    1
   178   144   145    2
   179   166   165    1
   180   188   191    1
   181   188   187    1
   182    72    71    1
   183   127   130    1
   184   164   163    2
   185   158   157    2
   186   158   160    1
   187   157   156    1
   188   191   192    1
   189    76    78    1
   190   165   162    1
   191   181   182    2
   192   162   163    1
   193   162   161    1
   194   156   155    1
   195   130   131    1
   196   192   194    1
   197   155   154    1
   198   131   132   ar
   199   131   133   ar
   200   132   134   ar
   201   133   135   ar
   202   154   151    1
   203   134   136   ar
   204   135   136   ar
   205   150   151    1
   206   151   152    1
   207   136   137    1
   208   152   153    2
