@<TRIPOS>MOLECULE
tmp/6gqoA00.pdb
 218 209 0 0 0
SMALL
GASTEIGER

@<TRIPOS>ATOM
      1  N          4.5870    0.9770   14.4500 N.3    30  LEU30      -0.1231
      2  CA         5.6880    0.3680   15.1820 C.3    30  LEU30       0.1693
      3  C          6.5140    1.5020   15.8170 C.2    30  LEU30       0.2592
      4  O          7.1060    1.3070   16.8720 O.2    30  LEU30      -0.2718
      5  CB         6.5120   -0.5420   14.2480 C.3    30  LEU30       0.0284
      6  CG         5.7530   -1.7920   13.7110 C.3    30  LEU30       0.0019
      7  CD1        6.4460   -2.3890   12.5200 C.3    30  LEU30       0.0001
      8  CD2        5.5750   -2.8650   14.7860 C.3    30  LEU30       0.0001
      9  N          6.4590    2.6890   15.2040 N.am   31  GLY31      -0.1957
     10  CA         7.1120    3.9200   15.6570 C.3    31  GLY31       0.1869
     11  C          6.3510    4.6580   16.7500 C.2    31  GLY31       0.2309
     12  O          6.1620    4.0940   17.8260 O.2    31  GLY31      -0.2863
     13  N          6.8000    3.9300   10.6130 N.3    38  VAL38      -0.1245
     14  CA         6.8880    2.5070   10.2510 C.3    38  VAL38       0.1561
     15  C          5.6360    1.8530   10.8250 C.2    38  VAL38       0.2260
     16  O          5.2850    2.0990   11.9830 O.2    38  VAL38      -0.2867
     17  CB         8.2000    1.8100   10.6970 C.3    38  VAL38       0.0252
     18  CG1        8.1900    0.3160   10.3000 C.3    38  VAL38       0.0019
     19  CG2        9.4280    2.5010   10.0960 C.3    38  VAL38       0.0019
     20  N          6.7840   -4.7110    7.2770 N.3    56  ALA56      -0.1231
     21  CA         6.9370   -3.4000    7.8950 C.3    56  ALA56       0.1694
     22  C          6.8800   -2.4070    6.7660 C.2    56  ALA56       0.2592
     23  O          7.4990   -2.6120    5.7390 O.2    56  ALA56      -0.2718
     24  CB         8.2800   -3.2970    8.6070 C.3    56  ALA56       0.0304
     25  N          6.1320   -1.3300    6.9370 N.am   57  VAL57      -0.1966
     26  CA         5.9400   -0.3820    5.8350 C.3    57  VAL57       0.1727
     27  C          6.3990    0.9790    6.3010 C.2    57  VAL57       0.2616
     28  O          5.9610    1.4210    7.3590 O.2    57  VAL57      -0.2715
     29  CB         4.4280   -0.3630    5.4050 C.3    57  VAL57       0.0290
     30  CG1        4.1830    0.6160    4.2610 C.3    57  VAL57       0.0023
     31  CG2        3.9120   -1.7640    5.0340 C.3    57  VAL57       0.0023
     32  N          7.2400    1.6420    5.5270 N.am   58  LYS58      -0.1977
     33  CA         7.6730    3.0150    5.8660 C.3    58  LYS58       0.1596
     34  C          6.9070    3.9710    4.9960 C.2    58  LYS58       0.2287
     35  O          6.8520    3.7950    3.7810 O.2    58  LYS58      -0.2864
     36  CB         9.1980    3.1950    5.6760 C.3    58  LYS58       0.0298
     37  CG         9.7350    4.5700    6.1340 C.3    58  LYS58       0.0038
     38  CD        11.2670    4.5230    6.0850 C.3    58  LYS58       0.0206
     39  CE        11.9340    5.8170    6.4450 C.3    58  LYS58       0.1093
     40  NZ        13.4020    5.6030    6.5890 N.3    58  LYS58      -0.1314
     41  N         15.3370    6.8480   -1.0020 N.3    75  GLU75      -0.1245
     42  CA        15.5910    5.7180   -0.1050 C.3    75  GLU75       0.1567
     43  C         15.1840    4.4030   -0.7750 C.2    75  GLU75       0.2260
     44  O         15.9060    3.4090   -0.6910 O.2    75  GLU75      -0.2867
     45  CB        14.7620    5.9090    1.1780 C.3    75  GLU75       0.0388
     46  CG        14.8530    4.7090    2.1120 C.3    75  GLU75       0.1160
     47  CD        14.2940    5.0040    3.4860 C.2    75  GLU75       0.3649
     48  OE1       13.8200    6.1410    3.7000 O.co2  75  GLU75      -0.2457
     49  OE2       14.3870    4.1250    4.3700 O.co2  75  GLU75      -0.2457
     50  N         17.7800    3.5040   -3.4500 N.3    78  ILE78      -0.1231
     51  CA        19.0390    2.9890   -2.8740 C.3    78  ILE78       0.1692
     52  C         18.8400    1.5660   -2.3240 C.2    78  ILE78       0.2591
     53  O         19.7470    0.7450   -2.4520 O.2    78  ILE78      -0.2718
     54  CB        19.7110    3.9750   -1.8580 C.3    78  ILE78       0.0266
     55  CG1       21.2420    3.7590   -1.7530 C.3    78  ILE78       0.0019
     56  CG2       19.0520    3.9800   -0.4810 C.3    78  ILE78       0.0020
     57  CD1       22.0240    4.1250   -3.0030 C.3    78  ILE78       0.0001
     58  N         17.6480    1.2520   -1.7580 N.am   79  LEU79      -0.1980
     59  CA        17.3400   -0.1200   -1.3080 C.3    79  LEU79       0.1596
     60  C         17.2980   -1.0620   -2.4910 C.2    79  LEU79       0.2287
     61  O         17.7820   -2.1940   -2.4110 O.2    79  LEU79      -0.2864
     62  CB        16.0150   -0.1750   -0.5240 C.3    79  LEU79       0.0297
     63  CG        16.1080    0.3280    0.9210 C.3    79  LEU79       0.0022
     64  CD1       14.6720    0.5320    1.5060 C.3    79  LEU79       0.0001
     65  CD2       16.9240   -0.6950    1.8110 C.3    79  LEU79       0.0001
     66  N         21.0620   -1.5440   -3.5320 N.3    82  ILE82      -0.1245
     67  CA        21.7840   -2.3710   -2.5450 C.3    82  ILE82       0.1561
     68  C         21.4420   -3.8580   -2.7590 C.2    82  ILE82       0.2260
     69  O         22.3470   -4.7000   -2.8720 O.2    82  ILE82      -0.2867
     70  CB        21.4780   -1.9080   -1.0980 C.3    82  ILE82       0.0252
     71  CG1       22.0810   -0.5050   -0.8100 C.3    82  ILE82       0.0019
     72  CG2       21.9680   -2.9460   -0.0630 C.3    82  ILE82       0.0019
     73  CD1       21.5460    0.1240    0.5230 C.3    82  ILE82       0.0001
     74  N         20.8340   -7.4840    6.0470 N.3    88  VAL88      -0.1231
     75  CA        20.3140   -6.1390    5.6930 C.3    88  VAL88       0.1692
     76  C         18.8020   -6.3200    5.6150 C.2    88  VAL88       0.2591
     77  O         18.3450   -7.3600    5.1230 O.2    88  VAL88      -0.2718
     78  CB        20.9100   -5.6490    4.3400 C.3    88  VAL88       0.0266
     79  CG1       20.1880   -4.4030    3.8300 C.3    88  VAL88       0.0020
     80  CG2       22.4050   -5.3560    4.4870 C.3    88  VAL88       0.0020
     81  N         18.0130   -5.3380    6.0970 N.am   89  VAL89      -0.1980
     82  CA        16.5400   -5.4320    6.0100 C.3    89  VAL89       0.1595
     83  C         16.1920   -5.5120    4.5100 C.2    89  VAL89       0.2287
     84  O         16.7870   -4.7910    3.7350 O.2    89  VAL89      -0.2864
     85  CB        15.8780   -4.2720    6.7880 C.3    89  VAL89       0.0276
     86  CG1       16.1090   -2.9170    6.1110 C.3    89  VAL89       0.0022
     87  CG2       14.4070   -4.5390    7.0350 C.3    89  VAL89       0.0022
     88  N          7.1750    2.1250    1.4030 N.3   104  VAL104     -0.1245
     89  CA         8.3100    1.2400    1.1440 C.3   104  VAL104      0.1561
     90  C          8.0910    0.0300    2.0450 C.2   104  VAL104      0.2260
     91  O          7.9280    0.1870    3.2520 O.2   104  VAL104     -0.2867
     92  CB         9.6410    1.9730    1.4280 C.3   104  VAL104      0.0252
     93  CG1       10.8380    1.0430    1.2110 C.3   104  VAL104      0.0019
     94  CG2        9.7600    3.2550    0.5640 C.3   104  VAL104      0.0019
     95  N          9.2110   -3.6660    3.6330 N.3   106  VAL106     -0.1231
     96  CA        10.3780   -4.5250    3.9250 C.3   106  VAL106      0.1692
     97  C          9.9610   -5.7020    4.7910 C.2   106  VAL106      0.2592
     98  O          8.8820   -5.6760    5.4080 O.2   106  VAL106     -0.2718
     99  CB        11.6080   -3.7580    4.5540 C.3   106  VAL106      0.0266
    100  CG1       12.0030   -2.5030    3.7770 C.3   106  VAL106      0.0020
    101  CG2       11.3660   -3.4290    6.0180 C.3   106  VAL106      0.0020
    102  N         10.8670   -6.6890    4.9380 N.am  107  GLU107     -0.1966
    103  CA        10.5780   -7.8740    5.7410 C.3   107  GLU107      0.1733
    104  C         10.4350   -7.4700    7.1820 C.2   107  GLU107      0.2616
    105  O         11.0900   -6.5280    7.6180 O.2   107  GLU107     -0.2715
    106  CB        11.6740   -8.9200    5.5600 C.3   107  GLU107      0.0429
    107  CG        13.0000   -8.4710    6.1300 C.3   107  GLU107      0.1163
    108  CD        14.1180   -9.4270    5.8000 C.2   107  GLU107      0.3649
    109  OE1       13.9210  -10.6580    5.9270 O.co2 107  GLU107     -0.2457
    110  OE2       15.2070   -8.9320    5.4370 O.co2 107  GLU107     -0.2457
    111  N          9.5150   -8.1040    7.8890 N.am  108  PHE108     -0.1960
    112  CA         9.2260   -7.7780    9.2800 C.3   108  PHE108      0.1771
    113  C         10.2720   -8.4880   10.2050 C.2   108  PHE108      0.2620
    114  O         10.5680   -9.6690   10.0070 O.2   108  PHE108     -0.2715
    115  CB         7.8240   -8.2690    9.6040 C.3   108  PHE108      0.0574
    116  CG         7.3320   -7.9490   10.9900 C.ar  108  PHE108     -0.0200
    117  CD1        7.0510   -6.6400   11.3600 C.ar  108  PHE108     -0.0042
    118  CD2        7.1640   -8.9540   11.9290 C.ar  108  PHE108     -0.0042
    119  CE1        6.5970   -6.3440   12.6480 C.ar  108  PHE108     -0.0003
    120  CE2        6.6990   -8.6590   13.2120 C.ar  108  PHE108     -0.0003
    121  CZ         6.4300   -7.3550   13.5640 C.ar  108  PHE108     -0.0000
    122  N         10.7770   -7.7850   11.2250 N.am  109  CYS109     -0.1954
    123  CA        11.7810   -8.3490   12.1670 C.3   109  CYS109      0.1843
    124  C         11.1660   -8.3540   13.5310 C.2   109  CYS109      0.2625
    125  O         11.1770   -7.3440   14.2260 O.2   109  CYS109     -0.2714
    126  CB        13.0510   -7.5240   12.1330 C.3   109  CYS109      0.0997
    127  SG        13.8480   -7.5160   10.5130 S.3   109  CYS109     -0.0797
    128  N         10.5950   -9.4940   13.8810 N.am  110  LYS110     -0.1963
    129  CA         9.7660   -9.7400   15.0650 C.3   110  LYS110      0.1728
    130  C         10.2310   -9.0920   16.3700 C.2   110  LYS110      0.2616
    131  O          9.3890   -8.6490   17.1530 O.2   110  LYS110     -0.2715
    132  CB         9.6290  -11.2720   15.2820 C.3   110  LYS110      0.0311
    133  CG         8.4010  -11.6960   16.0650 C.3   110  LYS110      0.0038
    134  CD         8.3890  -13.2080   16.2720 C.3   110  LYS110      0.0206
    135  CE         7.2150  -13.6630   17.1080 C.3   110  LYS110      0.1093
    136  NZ         7.2430  -15.1310   17.3540 N.3   110  LYS110     -0.1314
    137  N         11.5340   -9.1420   16.6620 N.am  111  PHE111     -0.1960
    138  CA        11.9950   -8.7100   17.9790 C.3   111  PHE111      0.1771
    139  C         12.3800   -7.2270   18.0760 C.2   111  PHE111      0.2620
    140  O         12.7370   -6.7800   19.1570 O.2   111  PHE111     -0.2715
    141  CB        13.1210   -9.6180   18.4780 C.3   111  PHE111      0.0574
    142  CG        12.6570  -11.0480   18.6720 C.ar  111  PHE111     -0.0200
    143  CD1       11.8880  -11.4050   19.7760 C.ar  111  PHE111     -0.0042
    144  CD2       12.9520  -12.0240   17.7280 C.ar  111  PHE111     -0.0042
    145  CE1       11.4240  -12.7200   19.9340 C.ar  111  PHE111     -0.0003
    146  CE2       12.4770  -13.3320   17.8740 C.ar  111  PHE111     -0.0003
    147  CZ        11.7150  -13.6720   18.9770 C.ar  111  PHE111     -0.0000
    148  N         12.2090   -6.4730   16.9930 N.am  112  GLY112     -0.1940
    149  CA        12.5210   -5.0490   16.9630 C.3   112  GLY112      0.2014
    150  C         14.0060   -4.7290   17.0430 C.2   112  GLY112      0.2638
    151  O         14.8460   -5.5770   16.7480 O.2   112  GLY112     -0.2714
    152  N         14.3480   -3.4900   17.4660 N.am  113  ASN113     -0.1972
    153  CA        15.7340   -3.0240   17.5230 C.3   113  ASN113      0.1688
    154  C         16.5710   -3.7380   18.5990 C.2   113  ASN113      0.2292
    155  O         16.0790   -4.0880   19.6730 O.2   113  ASN113     -0.2864
    156  CB        15.8080   -1.4940   17.6450 C.3   113  ASN113      0.1181
    157  CG        15.6500   -0.9790   19.0510 C.2   113  ASN113      0.2629
    158  OD1       16.6180   -0.8080   19.7950 O.2   113  ASN113     -0.2716
    159  ND2       14.4360   -0.7050   19.4380 N.am  113  ASN113     -0.0877
    160  N         27.1280   -4.0550    2.4200 N.3   159  LEU159     -0.1245
    161  CA        26.8030   -2.6600    2.0670 C.3   159  LEU159      0.1561
    162  C         27.9800   -1.9500    1.3910 C.2   159  LEU159      0.2260
    163  O         27.8000   -1.3310    0.3370 O.2   159  LEU159     -0.2867
    164  CB        26.3240   -1.8670    3.2840 C.3   159  LEU159      0.0270
    165  CG        24.9410   -2.1950    3.8390 C.3   159  LEU159      0.0019
    166  CD1       24.6410   -1.3310    5.0700 C.3   159  LEU159      0.0001
    167  CD2       23.8590   -1.9610    2.8120 C.3   159  LEU159      0.0001
    168  N         26.5500    3.6970    5.6190 N.3   166  HIS166     -0.1241
    169  CA        25.3780    3.8200    6.4740 C.3   166  HIS166      0.1621
    170  C         25.1440    5.2420    6.9770 C.2   166  HIS166      0.2264
    171  O         24.0750    5.8120    6.7430 O.2   166  HIS166     -0.2867
    172  CB        25.4710    2.8240    7.6420 C.3   166  HIS166      0.0745
    173  CG        24.1650    2.6340    8.3210 C.ar  166  HIS166      0.0817
    174  ND1       23.5990    3.6340    9.0810 N.ar  166  HIS166     -0.2268
    175  CD2       23.3270    1.5820    8.2940 C.ar  166  HIS166      0.1154
    176  CE1       22.4420    3.1590    9.5040 C.ar  166  HIS166      0.1986
    177  NE2       22.2490    1.9180    9.0820 N.ar  166  HIS166     -0.2212
    178  N         17.9880   -4.5890   13.5830 N.3   175  LEU175     -0.1245
    179  CA        16.7760   -5.2780   13.9990 C.3   175  LEU175      0.1561
    180  C         17.0530   -6.7230   14.2320 C.2   175  LEU175      0.2260
    181  O         17.8930   -7.2950   13.5530 O.2   175  LEU175     -0.2867
    182  CB        15.6510   -5.1380   12.9670 C.3   175  LEU175      0.0270
    183  CG        15.2320   -3.6690   12.6570 C.3   175  LEU175      0.0019
    184  CD1       14.4400   -3.5850   11.3810 C.3   175  LEU175      0.0001
    185  CD2       14.5120   -3.0380   13.8090 C.3   175  LEU175      0.0001
    186  N         20.6890   -4.9650    9.4640 N.3   184  ILE184     -0.1231
    187  CA        20.9690   -3.5330    9.5120 C.3   184  ILE184      0.1692
    188  C         19.7730   -2.8070    8.8290 C.2   184  ILE184      0.2592
    189  O         19.3820   -3.1560    7.6890 O.2   184  ILE184     -0.2718
    190  CB        22.2730   -3.2200    8.7410 C.3   184  ILE184      0.0266
    191  CG1       23.5280   -3.9670    9.3780 C.3   184  ILE184      0.0019
    192  CG2       22.4870   -1.7110    8.6660 C.3   184  ILE184      0.0020
    193  CD1       24.6950   -3.9410    8.5690 C.3   184  ILE184      0.0001
    194  N         19.3220   -1.7190    9.4360 N.am  185  CYS185     -0.1956
    195  CA        18.2860   -0.8800    8.8130 C.3   185  CYS185      0.1843
    196  C         18.6690    0.5840    9.0100 C.2   185  CYS185      0.2625
    197  O         19.7500    0.8650    9.5230 O.2   185  CYS185     -0.2714
    198  CB        16.9210   -1.1990    9.4290 C.3   185  CYS185      0.0997
    199  SG        16.7290   -0.6050   11.1330 S.3   185  CYS185     -0.0797
    200  N         17.7920    1.5310    8.6110 N.am  186  ASP186     -0.1957
    201  CA        18.0000    2.9540    8.8710 C.3   186  ASP186      0.1840
    202  C         16.5940    3.5440    9.0220 C.2   186  ASP186      0.2622
    203  O         15.8740    3.6830    8.0350 O.2   186  ASP186     -0.2715
    204  CB        18.7910    3.6330    7.7220 C.3   186  ASP186      0.1450
    205  CG        19.1820    5.0850    7.9510 C.2   186  ASP186      0.3671
    206  OD1       18.8230    5.6310    8.9770 O.co2 186  ASP186     -0.2456
    207  OD2       19.8500    5.6570    7.0910 O.co2 186  ASP186     -0.2456
    208  N         16.1590    3.8150   10.2520 N.am  187  PHE187     -0.1974
    209  CA        14.8160    4.3760   10.4340 C.3   187  PHE187      0.1639
    210  C         14.6590    5.7360    9.7900 C.2   187  PHE187      0.2290
    211  O         13.5450    6.0740    9.3920 O.2   187  PHE187     -0.2864
    212  CB        14.4600    4.5000   11.9220 C.3   187  PHE187      0.0560
    213  CG        14.0580    3.1800   12.5110 C.ar  187  PHE187     -0.0200
    214  CD1       15.0180    2.2930   12.9910 C.ar  187  PHE187     -0.0042
    215  CD2       12.7180    2.8420   12.6460 C.ar  187  PHE187     -0.0042
    216  CE1       14.6370    1.0720   13.5710 C.ar  187  PHE187     -0.0003
    217  CE2       12.3460    1.5990   13.1710 C.ar  187  PHE187     -0.0003
    218  CZ        13.3070    0.7310   13.6440 C.ar  187  PHE187     -0.0000
@<TRIPOS>BOND
     1    66    67    1
     2    50    51    1
     3    57    55    1
     4    51    52    1
     5    51    54    1
     6    69    68    2
     7    68    67    1
     8    67    70    1
     9    60    61    2
    10    60    59    1
    11    53    52    2
    12    52    58   am
    13    54    55    1
    14    54    56    1
    15    58    59    1
    16    59    62    1
    17    70    71    1
    18    70    72    1
    19    41    42    1
    20    71    73    1
    21    43    44    2
    22    43    42    1
    23    62    63    1
    24    42    45    1
    25   163   162    2
    26    94    92    1
    27    63    64    1
    28    63    65    1
    29    89    88    1
    30    89    92    1
    31    89    90    1
    32    45    46    1
    33    93    92    1
    34   162   161    1
    35    90    91    2
    36   161   160    1
    37   161   164    1
    38    46    47    1
    39   167   165    1
    40   164   165    1
    41    47    48   ar
    42    47    49   ar
    43    95    96    1
    44    84    83    2
    45   100    99    1
    46    35    34    2
    47    79    78    1
    48   165   166    1
    49    96    99    1
    50    96    97    1
    51    30    29    1
    52    78    80    1
    53    78    75    1
    54    83    82    1
    55    99   101    1
    56    97   102   am
    57    97    98    2
    58   102   103    1
    59    34    33    1
    60    31    29    1
    61    77    76    2
    62    29    26    1
    63   110   108   ar
    64    32    33    1
    65    32    27   am
    66   106   103    1
    67   106   107    1
    68    76    75    1
    69    76    81   am
    70   168   169    1
    71    36    33    1
    72    36    37    1
    73    75    74    1
    74    23    22    2
    75   103   104    1
    76   108   109   ar
    77   108   107    1
    78    26    27    1
    79    26    25    1
    80    82    81    1
    81    82    85    1
    82    38    37    1
    83    38    39    1
    84    86    85    1
    85    27    28    2
    86    39    40    1
    87   169   170    1
    88   169   172    1
    89   171   170    2
    90    22    25   am
    91    22    21    1
    92    85    87    1
    93   207   205   ar
    94   104   105    2
    95   104   111   am
    96    20    21    1
    97   172   173    1
    98   189   188    2
    99   204   205    1
   100   204   201    1
   101   111   112    1
   102    21    24    1
   103   205   206   ar
   104   203   202    2
   105   175   173   ar
   106   175   177   ar
   107   173   174   ar
   108   193   191    1
   109   200   201    1
   110   200   196   am
   111   192   190    1
   112   190   191    1
   113   190   187    1
   114   195   196    1
   115   195   198    1
   116   195   194    1
   117   188   194   am
   118   188   187    1
   119   201   202    1
   120   196   197    2
   121   202   208   am
   122   174   176   ar
   123   177   176   ar
   124   112   115    1
   125   112   113    1
   126   211   210    2
   127   198   199    1
   128   186   187    1
   129   115   116    1
   130   210   209    1
   131   114   113    2
   132    19    17    1
   133   113   122   am
   134    14    13    1
   135    14    17    1
   136    14    15    1
   137   208   209    1
   138    18    17    1
   139   209   212    1
   140   127   126    1
   141    15    16    2
   142   116   117   ar
   143   116   118   ar
   144   122   123    1
   145   117   119   ar
   146   184   183    1
   147   212   213    1
   148   118   120   ar
   149   126   123    1
   150   123   124    1
   151   213   215   ar
   152   213   214   ar
   153     7     6    1
   154   215   217   ar
   155   119   121   ar
   156   183   182    1
   157   183   185    1
   158   182   179    1
   159   214   216   ar
   160   217   218   ar
   161   120   121   ar
   162   124   128   am
   163   124   125    2
   164   181   180    2
   165   216   218   ar
   166   178   179    1
   167     6     5    1
   168     6     8    1
   169   128   129    1
   170   179   180    1
   171     5     2    1
   172     1     2    1
   173   129   132    1
   174   129   130    1
   175     2     3    1
   176     9    10    1
   177     9     3   am
   178   132   133    1
   179    10    11    1
   180     3     4    2
   181   133   134    1
   182   134   135    1
   183   130   137   am
   184   130   131    2
   185   137   138    1
   186   151   150    2
   187    11    12    2
   188   149   148    1
   189   149   150    1
   190   148   139   am
   191   150   152   am
   192   135   136    1
   193   152   153    1
   194   153   156    1
   195   153   154    1
   196   156   157    1
   197   144   146   ar
   198   144   142   ar
   199   146   147   ar
   200   138   139    1
   201   138   141    1
   202   139   140    2
   203   141   142    1
   204   154   155    2
   205   142   143   ar
   206   147   145   ar
   207   157   159   am
   208   157   158    2
   209   143   145   ar
