@<TRIPOS>MOLECULE
tmp/6gqpA00.pdb
 211 201 0 0 0
SMALL
GASTEIGER

@<TRIPOS>ATOM
      1  N          4.8590    1.1160   14.7360 N.3    20  LEU20      -0.1231
      2  CA         6.0010    0.5610   15.4610 C.3    20  LEU20       0.1693
      3  C          6.9250    1.7620   15.7850 C.2    20  LEU20       0.2592
      4  O          7.4690    2.4000   14.8760 O.2    20  LEU20      -0.2718
      5  CB         6.7450   -0.4920   14.5940 C.3    20  LEU20       0.0284
      6  CG         5.9800   -1.7630   14.1800 C.3    20  LEU20       0.0019
      7  CD1        6.5960   -2.4000   12.9290 C.3    20  LEU20       0.0001
      8  CD2        5.9510   -2.7740   15.3000 C.3    20  LEU20       0.0001
      9  N          7.0270    2.1000   17.0630 N.am   21  GLY21      -0.1957
     10  CA         7.8290    3.2330   17.5190 C.3    21  GLY21       0.1869
     11  C          7.2550    4.5960   17.1680 C.2    21  GLY21       0.2309
     12  O          6.1180    4.7020   16.6920 O.2    21  GLY21      -0.2863
     13  N          7.0620    4.0130   10.8390 N.3    28  VAL28      -0.1245
     14  CA         7.1220    2.5840   10.5080 C.3    28  VAL28       0.1561
     15  C          5.8000    1.9600   11.0170 C.2    28  VAL28       0.2260
     16  O          5.4010    2.2140   12.1580 O.2    28  VAL28      -0.2867
     17  CB         8.3760    1.8500   11.0660 C.3    28  VAL28       0.0252
     18  CG1        8.3530    0.3470   10.6930 C.3    28  VAL28       0.0019
     19  CG2        9.6650    2.5090   10.5660 C.3    28  VAL28       0.0019
     20  N          6.9230   -4.7690    7.5040 N.3    46  ALA46      -0.1245
     21  CA         7.0600   -3.4490    8.1230 C.3    46  ALA46       0.1562
     22  C          6.9880   -2.4600    6.9400 C.2    46  ALA46       0.2260
     23  O          7.5190   -2.7440    5.8660 O.2    46  ALA46      -0.2867
     24  CB         8.3870   -3.3390    8.8560 C.3    46  ALA46       0.0290
     25  N          7.4360    1.6030    5.7270 N.3    48  LYS48      -0.1245
     26  CA         7.8940    2.9590    6.0670 C.3    48  LYS48       0.1561
     27  C          7.1390    3.9360    5.2030 C.2    48  LYS48       0.2260
     28  O          7.0850    3.7510    3.9870 O.2    48  LYS48      -0.2867
     29  CB         9.4110    3.1170    5.8820 C.3    48  LYS48       0.0271
     30  CG         9.8980    4.5750    6.0980 C.3    48  LYS48       0.0035
     31  CD        11.1010    4.6240    6.9940 C.3    48  LYS48       0.0206
     32  CE        12.3430    5.0240    6.2660 C.3    48  LYS48       0.1093
     33  NZ        13.5600    4.5650    6.9830 N.3    48  LYS48      -0.1314
     34  N         15.6190    6.6540   -0.9660 N.3    65  GLU65      -0.1245
     35  CA        15.8600    5.4690   -0.1430 C.3    65  GLU65       0.1567
     36  C         15.4150    4.2020   -0.8990 C.2    65  GLU65       0.2260
     37  O         16.1140    3.1750   -0.8640 O.2    65  GLU65      -0.2867
     38  CB        15.0860    5.5950    1.1650 C.3    65  GLU65       0.0388
     39  CG        15.3980    4.4880    2.1390 C.3    65  GLU65       0.1160
     40  CD        14.8090    4.7340    3.5050 C.2    65  GLU65       0.3649
     41  OE1       15.2220    5.7050    4.1790 O.co2  65  GLU65      -0.2457
     42  OE2       13.9380    3.9360    3.9090 O.co2  65  GLU65      -0.2457
     43  N         17.9810    3.4870   -3.7080 N.3    68  ILE68      -0.1231
     44  CA        19.2100    2.9610   -3.0780 C.3    68  ILE68       0.1692
     45  C         19.0220    1.4720   -2.7370 C.2    68  ILE68       0.2591
     46  O         19.8970    0.6580   -3.0570 O.2    68  ILE68      -0.2718
     47  CB        19.5930    3.8360   -1.8470 C.3    68  ILE68       0.0266
     48  CG1       20.4250    5.0590   -2.2880 C.3    68  ILE68       0.0019
     49  CG2       20.2830    3.0460   -0.7170 C.3    68  ILE68       0.0020
     50  CD1       20.2820    6.2960   -1.3590 C.3    68  ILE68       0.0001
     51  N         17.8620    1.1210   -2.1190 N.am   69  LEU69      -0.1980
     52  CA        17.5160   -0.2610   -1.7720 C.3    69  LEU69       0.1596
     53  C         17.4210   -1.1490   -3.0070 C.2    69  LEU69       0.2287
     54  O         17.8300   -2.3040   -2.9360 O.2    69  LEU69      -0.2864
     55  CB        16.2320   -0.3460   -0.9450 C.3    69  LEU69       0.0297
     56  CG        16.3630   -0.0390    0.5470 C.3    69  LEU69       0.0022
     57  CD1       14.9950    0.2200    1.1670 C.3    69  LEU69       0.0001
     58  CD2       17.0640   -1.1770    1.2900 C.3    69  LEU69       0.0001
     59  N         21.2750   -1.6660   -4.1010 N.3    72  ILE72      -0.1245
     60  CA        22.0250   -2.5190   -3.1760 C.3    72  ILE72       0.1561
     61  C         21.7090   -4.0270   -3.3820 C.2    72  ILE72       0.2260
     62  O         22.6260   -4.8440   -3.5110 O.2    72  ILE72      -0.2867
     63  CB        21.8120   -2.0120   -1.7130 C.3    72  ILE72       0.0252
     64  CG1       22.6890   -0.7840   -1.4230 C.3    72  ILE72       0.0019
     65  CG2       22.0270   -3.0820   -0.6460 C.3    72  ILE72       0.0019
     66  CD1       22.2390    0.0360   -0.1750 C.3    72  ILE72       0.0001
     67  N         21.1490   -7.4650    6.0050 N.3    78  VAL78      -0.1231
     68  CA        20.6010   -6.1260    5.6750 C.3    78  VAL78       0.1692
     69  C         19.0630   -6.2960    5.6570 C.2    78  VAL78       0.2591
     70  O         18.5910   -7.3430    5.2090 O.2    78  VAL78      -0.2718
     71  CB        21.1470   -5.5690    4.3150 C.3    78  VAL78       0.0266
     72  CG1       20.4860   -4.2420    3.9300 C.3    78  VAL78       0.0020
     73  CG2       22.6640   -5.3910    4.3480 C.3    78  VAL78       0.0020
     74  N         18.2850   -5.2980    6.1450 N.am   79  VAL79      -0.1980
     75  CA        16.8150   -5.3350    6.0870 C.3    79  VAL79       0.1595
     76  C         16.4760   -5.1460    4.6020 C.2    79  VAL79       0.2287
     77  O         16.8000   -4.1060    4.0150 O.2    79  VAL79      -0.2864
     78  CB        16.0870   -4.3370    7.0520 C.3    79  VAL79       0.0276
     79  CG1       16.3650   -2.8910    6.6860 C.3    79  VAL79       0.0022
     80  CG2       14.5800   -4.5870    7.0720 C.3    79  VAL79       0.0022
     81  N          7.2530    2.2420    1.4590 N.3    94  VAL94      -0.1245
     82  CA         8.3940    1.3530    1.2360 C.3    94  VAL94       0.1561
     83  C          8.2410    0.1280    2.1790 C.2    94  VAL94       0.2260
     84  O          8.2650    0.2700    3.4050 O.2    94  VAL94      -0.2867
     85  CB         9.7610    2.0820    1.3620 C.3    94  VAL94       0.0252
     86  CG1       10.9210    1.1380    1.0480 C.3    94  VAL94       0.0019
     87  CG2        9.8160    3.3190    0.4480 C.3    94  VAL94       0.0019
     88  N          9.4150   -3.5170    3.6810 N.3    96  VAL96      -0.1231
     89  CA        10.6100   -4.3100    4.0230 C.3    96  VAL96       0.1692
     90  C         10.2110   -5.5130    4.8780 C.2    96  VAL96       0.2592
     91  O          9.0540   -5.6090    5.3060 O.2    96  VAL96      -0.2718
     92  CB        11.7460   -3.4740    4.6960 C.3    96  VAL96       0.0266
     93  CG1       12.1830   -2.3080    3.8190 C.3    96  VAL96       0.0020
     94  CG2       11.3480   -2.9840    6.0930 C.3    96  VAL96       0.0020
     95  N         11.1730   -6.4100    5.1510 N.am   97  GLU97      -0.1966
     96  CA        10.9210   -7.5970    5.9680 C.3    97  GLU97       0.1733
     97  C         10.7850   -7.2230    7.4530 C.2    97  GLU97       0.2616
     98  O         11.4550   -6.2990    7.9220 O.2    97  GLU97      -0.2715
     99  CB        11.9600   -8.7110    5.7040 C.3    97  GLU97       0.0429
    100  CG        13.3950   -8.4170    6.0990 C.3    97  GLU97       0.1163
    101  CD        14.4610   -9.1840    5.3300 C.2    97  GLU97       0.3649
    102  OE1       14.1720  -10.2780    4.7920 O.co2  97  GLU97      -0.2457
    103  OE2       15.6000   -8.6740    5.2650 O.co2  97  GLU97      -0.2457
    104  N          9.8660   -7.9040    8.1540 N.am   98  PHE98      -0.1960
    105  CA         9.5550   -7.6890    9.5600 C.3    98  PHE98       0.1771
    106  C         10.5800   -8.4160   10.4620 C.2    98  PHE98       0.2620
    107  O         10.8430   -9.6060   10.2670 O.2    98  PHE98      -0.2715
    108  CB         8.1110   -8.1660    9.8520 C.3    98  PHE98       0.0574
    109  CG         7.6400   -7.9420   11.2760 C.ar   98  PHE98      -0.0200
    110  CD1        7.3130   -6.6660   11.7260 C.ar   98  PHE98      -0.0042
    111  CD2        7.5220   -9.0060   12.1610 C.ar   98  PHE98      -0.0042
    112  CE1        6.8820   -6.4600   13.0380 C.ar   98  PHE98      -0.0003
    113  CE2        7.0880   -8.7990   13.4740 C.ar   98  PHE98      -0.0003
    114  CZ         6.7570   -7.5290   13.9020 C.ar   98  PHE98      -0.0000
    115  N         11.1420   -7.6960   11.4500 N.am   99  CYS99      -0.1954
    116  CA        12.1420   -8.2450   12.3940 C.3    99  CYS99       0.1843
    117  C         11.5100   -8.2040   13.7820 C.2    99  CYS99       0.2625
    118  O         11.5000   -7.1540   14.4320 O.2    99  CYS99      -0.2714
    119  CB        13.4410   -7.4460   12.3170 C.3    99  CYS99       0.0997
    120  SG        14.2100   -7.4440   10.6690 S.3    99  CYS99      -0.0797
    121  N         10.9450   -9.3530   14.2170 N.am  100  LYS100     -0.1963
    122  CA        10.0880   -9.4750   15.4070 C.3   100  LYS100      0.1728
    123  C         10.6760   -9.0340   16.7610 C.2   100  LYS100      0.2616
    124  O          9.9000   -8.7130   17.6500 O.2   100  LYS100     -0.2715
    125  CB         9.4890  -10.8900   15.5420 C.3   100  LYS100      0.0311
    126  CG        10.4080  -11.9980   16.0120 C.3   100  LYS100      0.0038
    127  CD         9.6000  -13.2640   16.3120 C.3   100  LYS100      0.0206
    128  CE         9.0000  -13.3030   17.7020 C.3   100  LYS100      0.1093
    129  NZ         8.1300  -14.4970   17.8910 N.3   100  LYS100     -0.1314
    130  N         11.9850   -9.0120   16.9400 N.am  101  PHE101     -0.1960
    131  CA        12.4970   -8.6210   18.2510 C.3   101  PHE101      0.1771
    132  C         12.8950   -7.1400   18.3550 C.2   101  PHE101      0.2620
    133  O         13.3080   -6.7040   19.4320 O.2   101  PHE101     -0.2715
    134  CB        13.6360   -9.5560   18.6920 C.3   101  PHE101      0.0574
    135  CG        13.1850  -10.9890   18.8960 C.ar  101  PHE101     -0.0200
    136  CD1       12.4460  -11.3520   20.0170 C.ar  101  PHE101     -0.0042
    137  CD2       13.5110  -11.9770   17.9710 C.ar  101  PHE101     -0.0042
    138  CE1       12.0360  -12.6830   20.2090 C.ar  101  PHE101     -0.0003
    139  CE2       13.1060  -13.3040   18.1640 C.ar  101  PHE101     -0.0003
    140  CZ        12.3660  -13.6470   19.2790 C.ar  101  PHE101     -0.0000
    141  N         12.7200   -6.3760   17.2790 N.am  102  GLY102     -0.1940
    142  CA        13.0680   -4.9520   17.2460 C.3   102  GLY102      0.2014
    143  C         14.5570   -4.6520   17.2330 C.2   102  GLY102      0.2638
    144  O         15.3640   -5.5130   16.8740 O.2   102  GLY102     -0.2714
    145  N         14.9450   -3.4190   17.6310 N.am  103  ASN103     -0.1972
    146  CA        16.3460   -2.9820   17.6240 C.3   103  ASN103      0.1688
    147  C         17.1920   -3.6800   18.6880 C.2   103  ASN103      0.2292
    148  O         16.6710   -4.0470   19.7440 O.2   103  ASN103     -0.2864
    149  CB        16.4720   -1.4490   17.6940 C.3   103  ASN103      0.1181
    150  CG        16.0950   -0.8530   19.0170 C.2   103  ASN103      0.2629
    151  OD1       16.8190   -0.9830   19.9980 O.2   103  ASN103     -0.2716
    152  ND2       14.9940   -0.1280   19.0550 N.am  103  ASN103     -0.0877
    153  N         27.7610   -3.9510    2.0310 N.3   149  LEU149     -0.1245
    154  CA        27.4070   -2.5620    1.7050 C.3   149  LEU149      0.1561
    155  C         28.5870   -1.8210    1.0770 C.2   149  LEU149      0.2260
    156  O         28.3790   -1.0240    0.1560 O.2   149  LEU149     -0.2867
    157  CB        26.8500   -1.7920    2.9200 C.3   149  LEU149      0.0270
    158  CG        25.5080   -2.2670    3.5180 C.3   149  LEU149      0.0019
    159  CD1       25.1830   -1.5000    4.7830 C.3   149  LEU149      0.0001
    160  CD2       24.3490   -2.1250    2.5240 C.3   149  LEU149      0.0001
    161  N         27.1400    3.8010    5.3870 N.3   156  HIS156     -0.1241
    162  CA        25.9830    3.9380    6.2700 C.3   156  HIS156      0.1621
    163  C         25.7750    5.3720    6.8140 C.2   156  HIS156      0.2264
    164  O         24.7050    5.9290    6.6000 O.2   156  HIS156     -0.2867
    165  CB        26.0190    2.8960    7.4050 C.3   156  HIS156      0.0745
    166  CG        24.6900    2.6860    8.0560 C.ar  156  HIS156      0.0817
    167  ND1       24.1690    3.6070    8.9540 N.ar  156  HIS156     -0.2268
    168  CD2       23.8110    1.6740    7.9130 C.ar  156  HIS156      0.1154
    169  CE1       23.0000    3.1200    9.3330 C.ar  156  HIS156      0.1986
    170  NE2       22.7400    1.9590    8.7320 N.ar  156  HIS156     -0.2212
    171  N         18.4310   -4.5720   13.6650 N.3   165  LEU165     -0.1245
    172  CA        17.1820   -5.2500   14.0370 C.3   165  LEU165      0.1561
    173  C         17.4350   -6.7360   14.2250 C.2   165  LEU165      0.2260
    174  O         18.2820   -7.3050   13.5320 O.2   165  LEU165     -0.2867
    175  CB        16.0660   -5.0170   12.9860 C.3   165  LEU165      0.0270
    176  CG        15.7040   -3.5370   12.6870 C.3   165  LEU165      0.0019
    177  CD1       14.7510   -3.4330   11.5470 C.3   165  LEU165      0.0001
    178  CD2       15.1580   -2.8310   13.9220 C.3   165  LEU165      0.0001
    179  N         21.1570   -4.9270    9.3870 N.3   174  ILE174     -0.1231
    180  CA        21.4700   -3.4930    9.3590 C.3   174  ILE174      0.1692
    181  C         20.2940   -2.7250    8.7130 C.2   174  ILE174      0.2592
    182  O         19.7910   -3.1260    7.6490 O.2   174  ILE174     -0.2718
    183  CB        22.8210   -3.2030    8.6490 C.3   174  ILE174      0.0266
    184  CG1       23.9940   -3.9620    9.3240 C.3   174  ILE174      0.0019
    185  CG2       23.0960   -1.6840    8.6100 C.3   174  ILE174      0.0020
    186  CD1       25.1940   -4.2080    8.4400 C.3   174  ILE174      0.0001
    187  N         19.8720   -1.6100    9.3460 N.am  175  CYS175     -0.1956
    188  CA        18.7960   -0.7600    8.8150 C.3   175  CYS175      0.1843
    189  C         19.1400    0.7210    8.9510 C.2   175  CYS175      0.2625
    190  O         20.2170    1.0660    9.4290 O.2   175  CYS175     -0.2714
    191  CB        17.4570   -1.0940    9.4820 C.3   175  CYS175      0.0997
    192  SG        17.2730   -0.4290   11.1580 S.3   175  CYS175     -0.0797
    193  N         18.2300    1.6010    8.5130 N.am  176  ASP176     -0.1957
    194  CA        18.3650    3.0420    8.6990 C.3   176  ASP176      0.1840
    195  C         16.9540    3.6220    8.8580 C.2   176  ASP176      0.2622
    196  O         16.2020    3.6590    7.8940 O.2   176  ASP176     -0.2715
    197  CB        19.1580    3.7250    7.5650 C.3   176  ASP176      0.1450
    198  CG        19.5570    5.1730    7.8530 C.2   176  ASP176      0.3671
    199  OD1       19.1420    5.7130    8.8940 O.co2 176  ASP176     -0.2456
    200  OD2       20.3020    5.7490    7.0520 O.co2 176  ASP176     -0.2456
    201  N         16.5740    4.0010   10.0850 N.am  177  PHE177     -0.1974
    202  CA        15.2330    4.5580   10.3410 C.3   177  PHE177      0.1639
    203  C         15.0060    5.9270    9.6580 C.2   177  PHE177      0.2290
    204  O         13.8790    6.2380    9.2980 O.2   177  PHE177     -0.2864
    205  CB        14.9410    4.6530   11.8610 C.3   177  PHE177      0.0560
    206  CG        14.4990    3.3620   12.5240 C.ar  177  PHE177     -0.0200
    207  CD1       15.4300    2.4070   12.9160 C.ar  177  PHE177     -0.0042
    208  CD2       13.1510    3.1090   12.7670 C.ar  177  PHE177     -0.0042
    209  CE1       15.0250    1.2190   13.5210 C.ar  177  PHE177     -0.0003
    210  CE2       12.7460    1.9120   13.3680 C.ar  177  PHE177     -0.0003
    211  CZ        13.6890    0.9860   13.7560 C.ar  177  PHE177     -0.0000
@<TRIPOS>BOND
     1    59    60    1
     2    43    44    1
     3    62    61    2
     4    61    60    1
     5    60    63    1
     6    44    45    1
     7    44    47    1
     8    46    45    2
     9    53    54    2
    10    53    52    1
    11    45    51   am
    12    48    47    1
    13    48    50    1
    14    51    52    1
    15    47    49    1
    16    52    55    1
    17    63    64    1
    18    63    65    1
    19    64    66    1
    20    34    35    1
    21    55    56    1
    22    36    37    2
    23    36    35    1
    24    35    38    1
    25   156   155    2
    26    87    85    1
    27    56    57    1
    28    56    58    1
    29    86    85    1
    30   155   154    1
    31    38    39    1
    32    82    85    1
    33    82    81    1
    34    82    83    1
    35   154   153    1
    36   154   157    1
    37    39    40    1
    38    83    84    2
    39   160   158    1
    40   157   158    1
    41    40    42   ar
    42    40    41   ar
    43   158   159    1
    44    88    89    1
    45    93    92    1
    46    72    71    1
    47    28    27    2
    48    77    76    2
    49    89    92    1
    50    89    90    1
    51    71    73    1
    52    71    68    1
    53    76    75    1
    54    92    94    1
    55   102   101   ar
    56    90    95   am
    57    90    91    2
    58    95    96    1
    59    27    26    1
    60    70    69    2
    61   103   101   ar
    62   101   100    1
    63   161   162    1
    64    69    68    1
    65    69    74   am
    66    68    67    1
    67    99    96    1
    68    99   100    1
    69    25    26    1
    70    23    22    2
    71    29    26    1
    72    29    30    1
    73    96    97    1
    74    75    74    1
    75    75    78    1
    76    30    31    1
    77    32    33    1
    78    32    31    1
    79   162   163    1
    80   162   165    1
    81   164   163    2
    82    79    78    1
    83    22    21    1
    84   200   198   ar
    85    78    80    1
    86   165   166    1
    87    97    98    2
    88    97   104   am
    89    20    21    1
    90   197   198    1
    91   197   194    1
    92   182   181    2
    93   198   199   ar
    94   196   195    2
    95   168   166   ar
    96   168   170   ar
    97   166   167   ar
    98    21    24    1
    99   104   105    1
   100   186   184    1
   101   193   194    1
   102   193   189   am
   103   185   183    1
   104   183   184    1
   105   183   180    1
   106   194   195    1
   107   181   187   am
   108   181   180    1
   109   170   169   ar
   110   188   189    1
   111   188   187    1
   112   188   191    1
   113   195   201   am
   114   189   190    2
   115   167   169   ar
   116   204   203    2
   117   180   179    1
   118   191   192    1
   119   105   108    1
   120   105   106    1
   121   203   202    1
   122   108   109    1
   123   201   202    1
   124   107   106    2
   125   202   205    1
   126   106   115   am
   127    14    13    1
   128    14    15    1
   129    14    17    1
   130    19    17    1
   131   120   119    1
   132    18    17    1
   133    15    16    2
   134   109   110   ar
   135   109   111   ar
   136   115   116    1
   137   177   176    1
   138   110   112   ar
   139   205   206    1
   140   111   113   ar
   141   119   116    1
   142   116   117    1
   143   206   208   ar
   144   206   207   ar
   145   176   175    1
   146   176   178    1
   147   208   210   ar
   148   207   209   ar
   149     7     6    1
   150   175   172    1
   151   112   114   ar
   152   210   211   ar
   153   113   114   ar
   154   209   211   ar
   155   174   173    2
   156   171   172    1
   157   117   121   am
   158   117   118    2
   159   172   173    1
   160     6     5    1
   161     6     8    1
   162   121   122    1
   163     5     2    1
   164     1     2    1
   165     4     3    2
   166   122   125    1
   167   122   123    1
   168     2     3    1
   169   125   126    1
   170     3     9   am
   171   126   127    1
   172   127   128    1
   173    12    11    2
   174   123   130   am
   175   123   124    2
   176   144   143    2
   177   130   131    1
   178     9    10    1
   179    11    10    1
   180   143   142    1
   181   143   145   am
   182   142   141    1
   183   141   132   am
   184   146   145    1
   185   146   149    1
   186   146   147    1
   187   149   150    1
   188   128   129    1
   189   137   139   ar
   190   137   135   ar
   191   139   140   ar
   192   131   132    1
   193   131   134    1
   194   132   133    2
   195   147   148    2
   196   134   135    1
   197   135   136   ar
   198   150   152   am
   199   150   151    2
   200   140   138   ar
   201   136   138   ar
