@<TRIPOS>MOLECULE
tmp/6gqqA00.pdb
 203 193 0 0 0
SMALL
GASTEIGER

@<TRIPOS>ATOM
      1  N          4.5730    0.9510   14.4870 N.3    28  LEU28      -0.1231
      2  CA         5.6880    0.3630   15.2360 C.3    28  LEU28       0.1693
      3  C          6.5670    1.4800   15.8070 C.2    28  LEU28       0.2592
      4  O          7.0670    1.3590   16.9260 O.2    28  LEU28      -0.2718
      5  CB         6.5100   -0.5740   14.3300 C.3    28  LEU28       0.0284
      6  CG         5.8210   -1.8790   13.9120 C.3    28  LEU28       0.0019
      7  CD1        6.5050   -2.5130   12.7080 C.3    28  LEU28       0.0001
      8  CD2        5.7510   -2.8750   15.0680 C.3    28  LEU28       0.0001
      9  N          6.7480    2.5410   15.0240 N.am   29  GLY29      -0.1957
     10  CA         7.5350    3.7110   15.3990 C.3    29  GLY29       0.1869
     11  C          7.1450    4.9400   14.6040 C.2    29  GLY29       0.2309
     12  O          6.7210    4.8280   13.4500 O.2    29  GLY29      -0.2863
     13  N          6.9490    3.8950   10.7020 N.3    36  VAL36      -0.1245
     14  CA         6.9990    2.4760   10.3190 C.3    36  VAL36       0.1561
     15  C          5.7340    1.8160   10.8650 C.2    36  VAL36       0.2260
     16  O          5.4060    1.9780   12.0430 O.2    36  VAL36      -0.2867
     17  CB         8.2730    1.7370   10.7780 C.3    36  VAL36       0.0252
     18  CG1        8.1860    0.2430   10.4340 C.3    36  VAL36       0.0019
     19  CG2        9.5060    2.3480   10.1350 C.3    36  VAL36       0.0019
     20  N          7.0290   -4.8910    7.3150 N.3    54  ALA54      -0.1245
     21  CA         7.0920   -3.5440    7.9160 C.3    54  ALA54       0.1562
     22  C          7.0540   -2.5450    6.7600 C.2    54  ALA54       0.2260
     23  O          7.6360   -2.8030    5.6990 O.2    54  ALA54      -0.2867
     24  CB         8.3660   -3.3670    8.7240 C.3    54  ALA54       0.0290
     25  N          7.6680    1.5180    5.5920 N.3    56  LYS56      -0.1245
     26  CA         8.1030    2.8960    5.8920 C.3    56  LYS56       0.1561
     27  C          7.3180    3.8530    4.9890 C.2    56  LYS56       0.2260
     28  O          7.2400    3.6510    3.7770 O.2    56  LYS56      -0.2867
     29  CB         9.6240    3.0740    5.7060 C.3    56  LYS56       0.0271
     30  CG        10.0810    4.5200    6.0890 C.3    56  LYS56       0.0035
     31  CD        11.5760    4.7950    5.8250 C.3    56  LYS56       0.0206
     32  CE        12.5120    4.1790    6.8320 C.3    56  LYS56       0.1093
     33  NZ        13.9270    4.5940    6.5670 N.3    56  LYS56      -0.1314
     34  N         15.6250    6.9090   -1.3010 N.3    73  GLU73      -0.1245
     35  CA        15.9230    5.7500   -0.4370 C.3    73  GLU73       0.1567
     36  C         15.5150    4.4560   -1.1710 C.2    73  GLU73       0.2260
     37  O         16.3010    3.5100   -1.2490 O.2    73  GLU73      -0.2867
     38  CB        15.1770    5.8700    0.9050 C.3    73  GLU73       0.0388
     39  CG        15.3400    4.6640    1.8190 C.3    73  GLU73       0.1160
     40  CD        14.7400    4.8520    3.2010 C.2    73  GLU73       0.3649
     41  OE1       14.5250    6.0100    3.6290 O.co2  73  GLU73      -0.2457
     42  OE2       14.4800    3.8240    3.8580 O.co2  73  GLU73      -0.2457
     43  N         18.0960    1.3510   -2.2180 N.3    77  LEU77      -0.1245
     44  CA        17.8890   -0.0140   -1.7140 C.3    77  LEU77       0.1561
     45  C         17.8690   -1.0410   -2.8510 C.2    77  LEU77       0.2260
     46  O         18.3690   -2.1740   -2.6770 O.2    77  LEU77      -0.2867
     47  CB        16.5950   -0.1050   -0.8840 C.3    77  LEU77       0.0270
     48  CG        16.5090    0.7850    0.3730 C.3    77  LEU77       0.0019
     49  CD1       15.1870    0.5510    1.1250 C.3    77  LEU77       0.0001
     50  CD2       17.7020    0.5460    1.3150 C.3    77  LEU77       0.0001
     51  N         21.5820   -1.5070   -3.9000 N.3    80  ILE80      -0.1245
     52  CA        22.2770   -2.3160   -2.8930 C.3    80  ILE80       0.1561
     53  C         21.9730   -3.8180   -3.0560 C.2    80  ILE80       0.2260
     54  O         22.8930   -4.6370   -3.1290 O.2    80  ILE80      -0.2867
     55  CB        21.9950   -1.7890   -1.4570 C.3    80  ILE80       0.0252
     56  CG1       22.6470   -0.3860   -1.2510 C.3    80  ILE80       0.0019
     57  CG2       22.4870   -2.7700   -0.3860 C.3    80  ILE80       0.0019
     58  CD1       22.1190    0.4000    0.0210 C.3    80  ILE80       0.0001
     59  N         21.0750   -7.6380    6.1950 N.3    86  VAL86      -0.1231
     60  CA        20.4840   -6.3130    5.9920 C.3    86  VAL86       0.1692
     61  C         18.9590   -6.4850    6.0090 C.2    86  VAL86       0.2591
     62  O         18.4640   -7.5770    5.6810 O.2    86  VAL86      -0.2718
     63  CB        20.9910   -5.5530    4.7280 C.3    86  VAL86       0.0266
     64  CG1       22.5160   -5.3940    4.7250 C.3    86  VAL86       0.0020
     65  CG2       20.5130   -6.1780    3.4310 C.3    86  VAL86       0.0020
     66  N         18.2050   -5.4120    6.3680 N.am   87  VAL87      -0.1980
     67  CA        16.7300   -5.4460    6.3260 C.3    87  VAL87       0.1595
     68  C         16.3820   -5.2640    4.8340 C.2    87  VAL87       0.2287
     69  O         16.5950   -4.1740    4.2830 O.2    87  VAL87      -0.2864
     70  CB        16.0930   -4.3630    7.2460 C.3    87  VAL87       0.0276
     71  CG1       14.5780   -4.2950    7.0410 C.3    87  VAL87       0.0022
     72  CG2       16.3770   -4.6600    8.7160 C.3    87  VAL87       0.0022
     73  N          7.4410    2.0580    1.2810 N.3   102  VAL102     -0.1245
     74  CA         8.6010    1.1890    1.0250 C.3   102  VAL102      0.1561
     75  C          8.4350   -0.0310    1.9370 C.2   102  VAL102      0.2260
     76  O          8.4190    0.1220    3.1610 O.2   102  VAL102     -0.2867
     77  CB         9.9200    1.9670    1.2410 C.3   102  VAL102      0.0252
     78  CG1       11.1300    1.0540    1.0130 C.3   102  VAL102      0.0019
     79  CG2        9.9770    3.1850    0.3000 C.3   102  VAL102      0.0019
     80  N          9.4320   -3.6460    3.5790 N.3   104  VAL104     -0.1231
     81  CA        10.6230   -4.4460    3.9580 C.3   104  VAL104      0.1692
     82  C         10.2690   -5.6570    4.8390 C.2   104  VAL104      0.2592
     83  O          9.1530   -5.7690    5.3730 O.2   104  VAL104     -0.2718
     84  CB        11.7100   -3.5640    4.6500 C.3   104  VAL104      0.0266
     85  CG1       12.0920   -2.3390    3.8160 C.3   104  VAL104      0.0020
     86  CG2       11.2850   -3.1530    6.0600 C.3   104  VAL104      0.0020
     87  N         11.2580   -6.5570    5.0280 N.am  105  GLU105     -0.1966
     88  CA        11.1200   -7.7260    5.9020 C.3   105  GLU105      0.1733
     89  C         10.8040   -7.3100    7.3480 C.2   105  GLU105      0.2616
     90  O         11.3920   -6.3540    7.8630 O.2   105  GLU105     -0.2715
     91  CB        12.4620   -8.5000    5.9540 C.3   105  GLU105      0.0429
     92  CG        13.0000   -8.9870    4.6220 C.3   105  GLU105      0.1163
     93  CD        14.3660   -9.6420    4.7390 C.2   105  GLU105      0.3649
     94  OE1       14.5270  -10.7550    4.1890 O.co2 105  GLU105     -0.2457
     95  OE2       15.2830   -9.0310    5.3420 O.co2 105  GLU105     -0.2457
     96  N          9.8920   -8.0500    8.0020 N.am  106  PHE106     -0.1960
     97  CA         9.5300   -7.8120    9.4030 C.3   106  PHE106      0.1771
     98  C         10.5200   -8.5540   10.3280 C.2   106  PHE106      0.2620
     99  O         10.7790   -9.7510   10.1170 O.2   106  PHE106     -0.2715
    100  CB         8.0810   -8.2650    9.6790 C.3   106  PHE106      0.0574
    101  CG         7.5940   -8.0840   11.0980 C.ar  106  PHE106     -0.0200
    102  CD1        7.2750   -6.8200   11.5870 C.ar  106  PHE106     -0.0042
    103  CD2        7.4230   -9.1790   11.9370 C.ar  106  PHE106     -0.0042
    104  CE1        6.7950   -6.6570   12.8900 C.ar  106  PHE106     -0.0003
    105  CE2        6.9450   -9.0140   13.2400 C.ar  106  PHE106     -0.0003
    106  CZ         6.6360   -7.7530   13.7070 C.ar  106  PHE106     -0.0000
    107  N         11.0640   -7.8450   11.3560 N.am  107  CYS107     -0.1954
    108  CA        12.0440   -8.4080   12.3270 C.3   107  CYS107      0.1843
    109  C         11.3820   -8.4000   13.7050 C.2   107  CYS107      0.2625
    110  O         11.3500   -7.3680   14.3790 O.2   107  CYS107     -0.2714
    111  CB        13.3270   -7.5900   12.3010 C.3   107  CYS107      0.0997
    112  SG        14.1260   -7.5620   10.6730 S.3   107  CYS107     -0.0797
    113  N         10.8000   -9.5450   14.0950 N.am  108  LYS108     -0.1963
    114  CA         9.9050   -9.6300   15.2470 C.3   108  LYS108      0.1728
    115  C         10.4600   -9.1690   16.6230 C.2   108  LYS108      0.2616
    116  O          9.6500   -8.7310   17.4480 O.2   108  LYS108     -0.2715
    117  CB         9.2810  -11.0350   15.3690 C.3   108  LYS108      0.0311
    118  CG        10.1690  -12.1340   15.9300 C.3   108  LYS108      0.0038
    119  CD         9.3730  -13.4360   16.2120 C.3   108  LYS108      0.0206
    120  CE         8.3880  -13.3440   17.3630 C.3   108  LYS108      0.1093
    121  NZ         7.9550  -14.6860   17.8340 N.3   108  LYS108     -0.1314
    122  N         11.7880   -9.2190   16.8680 N.am  109  PHE109     -0.1960
    123  CA        12.2840   -8.8280   18.1930 C.3   109  PHE109      0.1771
    124  C         12.7010   -7.3490   18.2980 C.2   109  PHE109      0.2620
    125  O         13.0690   -6.9050   19.3870 O.2   109  PHE109     -0.2715
    126  CB        13.3990   -9.7690   18.6830 C.3   109  PHE109      0.0574
    127  CG        12.9320  -11.1960   18.8510 C.ar  109  PHE109     -0.0200
    128  CD1       12.1030  -11.5550   19.9110 C.ar  109  PHE109     -0.0042
    129  CD2       13.2900  -12.1750   17.9330 C.ar  109  PHE109     -0.0042
    130  CE1       11.6460  -12.8710   20.0520 C.ar  109  PHE109     -0.0003
    131  CE2       12.8330  -13.4930   18.0760 C.ar  109  PHE109     -0.0003
    132  CZ        12.0110  -13.8280   19.1310 C.ar  109  PHE109     -0.0000
    133  N         12.5800   -6.5920   17.2060 N.am  110  GLY110     -0.1940
    134  CA        12.9020   -5.1680   17.1970 C.3   110  GLY110      0.2014
    135  C         14.3740   -4.8280   17.3550 C.2   110  GLY110      0.2638
    136  O         15.2420   -5.6560   17.0620 O.2   110  GLY110     -0.2714
    137  N         14.6690   -3.5930   17.8260 N.am  111  ASN111     -0.1972
    138  CA        16.0590   -3.1130   17.8930 C.3   111  ASN111      0.1688
    139  C         16.9340   -3.8360   18.9330 C.2   111  ASN111      0.2292
    140  O         16.4670   -4.2310   20.0120 O.2   111  ASN111     -0.2864
    141  CB        16.1140   -1.5920   18.0590 C.3   111  ASN111      0.1181
    142  CG        16.0910   -1.1410   19.4860 C.2   111  ASN111      0.2629
    143  OD1       17.1370   -1.0610   20.1470 O.2   111  ASN111     -0.2716
    144  ND2       14.8990   -0.8840   19.9970 N.am  111  ASN111     -0.0877
    145  N         27.6030   -4.0330    2.3760 N.3   157  LEU157     -0.1245
    146  CA        27.2740   -2.6310    2.0450 C.3   157  LEU157      0.1561
    147  C         28.4650   -1.9240    1.3500 C.2   157  LEU157      0.2260
    148  O         28.2730   -1.2630    0.3180 O.2   157  LEU157     -0.2867
    149  CB        26.8150   -1.8690    3.3050 C.3   157  LEU157      0.0270
    150  CG        26.2600   -0.4510    3.1370 C.3   157  LEU157      0.0019
    151  CD1       24.9260   -0.4690    2.3810 C.3   157  LEU157      0.0001
    152  CD2       26.0520    0.2000    4.5090 C.3   157  LEU157      0.0001
    153  N         27.0600    3.7860    5.5870 N.3   164  HIS164     -0.1241
    154  CA        25.8680    3.8670    6.4410 C.3   164  HIS164      0.1621
    155  C         25.6000    5.2700    7.0010 C.2   164  HIS164      0.2264
    156  O         24.4970    5.8020    6.7960 O.2   164  HIS164     -0.2867
    157  CB        25.9380    2.8100    7.5630 C.3   164  HIS164      0.0745
    158  CG        24.6280    2.6200    8.2650 C.ar  164  HIS164      0.0817
    159  ND1       24.0820    3.6140    9.0650 N.ar  164  HIS164     -0.2268
    160  CD2       23.7670    1.5770    8.2190 C.ar  164  HIS164      0.1154
    161  CE1       22.9370    3.1240    9.5200 C.ar  164  HIS164      0.1986
    162  NE2       22.6930    1.9120    9.0220 N.ar  164  HIS164     -0.2212
    163  N         18.3330   -4.6890   13.7860 N.3   173  LEU173     -0.1245
    164  CA        17.1070   -5.3930   14.2040 C.3   173  LEU173      0.1561
    165  C         17.3630   -6.8760   14.3840 C.2   173  LEU173      0.2260
    166  O         18.1960   -7.4440   13.6720 O.2   173  LEU173     -0.2867
    167  CB        15.9470   -5.1990   13.2080 C.3   173  LEU173      0.0270
    168  CG        15.5650   -3.7270   12.9260 C.3   173  LEU173      0.0019
    169  CD1       14.4340   -3.6240   11.9340 C.3   173  LEU173      0.0001
    170  CD2       15.2120   -2.9620   14.2060 C.3   173  LEU173      0.0001
    171  N         21.1630   -5.0700    9.5850 N.3   182  ILE182     -0.1231
    172  CA        21.3840   -3.6250    9.6030 C.3   182  ILE182      0.1692
    173  C         20.1810   -2.9020    8.9470 C.2   182  ILE182      0.2592
    174  O         19.7000   -3.3210    7.8850 O.2   182  ILE182     -0.2718
    175  CB        22.6910   -3.2800    8.8570 C.3   182  ILE182      0.0266
    176  CG1       23.9070   -4.0180    9.4910 C.3   182  ILE182      0.0019
    177  CG2       22.9090   -1.7550    8.8510 C.3   182  ILE182      0.0020
    178  CD1       25.1040   -4.0560    8.5940 C.3   182  ILE182      0.0001
    179  N         19.7680   -1.7740    9.5380 N.am  183  CYS183     -0.1956
    180  CA        18.6910   -0.9410    9.0000 C.3   183  CYS183      0.1843
    181  C         19.0600    0.5400    9.1780 C.2   183  CYS183      0.2625
    182  O         20.1180    0.8640    9.7230 O.2   183  CYS183     -0.2714
    183  CB        17.3500   -1.2770    9.6680 C.3   183  CYS183      0.0997
    184  SG        17.1590   -0.6480   11.3620 S.3   183  CYS183     -0.0797
    185  N         18.1660    1.4460    8.7230 N.am  184  ASP184     -0.1957
    186  CA        18.2940    2.8890    8.9510 C.3   184  ASP184      0.1840
    187  C         16.8650    3.4110    9.0760 C.2   184  ASP184      0.2622
    188  O         16.1340    3.4570    8.0820 O.2   184  ASP184     -0.2715
    189  CB        19.0620    3.5930    7.8070 C.3   184  ASP184      0.1450
    190  CG        19.4440    5.0450    8.0420 C.2   184  ASP184      0.3671
    191  OD1       19.1250    5.5740    9.1090 O.co2 184  ASP184     -0.2456
    192  OD2       20.0760    5.6420    7.1510 O.co2 184  ASP184     -0.2456
    193  N         16.4390    3.7220   10.3100 N.am  185  PHE185     -0.1974
    194  CA        15.0970    4.2840   10.5340 C.3   185  PHE185      0.1639
    195  C         14.9100    5.6450    9.8480 C.2   185  PHE185      0.2290
    196  O         13.7970    5.9560    9.4150 O.2   185  PHE185     -0.2864
    197  CB        14.7770    4.3950   12.0390 C.3   185  PHE185      0.0560
    198  CG        14.3030    3.1270   12.7130 C.ar  185  PHE185     -0.0200
    199  CD1       15.2110    2.1640   13.1430 C.ar  185  PHE185     -0.0042
    200  CD2       12.9470    2.8810   12.8960 C.ar  185  PHE185     -0.0042
    201  CE1       14.7710    0.9880   13.7680 C.ar  185  PHE185     -0.0003
    202  CE2       12.5040    1.7110   13.5310 C.ar  185  PHE185     -0.0003
    203  CZ        13.4180    0.7660   13.9600 C.ar  185  PHE185     -0.0000
@<TRIPOS>BOND
     1    51    52    1
     2    54    53    2
     3    53    52    1
     4    52    55    1
     5    45    46    2
     6    45    44    1
     7    43    44    1
     8    44    47    1
     9    55    56    1
    10    55    57    1
    11    34    35    1
    12    56    58    1
    13    37    36    2
    14    36    35    1
    15    47    48    1
    16    35    38    1
    17    79    77    1
    18   148   147    2
    19    48    49    1
    20    48    50    1
    21    38    39    1
    22    78    77    1
    23    74    77    1
    24    74    73    1
    25    74    75    1
    26   147   146    1
    27    39    40    1
    28    75    76    2
    29   146   145    1
    30   146   149    1
    31   151   150    1
    32   150   149    1
    33   150   152    1
    34    40    41   ar
    35    40    42   ar
    36    65    63    1
    37    80    81    1
    38    28    27    2
    39    85    84    1
    40    81    84    1
    41    81    82    1
    42    94    93   ar
    43    69    68    2
    44    92    93    1
    45    92    91    1
    46    84    86    1
    47    64    63    1
    48    63    60    1
    49    93    95   ar
    50    68    67    1
    51    82    87   am
    52    82    83    2
    53    27    26    1
    54    87    88    1
    55   153   154    1
    56    25    26    1
    57    62    61    2
    58    23    22    2
    59    29    26    1
    60    29    30    1
    61    31    30    1
    62    31    32    1
    63    88    91    1
    64    88    89    1
    65    60    61    1
    66    60    59    1
    67    61    66   am
    68    67    66    1
    69    67    70    1
    70   154   155    1
    71   154   157    1
    72    33    32    1
    73    22    21    1
    74   156   155    2
    75    71    70    1
    76   192   190   ar
    77    70    72    1
    78    20    21    1
    79    89    90    2
    80    89    96   am
    81   157   158    1
    82   189   190    1
    83   189   186    1
    84   174   173    2
    85    21    24    1
    86    96    97    1
    87   190   191   ar
    88   188   187    2
    89   160   158   ar
    90   160   162   ar
    91   158   159   ar
    92   178   176    1
    93   185   186    1
    94   185   181   am
    95   177   175    1
    96   175   176    1
    97   175   172    1
    98   173   179   am
    99   173   172    1
   100   186   187    1
   101   180   181    1
   102   180   179    1
   103   180   183    1
   104   162   161   ar
   105   159   161   ar
   106   187   193   am
   107   181   182    2
   108    97   100    1
   109    97    98    1
   110   196   195    2
   111   171   172    1
   112   183   184    1
   113   100   101    1
   114   195   194    1
   115    99    98    2
   116    19    17    1
   117   193   194    1
   118    14    13    1
   119    14    17    1
   120    14    15    1
   121    98   107   am
   122    18    17    1
   123   194   197    1
   124   112   111    1
   125    15    16    2
   126   101   102   ar
   127   101   103   ar
   128   107   108    1
   129   102   104   ar
   130   169   168    1
   131   103   105   ar
   132   197   198    1
   133   111   108    1
   134   108   109    1
   135     7     6    1
   136   198   200   ar
   137   198   199   ar
   138   104   106   ar
   139   200   202   ar
   140   168   167    1
   141   168   170    1
   142   199   201   ar
   143   167   164    1
   144   105   106   ar
   145    12    11    2
   146   202   203   ar
   147   166   165    2
   148   109   113   am
   149   109   110    2
   150   201   203   ar
   151   163   164    1
   152     6     5    1
   153     6     8    1
   154   113   114    1
   155   164   165    1
   156     5     2    1
   157     1     2    1
   158    11    10    1
   159     9    10    1
   160     9     3   am
   161     2     3    1
   162   114   117    1
   163   114   115    1
   164   117   118    1
   165     3     4    2
   166   118   119    1
   167   119   120    1
   168   115   122   am
   169   115   116    2
   170   122   123    1
   171   136   135    2
   172   134   133    1
   173   134   135    1
   174   133   124   am
   175   135   137   am
   176   120   121    1
   177   137   138    1
   178   138   141    1
   179   138   139    1
   180   129   131   ar
   181   129   127   ar
   182   141   142    1
   183   131   132   ar
   184   123   124    1
   185   123   126    1
   186   124   125    2
   187   126   127    1
   188   127   128   ar
   189   139   140    2
   190   132   130   ar
   191   142   144   am
   192   142   143    2
   193   128   130   ar
