@<TRIPOS>MOLECULE
tmp/6gqsA00.pdb
 170 160 0 0 0
SMALL
GASTEIGER

@<TRIPOS>ATOM
      1  N        -12.9830    3.6370    3.7840 N.3    53  GLU53      -0.1231
      2  CA       -14.3590    3.2740    4.1060 C.3    53  GLU53       0.1699
      3  C        -14.7850    3.6800    5.5130 C.2    53  GLU53       0.2592
      4  O        -15.9000    4.1470    5.7440 O.2    53  GLU53      -0.2718
      5  CB       -14.5340    1.7620    3.8720 C.3    53  GLU53       0.0402
      6  CG       -14.5000    1.3830    2.3860 C.3    53  GLU53       0.1161
      7  CD       -15.5100    2.1250    1.5240 C.2    53  GLU53       0.3649
      8  OE1      -16.6730    2.2660    1.9180 O.co2  53  GLU53      -0.2457
      9  OE2      -15.0860    2.5710    0.4300 O.co2  53  GLU53      -0.2457
     10  N        -13.8920    3.4760    6.4960 N.am   54  LEU54      -0.1980
     11  CA       -14.2930    3.7860    7.8580 C.3    54  LEU54       0.1596
     12  C        -14.3290    5.3160    8.0490 C.2    54  LEU54       0.2287
     13  O        -15.2470    5.8160    8.7270 O.2    54  LEU54      -0.2864
     14  CB       -13.2890    3.1260    8.8250 C.3    54  LEU54       0.0297
     15  CG       -13.2310    1.6040    8.7140 C.3    54  LEU54       0.0022
     16  CD1      -12.1440    1.0550    9.6640 C.3    54  LEU54       0.0001
     17  CD2      -14.5950    0.9540    8.9740 C.3    54  LEU54       0.0001
     18  N        -15.0800    7.4620    5.7180 N.3    56  SER56      -0.1202
     19  CA       -16.2760    7.8840    5.0270 C.3    56  SER56       0.2020
     20  C        -17.5050    7.7130    5.9250 C.2    56  SER56       0.2619
     21  O        -18.3960    8.5630    5.9780 O.2    56  SER56      -0.2717
     22  CB       -16.3660    7.0640    3.7910 C.3    56  SER56       0.2103
     23  OG       -17.6300    7.2190    3.2200 O.3    56  SER56      -0.2182
     24  N        -17.5460    6.5760    6.6640 N.am   57  ASN57      -0.1960
     25  CA       -18.6880    6.3680    7.5560 C.3    57  ASN57       0.1819
     26  C        -18.6930    7.4010    8.6750 C.2    57  ASN57       0.2622
     27  O        -19.7610    7.8970    9.0960 O.2    57  ASN57      -0.2715
     28  CB       -18.6180    4.9610    8.1780 C.3    57  ASN57       0.1195
     29  CG       -18.9730    3.9090    7.1690 C.2    57  ASN57       0.2630
     30  OD1      -19.5990    4.2240    6.1380 O.2    57  ASN57      -0.2716
     31  ND2      -18.5550    2.6770    7.3900 N.am   57  ASN57      -0.0877
     32  N        -17.5170    7.7270    9.2330 N.am   58  SER58      -0.1950
     33  CA       -17.4330    8.7890   10.2350 C.3    58  SER58       0.1924
     34  C        -17.9070   10.1250    9.6590 C.2    58  SER58       0.2314
     35  O        -18.6190   10.8540   10.3290 O.2    58  SER58      -0.2863
     36  CB       -16.0030    8.9520   10.7680 C.3    58  SER58       0.2116
     37  OG       -15.6510    7.7710   11.5410 O.3    58  SER58      -0.2180
     38  N        -19.9610   10.6390    7.2020 N.3    60  ASP60      -0.1225
     39  CA       -21.4210   10.6150    7.0690 C.3    60  ASP60       0.1805
     40  C        -22.0880   10.8860    8.4190 C.2    60  ASP60       0.2597
     41  O        -23.1020   11.5950    8.5010 O.2    60  ASP60      -0.2718
     42  CB       -21.9110    9.2890    6.4950 C.3    60  ASP60       0.1424
     43  CG       -21.5410    9.0340    5.0490 C.2    60  ASP60       0.3668
     44  OD1      -21.1220   10.0080    4.3790 O.co2  60  ASP60      -0.2456
     45  OD2      -21.6800    7.8720    4.6210 O.co2  60  ASP60      -0.2456
     46  N        -21.5830   10.2510    9.4790 N.am   61  ALA61      -0.1979
     47  CA       -22.1840   10.4260   10.8070 C.3    61  ALA61       0.1597
     48  C        -22.0420   11.8570   11.3290 C.2    61  ALA61       0.2287
     49  O        -22.8860   12.3170   12.1230 O.2    61  ALA61      -0.2864
     50  CB       -21.4960    9.4470   11.7820 C.3    61  ALA61       0.0319
     51  N        -24.5380   14.1160    9.6160 N.3    64  LYS64      -0.1245
     52  CA       -25.8510   13.9870   10.2350 C.3    64  LYS64       0.1561
     53  C        -25.9900   14.9370   11.4210 C.2    64  LYS64       0.2260
     54  O        -27.0940   15.3730   11.6860 O.2    64  LYS64      -0.2867
     55  CB       -26.1660   12.5300   10.5600 C.3    64  LYS64       0.0271
     56  CG       -26.4190   11.7190    9.2910 C.3    64  LYS64       0.0035
     57  CD       -26.4980   10.2890    9.5970 C.3    64  LYS64       0.0206
     58  CE       -26.6730    9.5390    8.2960 C.3    64  LYS64       0.1093
     59  NZ       -26.7050    8.0800    8.5430 N.3    64  LYS64      -0.1314
     60  N        -14.8900    9.0110   16.0740 N.3    99  ASP99      -0.1239
     61  CA       -15.5830   10.2050   15.6000 C.3    99  ASP99       0.1674
     62  C        -16.5590   10.6860   16.6630 C.2    99  ASP99       0.2266
     63  O        -16.9850    9.9200   17.5430 O.2    99  ASP99      -0.2867
     64  CB       -16.2690    9.9700   14.2470 C.3    99  ASP99       0.1410
     65  CG       -17.4670    9.0170   14.2810 C.2    99  ASP99       0.3668
     66  OD1      -18.4440    9.3280   14.9940 O.co2  99  ASP99      -0.2456
     67  OD2      -17.3810    7.9090   13.6620 O.co2  99  ASP99      -0.2456
     68  N        -23.0840   11.0860   14.9880 N.3   102  ILE102     -0.1231
     69  CA       -24.3210   10.8390   15.7210 C.3   102  ILE102      0.1692
     70  C        -24.2760    9.5830   16.5760 C.2   102  ILE102      0.2593
     71  O        -25.1430    9.4500   17.4450 O.2   102  ILE102     -0.2718
     72  CB       -25.5110   10.7700   14.7730 C.3   102  ILE102      0.0266
     73  CG1      -25.3420    9.6930   13.6990 C.3   102  ILE102      0.0019
     74  CG2      -25.8930   12.1320   14.2590 C.3   102  ILE102      0.0020
     75  CD1      -26.6700    9.2450   13.1150 C.3   102  ILE102      0.0001
     76  N        -23.3780    8.6280   16.2970 N.am  103  GLY103     -0.1942
     77  CA       -23.4570    7.3690   17.0450 C.3   103  GLY103      0.2014
     78  C        -24.5670    6.4590   16.5350 C.2   103  GLY103      0.2638
     79  O        -25.2970    6.8040   15.5980 O.2   103  GLY103     -0.2714
     80  N        -24.6670    5.2670   17.1530 N.am  104  MET104     -0.1976
     81  CA       -25.6740    4.2810   16.8050 C.3   104  MET104      0.1605
     82  C        -26.3610    3.8280   18.0950 C.2   104  MET104      0.2287
     83  O        -25.7460    3.5950   19.1270 O.2   104  MET104     -0.2864
     84  CB       -25.0410    3.0610   16.1240 C.3   104  MET104      0.0413
     85  CG       -24.6700    3.3540   14.6460 C.3   104  MET104      0.0598
     86  SD       -23.7270    2.0090   13.8980 S.3   104  MET104     -0.1393
     87  CE       -22.0960    2.3350   14.5380 C.3   104  MET104      0.0692
     88  N        -27.9610   -2.3640   11.1510 N.3   112  ASN112     -0.1225
     89  CA       -27.0710   -1.7560   10.1530 C.3   112  ASN112      0.1785
     90  C        -25.7320   -2.4800   10.0230 C.2   112  ASN112      0.2597
     91  O        -25.1010   -2.3910    8.9540 O.2   112  ASN112     -0.2718
     92  CB       -26.8310   -0.2740   10.4100 C.3   112  ASN112      0.1169
     93  CG       -28.0990    0.4980   10.6600 C.2   112  ASN112      0.2627
     94  OD1      -29.2010   -0.0300   10.5220 O.2   112  ASN112     -0.2716
     95  ND2      -27.9650    1.7510   11.0170 N.am  112  ASN112     -0.0877
     96  N        -25.3330   -3.1910   11.0710 N.am  113  LEU113     -0.1980
     97  CA       -24.0410   -3.9020   11.0850 C.3   113  LEU113      0.1596
     98  C        -24.2470   -5.4050   11.1420 C.2   113  LEU113      0.2287
     99  O        -23.5540   -6.0400   11.8600 O.2   113  LEU113     -0.2864
    100  CB       -23.0850   -3.4260   12.1780 C.3   113  LEU113      0.0297
    101  CG       -22.6430   -1.9770   12.1060 C.3   113  LEU113      0.0022
    102  CD1      -21.6320   -1.7470   13.2090 C.3   113  LEU113      0.0001
    103  CD2      -22.0500   -1.6310   10.7570 C.3   113  LEU113      0.0001
    104  N        -28.1260   -6.2160    2.3350 N.3   118  ARG118     -0.1245
    105  CA       -27.7540   -5.0830    1.4930 C.3   118  ARG118      0.1563
    106  C        -27.9710   -5.5360    0.0510 C.2   118  ARG118      0.2260
    107  O        -27.5460   -6.6410   -0.3000 O.2   118  ARG118     -0.2867
    108  CB       -26.2820   -4.7330    1.7450 C.3   118  ARG118      0.0307
    109  CG       -26.0700   -4.0450    3.1040 C.3   118  ARG118      0.0489
    110  CD       -26.6620   -2.6580    2.8660 C.3   118  ARG118      0.2205
    111  NE       -26.4030   -1.5870    3.8240 N.pl3 118  ARG118     -0.0865
    112  CZ       -26.2790   -0.3090    3.4760 C.cat 118  ARG118      0.5346
    113  NH1      -26.2410    0.6230    4.4190 N.pl3 118  ARG118      0.1354
    114  NH2      -26.1840    0.0110    2.1830 N.pl3 118  ARG118      0.1354
    115  N        -17.1360    0.2770   -1.6800 N.3   138  GLY138     -0.1225
    116  CA       -18.0060    1.3500   -1.1960 C.3   138  GLY138      0.1811
    117  C        -19.2330    1.5270   -2.0970 C.2   138  GLY138      0.2280
    118  O        -20.3830    1.7390   -1.6210 O.2   138  GLY138     -0.2866
    119  N        -22.3280   -0.6880   -1.3420 N.3   141  GLY141     -0.1210
    120  CA       -23.1250   -0.5470   -0.1550 C.3   141  GLY141      0.1956
    121  C        -22.7380   -1.4580    1.0200 C.2   141  GLY141      0.2612
    122  O        -23.4940   -1.6380    1.9770 O.2   141  GLY141     -0.2717
    123  N        -21.4780   -1.9200    1.0250 N.am  142  VAL142     -0.1965
    124  CA       -21.0200   -2.9100    1.9860 C.3   142  VAL142      0.1727
    125  C        -19.6220   -2.5400    2.4960 C.2   142  VAL142      0.2617
    126  O        -18.9010   -3.3970    3.0210 O.2   142  VAL142     -0.2715
    127  CB       -21.0450   -4.3690    1.4840 C.3   142  VAL142      0.0290
    128  CG1      -22.4160   -5.0060    1.5570 C.3   142  VAL142      0.0023
    129  CG2      -20.4520   -4.5430    0.1160 C.3   142  VAL142      0.0023
    130  N        -19.3110   -1.2310    2.4670 N.am  143  GLY143     -0.1940
    131  CA       -17.9700   -0.7590    2.8370 C.3   143  GLY143      0.2014
    132  C        -17.4490   -1.0870    4.2410 C.2   143  GLY143      0.2639
    133  O        -16.2430   -1.2730    4.4240 O.2   143  GLY143     -0.2714
    134  N        -18.3320   -1.1770    5.2370 N.am  144  PHE144     -0.1959
    135  CA       -17.8520   -1.4260    6.5990 C.3   144  PHE144      0.1771
    136  C        -17.0090   -2.6960    6.6490 C.2   144  PHE144      0.2619
    137  O        -16.0290   -2.8130    7.4090 O.2   144  PHE144     -0.2715
    138  CB       -19.0420   -1.4940    7.5620 C.3   144  PHE144      0.0574
    139  CG       -18.6690   -1.9860    8.9470 C.ar  144  PHE144     -0.0200
    140  CD1      -18.0960   -1.1140    9.8860 C.ar  144  PHE144     -0.0042
    141  CD2      -18.8720   -3.3140    9.3220 C.ar  144  PHE144     -0.0042
    142  CE1      -17.7470   -1.5550   11.1650 C.ar  144  PHE144     -0.0003
    143  CE2      -18.5290   -3.7540   10.6110 C.ar  144  PHE144     -0.0003
    144  CZ       -17.9760   -2.8700   11.5010 C.ar  144  PHE144     -0.0000
    145  N        -17.4180   -3.7290    5.8820 N.am  145  TYR145     -0.1974
    146  CA       -16.8080   -5.0500    6.0540 C.3   145  TYR145      0.1639
    147  C        -15.3890   -5.0920    5.4870 C.2   145  TYR145      0.2290
    148  O        -14.6790   -6.0640    5.7240 O.2   145  TYR145     -0.2864
    149  CB       -17.7190   -6.1200    5.4030 C.3   145  TYR145      0.0560
    150  CG       -19.0750   -6.1030    6.0610 C.ar  145  TYR145     -0.0198
    151  CD1      -19.2380   -6.6990    7.3070 C.ar  145  TYR145     -0.0009
    152  CD2      -20.1660   -5.4890    5.4600 C.ar  145  TYR145     -0.0009
    153  CE1      -20.4510   -6.6100    7.9770 C.ar  145  TYR145      0.0417
    154  CE2      -21.3920   -5.4000    6.1230 C.ar  145  TYR145      0.0417
    155  CZ       -21.5180   -5.9570    7.3810 C.ar  145  TYR145      0.1957
    156  OH       -22.7030   -5.8570    8.0890 O.3   145  TYR145     -0.2866
    157  N        -18.7800    7.3410   17.7500 N.3   190  THR190     -0.1218
    158  CA       -18.4300    5.9320   17.5160 C.3   190  THR190      0.1862
    159  C        -16.9200    5.7670   17.5110 C.2   190  THR190      0.2287
    160  O        -16.1890    6.6100   16.9810 O.2   190  THR190     -0.2866
    161  CB       -19.0140    5.4830   16.1620 C.3   190  THR190      0.1770
    162  OG1      -20.4390    5.6330   16.2180 O.3   190  THR190     -0.2211
    163  CG2      -18.7330    4.0250   15.8340 C.3   190  THR190      0.0375
    164  N        -14.3200    2.6970   16.2710 N.3   192  VAL192     -0.1245
    165  CA       -14.1380    1.4090   15.5990 C.3   192  VAL192      0.1561
    166  C        -12.7320    0.9170   15.9310 C.2   192  VAL192      0.2260
    167  O        -11.7540    1.5710   15.5300 O.2   192  VAL192     -0.2867
    168  CB       -14.3440    1.4870   14.0780 C.3   192  VAL192      0.0252
    169  CG1      -14.0880    0.1010   13.4440 C.3   192  VAL192      0.0019
    170  CG2      -15.7720    1.9260   13.7510 C.3   192  VAL192      0.0019
@<TRIPOS>BOND
     1   117   118    2
     2   117   116    1
     3   115   116    1
     4   119   120    1
     5   107   106    2
     6   120   121    1
     7   106   105    1
     8   129   127    1
     9     9     7   ar
    10   121   123   am
    11   121   122    2
    12   123   124    1
    13   127   128    1
    14   127   124    1
    15   105   108    1
    16   105   104    1
    17     7     8   ar
    18     7     6    1
    19   108   109    1
    20   124   125    1
    21   114   112    1
    22     6     5    1
    23   130   125   am
    24   130   131    1
    25   125   126    2
    26   131   132    1
    27   110   109    1
    28   110   111    1
    29    23    22    1
    30   112   111    2
    31   112   113    1
    32     1     2    1
    33    22    19    1
    34     5     2    1
    35     2     3    1
    36   132   133    2
    37   132   134   am
    38    44    43   ar
    39    45    43   ar
    40    19    18    1
    41    19    20    1
    42    43    42    1
    43   134   135    1
    44   149   146    1
    45   149   150    1
    46   152   150   ar
    47   152   154   ar
    48   147   148    2
    49   147   146    1
    50     3     4    2
    51     3    10   am
    52   145   146    1
    53   145   136   am
    54    20    21    2
    55    20    24   am
    56   150   151   ar
    57   154   155   ar
    58    30    29    2
    59    42    39    1
    60    10    11    1
    61   135   136    1
    62   135   138    1
    63   136   137    2
    64    24    25    1
    65    39    38    1
    66    39    40    1
    67    29    31   am
    68    29    28    1
    69   151   153   ar
    70   155   153   ar
    71   155   156    1
    72    25    28    1
    73    25    26    1
    74   138   139    1
    75    11    12    1
    76    11    14    1
    77    12    13    2
    78    58    59    1
    79    58    57    1
    80    40    41    2
    81    40    46   am
    82    26    27    2
    83    26    32   am
    84    15    14    1
    85    15    17    1
    86    15    16    1
    87   139   141   ar
    88   139   140   ar
    89    91    90    2
    90    32    33    1
    91    56    57    1
    92    56    55    1
    93   141   143   ar
    94    46    47    1
    95    51    52    1
    96    34    33    1
    97    34    35    2
    98   140   142   ar
    99    90    89    1
   100    90    96   am
   101    89    92    1
   102    89    88    1
   103    33    36    1
   104    52    55    1
   105    52    53    1
   106    92    93    1
   107    94    93    2
   108   143   144   ar
   109    93    95   am
   110   103   101    1
   111    36    37    1
   112    47    48    1
   113    47    50    1
   114    96    97    1
   115    97    98    1
   116    97   100    1
   117    98    99    2
   118   142   144   ar
   119    48    49    2
   120    53    54    2
   121   101   100    1
   122   101   102    1
   123    75    73    1
   124   169   168    1
   125    67    65   ar
   126    73    72    1
   127   170   168    1
   128    86    87    1
   129    86    85    1
   130   168   165    1
   131    64    65    1
   132    64    61    1
   133    74    72    1
   134    65    66   ar
   135    85    84    1
   136    72    69    1
   137    68    69    1
   138   167   166    2
   139    79    78    2
   140   165   166    1
   141   165   164    1
   142    61    60    1
   143    61    62    1
   144    69    70    1
   145   163   161    1
   146    84    81    1
   147   161   162    1
   148   161   158    1
   149    76    70   am
   150    76    77    1
   151    78    77    1
   152    78    80   am
   153    70    71    2
   154    62    63    2
   155    81    80    1
   156    81    82    1
   157   160   159    2
   158   159   158    1
   159   158   157    1
   160    82    83    2
