@<TRIPOS>MOLECULE
tmp/6gqtD01.pdb
 117 113 0 0 0
SMALL
GASTEIGER

@<TRIPOS>ATOM
      1  N         56.6900  132.8680   25.2430 N.3     8  LYS8       -0.1231
      2  CA        55.5320  133.6210   24.8020 C.3     8  LYS8        0.1693
      3  C         55.5070  133.7110   23.2490 C.2     8  LYS8        0.2592
      4  O         56.3840  134.3640   22.6330 O.2     8  LYS8       -0.2718
      5  CB        55.5650  135.0390   25.3820 C.3     8  LYS8        0.0285
      6  CG        55.5360  135.0080   26.9260 C.3     8  LYS8        0.0035
      7  CD        54.7900  136.0660   27.6890 C.3     8  LYS8        0.0206
      8  CE        55.3890  136.1350   29.1000 C.3     8  LYS8        0.1093
      9  NZ        54.2880  136.3860   30.0430 N.3     8  LYS8       -0.1314
     10  N         54.5640  133.0110   22.6340 N.am    9  LEU9       -0.1966
     11  CA        54.4450  132.9010   21.1830 C.3     9  LEU9        0.1728
     12  C         53.2430  133.6970   20.6810 C.2     9  LEU9        0.2616
     13  O         52.2030  133.6710   21.3130 O.2     9  LEU9       -0.2715
     14  CB        54.3250  131.4250   20.7280 C.3     9  LEU9        0.0311
     15  CG        55.2770  130.4350   21.3810 C.3     9  LEU9        0.0022
     16  CD1       55.0000  129.0200   20.8370 C.3     9  LEU9        0.0001
     17  CD2       56.7430  130.8420   21.2430 C.3     9  LEU9        0.0001
     18  N         53.4020  134.3940   19.5550 N.am   10  VAL10      -0.1977
     19  CA        52.3280  135.1850   18.9470 C.3    10  VAL10       0.1596
     20  C         52.0760  134.7110   17.4830 C.2    10  VAL10       0.2287
     21  O         53.0220  134.5490   16.7190 O.2    10  VAL10      -0.2864
     22  CB        52.6980  136.6900   18.9360 C.3    10  VAL10       0.0276
     23  CG1       51.5330  137.5190   18.4000 C.3    10  VAL10       0.0022
     24  CG2       53.0070  137.1580   20.3390 C.3    10  VAL10       0.0022
     25  N         44.0880  133.8100   24.3530 N.3    37  SER37      -0.1202
     26  CA        45.3030  133.2600   24.9150 C.3    37  SER37       0.2020
     27  C         45.1220  131.7790   25.3670 C.2    37  SER37       0.2619
     28  O         44.0910  131.3980   25.9240 O.2    37  SER37      -0.2717
     29  CB        45.7610  134.1450   26.0700 C.3    37  SER37       0.2103
     30  OG        44.9950  133.9130   27.2030 O.3    37  SER37      -0.2182
     31  N         46.1350  130.9500   25.1050 N.am   38  TYR38      -0.1961
     32  CA        46.1030  129.5090   25.3640 C.3    38  TYR38       0.1771
     33  C         47.4260  129.0640   25.9630 C.2    38  TYR38       0.2619
     34  O         48.4270  129.7390   25.7630 O.2    38  TYR38      -0.2715
     35  CB        45.9310  128.7130   24.0690 C.3    38  TYR38       0.0574
     36  CG        44.6660  128.9890   23.3000 C.ar   38  TYR38      -0.0198
     37  CD1       44.5580  130.1060   22.4680 C.ar   38  TYR38      -0.0009
     38  CD2       43.5640  128.1770   23.4440 C.ar   38  TYR38      -0.0009
     39  CE1       43.3840  130.3780   21.7850 C.ar   38  TYR38       0.0417
     40  CE2       42.3730  128.4530   22.7710 C.ar   38  TYR38       0.0417
     41  CZ        42.3040  129.5520   21.9330 C.ar   38  TYR38       0.1957
     42  OH        41.1500  129.8280   21.2610 O.3    38  TYR38      -0.2866
     43  N         47.4220  127.9520   26.7010 N.am   39  ARG39      -0.1977
     44  CA        48.6610  127.4000   27.3170 C.3    39  ARG39       0.1597
     45  C         48.7800  125.9080   27.1480 C.2    39  ARG39       0.2287
     46  O         47.7610  125.1910   27.1740 O.2    39  ARG39      -0.2864
     47  CB        48.6670  127.6560   28.8100 C.3    39  ARG39       0.0334
     48  CG        48.9590  129.0660   29.2000 C.3    39  ARG39       0.0492
     49  CD        49.1520  129.1510   30.7160 C.3    39  ARG39       0.2205
     50  NE        50.2000  130.1270   30.9470 N.pl3  39  ARG39      -0.0865
     51  CZ        50.4350  130.7550   32.0850 C.cat  39  ARG39       0.5346
     52  NH1       49.6650  130.5480   33.1620 N.pl3  39  ARG39       0.1354
     53  NH2       51.4580  131.6190   32.1370 N.pl3  39  ARG39       0.1354
     54  N         52.8820  129.7610   26.0220 N.3    52  ASP52      -0.1225
     55  CA        51.8210  130.7520   26.1800 C.3    52  ASP52       0.1805
     56  C         51.5780  131.2900   24.7780 C.2    52  ASP52       0.2598
     57  O         52.4710  131.9120   24.2100 O.2    52  ASP52      -0.2718
     58  CB        52.2850  131.9680   27.0250 C.3    52  ASP52       0.1424
     59  CG        52.5290  131.6770   28.5020 C.2    52  ASP52       0.3668
     60  OD1       52.1340  130.6110   29.0540 O.co2  52  ASP52      -0.2456
     61  OD2       53.1850  132.5760   29.1060 O.co2  52  ASP52      -0.2456
     62  N         50.4280  131.0030   24.1890 N.am   53  ILE53      -0.1966
     63  CA        50.1500  131.3250   22.7840 C.3    53  ILE53       0.1727
     64  C         49.0740  132.4060   22.6900 C.2    53  ILE53       0.2616
     65  O         47.9650  132.2000   23.1900 O.2    53  ILE53      -0.2715
     66  CB        49.7320  130.0940   21.9920 C.3    53  ILE53       0.0290
     67  CG1       50.9070  129.0810   22.0300 C.3    53  ILE53       0.0022
     68  CG2       49.4340  130.4310   20.5430 C.3    53  ILE53       0.0023
     69  CD1       50.4250  127.6910   21.7330 C.3    53  ILE53       0.0001
     70  N         49.4060  133.4980   22.0030 N.am   54  LEU54      -0.1977
     71  CA        48.4630  134.6180   21.7630 C.3    54  LEU54       0.1596
     72  C         48.0690  134.6070   20.2990 C.2    54  LEU54       0.2287
     73  O         48.9090  134.7440   19.3900 O.2    54  LEU54      -0.2864
     74  CB        49.1230  135.9650   22.1200 C.3    54  LEU54       0.0297
     75  CG        48.0670  137.1250   22.0430 C.3    54  LEU54       0.0022
     76  CD1       47.0850  137.0610   23.1940 C.3    54  LEU54       0.0001
     77  CD2       48.6530  138.4920   21.9200 C.3    54  LEU54       0.0001
     78  N         46.8770  148.1260   21.6590 N.3    60  MET60      -0.1245
     79  CA        46.8540  146.7290   22.0970 C.3    60  MET60       0.1570
     80  C         47.7390  145.8190   21.2010 C.2    60  MET60       0.2261
     81  O         48.4950  145.0080   21.7110 O.2    60  MET60      -0.2867
     82  CB        45.4110  146.2090   22.1870 C.3    60  MET60       0.0387
     83  CG        45.3100  144.7960   22.6560 C.3    60  MET60       0.0595
     84  SD        45.5440  144.7560   24.4550 S.3    60  MET60      -0.1393
     85  CE        44.0210  145.4920   25.0210 C.3    60  MET60       0.0692
     86  N         51.3460  146.2960   22.2520 N.3    63  GLN63      -0.1231
     87  CA        51.6380  145.7020   23.5690 C.3    63  GLN63       0.1698
     88  C         51.9790  144.1900   23.4340 C.2    63  GLN63       0.2592
     89  O         52.9690  143.6980   24.0000 O.2    63  GLN63      -0.2718
     90  CB        50.4880  145.9030   24.5590 C.3    63  GLN63       0.0381
     91  CG        50.4700  147.3870   24.9650 C.3    63  GLN63       0.0905
     92  CD        49.3430  147.6310   25.9080 C.2    63  GLN63       0.2608
     93  OE1       49.7200  147.9900   27.0460 O.2    63  GLN63      -0.2717
     94  NE2       48.1130  147.4120   25.5200 N.am   63  GLN63      -0.0878
     95  N         51.1150  143.4850   22.5070 N.am   64  TYR64      -0.1976
     96  CA        51.5080  142.0630   22.4780 C.3    64  TYR64       0.1639
     97  C         52.7320  141.8150   21.5630 C.2    64  TYR64       0.2290
     98  O         53.5710  140.9710   21.8500 O.2    64  TYR64      -0.2864
     99  CB        50.3330  141.1970   22.0200 C.3    64  TYR64       0.0560
    100  CG        49.9550  141.3940   20.5690 C.ar   64  TYR64      -0.0198
    101  CD1       50.8620  141.1170   19.5520 C.ar   64  TYR64      -0.0009
    102  CD2       48.6940  141.8540   20.2180 C.ar   64  TYR64      -0.0009
    103  CE1       50.5200  141.2950   18.2260 C.ar   64  TYR64       0.0417
    104  CE2       48.3440  142.0350   18.8920 C.ar   64  TYR64       0.0417
    105  CZ        49.2600  141.7540   17.9010 C.ar   64  TYR64       0.1957
    106  OH        48.9180  141.9340   16.5800 O.3    64  TYR64      -0.2866
    107  N         55.6110  142.0810   24.0630 N.3    67  THR67      -0.1203
    108  CA        55.6770  140.9850   25.0620 C.3    67  THR67       0.1994
    109  C         56.1000  139.6490   24.3710 C.2    67  THR67       0.2618
    110  O         56.8430  138.8540   24.9590 O.2    67  THR67      -0.2717
    111  CB        54.3630  140.8030   25.8460 C.3    67  THR67       0.1784
    112  OG1       54.1150  141.9530   26.6570 O.3    67  THR67      -0.2211
    113  CG2       54.3700  139.5870   26.7400 C.3    67  THR67       0.0376
    114  N         55.6670  139.4500   23.1360 N.am   68  GLY68      -0.1956
    115  CA        56.0510  138.2410   22.3860 C.3    68  GLY68       0.1869
    116  C         57.5190  137.9840   22.2140 C.2    68  GLY68       0.2309
    117  O         58.2690  138.8950   21.8890 O.2    68  GLY68      -0.2863
@<TRIPOS>BOND
     1   106   105    1
     2    21    20    2
     3    20    19    1
     4   105   103   ar
     5   105   104   ar
     6   103   101   ar
     7    23    22    1
     8   104   102   ar
     9    22    19    1
    10    22    24    1
    11    19    18    1
    12    73    72    2
    13   101   100   ar
    14    18    12   am
    15   102   100   ar
    16    72    71    1
    17    68    66    1
    18   100    99    1
    19    12    11    1
    20    12    13    2
    21    14    11    1
    22    14    15    1
    23    16    15    1
    24    11    10    1
    25    80    81    2
    26    80    79    1
    27    17    15    1
    28    42    41    1
    29    97    98    2
    30    97    96    1
    31    78    79    1
    32    69    67    1
    33    71    70    1
    34    71    74    1
    35    39    41   ar
    36    39    37   ar
    37   117   116    2
    38    77    75    1
    39    41    40   ar
    40    66    67    1
    41    66    63    1
    42    70    64   am
    43    99    96    1
    44    75    74    1
    45    75    76    1
    46    79    82    1
    47    82    83    1
    48   116   115    1
    49    86    87    1
    50   115   114    1
    51    37    36   ar
    52    96    95    1
    53    95    88   am
    54     4     3    2
    55    10     3   am
    56    83    84    1
    57    64    63    1
    58    64    65    2
    59    40    38   ar
    60    63    62    1
    61   114   109   am
    62     3     2    1
    63    36    38   ar
    64    36    35    1
    65    88    87    1
    66    88    89    2
    67    87    90    1
    68   107   108    1
    69    35    32    1
    70    62    56   am
    71    57    56    2
    72    25    26    1
    73   109   110    2
    74   109   108    1
    75    84    85    1
    76    90    91    1
    77    56    55    1
    78     2     1    1
    79     2     5    1
    80    26    27    1
    81    26    29    1
    82    91    92    1
    83   108   111    1
    84    31    32    1
    85    31    27   am
    86    32    33    1
    87    27    28    2
    88     5     6    1
    89    94    92   am
    90    34    33    2
    91   111   112    1
    92   111   113    1
    93    92    93    2
    94    33    43   am
    95    54    55    1
    96    29    30    1
    97    55    58    1
    98    43    44    1
    99     6     7    1
   100    58    59    1
   101    45    46    2
   102    45    44    1
   103    44    47    1
   104     7     8    1
   105    59    60   ar
   106    59    61   ar
   107    47    48    1
   108     8     9    1
   109    48    49    1
   110    49    50    1
   111    50    51    2
   112    51    53    1
   113    51    52    1
