@<TRIPOS>MOLECULE
tmp/6gqwC02.pdb
 118 114 0 0 0
SMALL
GASTEIGER

@<TRIPOS>ATOM
      1  N         75.4560  107.9740   33.5280 N.3     9  LYS9       -0.1231
      2  CA        76.0110  106.7380   34.0410 C.3     9  LYS9        0.1693
      3  C         76.3510  106.8990   35.4890 C.2     9  LYS9        0.2592
      4  O         77.2510  107.6780   35.8360 O.2     9  LYS9       -0.2718
      5  CB        77.2380  106.3360   33.2240 C.3     9  LYS9        0.0285
      6  CG        76.8530  106.0400   31.7890 C.3     9  LYS9        0.0035
      7  CD        78.0420  105.4970   31.0420 C.3     9  LYS9        0.0206
      8  CE        77.7700  105.2300   29.5850 C.3     9  LYS9        0.1093
      9  NZ        79.0810  104.8890   28.9980 N.3     9  LYS9       -0.1314
     10  N         75.6030  106.1900   36.3330 N.am   10  LEU10      -0.1966
     11  CA        75.6930  106.3350   37.7830 C.3    10  LEU10       0.1728
     12  C         76.2210  105.0580   38.3970 C.2    10  LEU10       0.2616
     13  O         75.7790  103.9630   38.0420 O.2    10  LEU10      -0.2715
     14  CB        74.3080  106.6170   38.3680 C.3    10  LEU10       0.0311
     15  CG        73.4660  107.6710   37.6400 C.3    10  LEU10       0.0022
     16  CD1       72.1590  107.8990   38.3760 C.3    10  LEU10       0.0001
     17  CD2       74.2700  108.9570   37.4270 C.3    10  LEU10       0.0001
     18  N         77.1390  105.1890   39.3510 N.am   11  VAL11      -0.1977
     19  CA        77.7030  104.0320   40.0330 C.3    11  VAL11       0.1596
     20  C         77.4310  104.1310   41.5260 C.2    11  VAL11       0.2287
     21  O         77.6720  105.1730   42.1390 O.2    11  VAL11      -0.2864
     22  CB        79.2280  103.9830   39.7940 C.3    11  VAL11       0.0276
     23  CG1       79.8280  102.7580   40.4200 C.3    11  VAL11       0.0022
     24  CG2       79.5420  104.0010   38.3030 C.3    11  VAL11       0.0022
     25  N         78.1200   92.2920   40.3470 N.3    41  GLU41      -0.1245
     26  CA        77.9080   93.4230   39.4540 C.3    41  GLU41       0.1567
     27  C         76.5410   93.2670   38.7610 C.2    41  GLU41       0.2260
     28  O         76.2450   92.2190   38.2010 O.2    41  GLU41      -0.2867
     29  CB        79.0530   93.5140   38.4110 C.3    41  GLU41       0.0388
     30  CG        79.2330   94.8760   37.7510 C.3    41  GLU41       0.1160
     31  CD        80.7000   95.2000   37.3810 C.2    41  GLU41       0.3649
     32  OE1       81.5260   95.3010   38.3100 O.co2  41  GLU41      -0.2457
     33  OE2       81.0230   95.3600   36.1830 O.co2  41  GLU41      -0.2457
     34  N         73.5590   95.7140   36.4080 N.3    43  SER43      -0.1202
     35  CA        73.2320   96.9930   35.7640 C.3    43  SER43       0.2020
     36  C         71.7270   97.1710   35.6170 C.2    43  SER43       0.2619
     37  O         70.9980   96.2190   35.3400 O.2    43  SER43      -0.2717
     38  CB        73.9340   97.1350   34.4130 C.3    43  SER43       0.2103
     39  OG        73.8680   95.9470   33.6870 O.3    43  SER43      -0.2182
     40  N         71.2720   98.4020   35.8220 N.am   44  TYR44      -0.1961
     41  CA        69.8520   98.7330   35.7540 C.3    44  TYR44       0.1771
     42  C         69.6660   99.9770   34.8990 C.2    44  TYR44       0.2619
     43  O         70.6190  100.7310   34.6450 O.2    44  TYR44      -0.2715
     44  CB        69.3010   98.9940   37.1510 C.3    44  TYR44       0.0574
     45  CG        69.4030   97.8350   38.1140 C.ar   44  TYR44      -0.0198
     46  CD1       70.5910   97.5470   38.7690 C.ar   44  TYR44      -0.0009
     47  CD2       68.3090   97.0270   38.3780 C.ar   44  TYR44      -0.0009
     48  CE1       70.6890   96.4870   39.6580 C.ar   44  TYR44       0.0417
     49  CE2       68.3960   95.9700   39.2740 C.ar   44  TYR44       0.0417
     50  CZ        69.5880   95.7110   39.9100 C.ar   44  TYR44       0.1957
     51  OH        69.6760   94.6630   40.7760 O.3    44  TYR44      -0.2866
     52  N         68.4280  100.1950   34.4720 N.am   45  ARG45      -0.1977
     53  CA        68.0980  101.3210   33.6030 C.3    45  ARG45       0.1597
     54  C         66.7260  101.8660   33.9270 C.2    45  ARG45       0.2287
     55  O         65.7720  101.1020   34.0350 O.2    45  ARG45      -0.2864
     56  CB        68.1130  100.8540   32.1680 C.3    45  ARG45       0.0334
     57  CG        68.1640  101.9870   31.1630 C.3    45  ARG45       0.0492
     58  CD        68.4810  101.4740   29.7670 C.3    45  ARG45       0.2205
     59  NE        69.6260  102.2310   29.2910 N.pl3  45  ARG45      -0.0865
     60  CZ        70.1130  102.2500   28.0550 C.cat  45  ARG45       0.5346
     61  NH1       69.5350  101.5280   27.0940 N.pl3  45  ARG45       0.1354
     62  NH2       71.1620  103.0200   27.7740 N.pl3  45  ARG45       0.1354
     63  N         71.4940  105.0300   33.7060 N.3    58  ASP58      -0.1225
     64  CA        72.1790  103.7640   33.6130 C.3    58  ASP58       0.1805
     65  C         72.9210  103.5500   34.9170 C.2    58  ASP58       0.2598
     66  O         73.8980  104.2610   35.2070 O.2    58  ASP58      -0.2718
     67  CB        73.1790  103.8010   32.4600 C.3    58  ASP58       0.1424
     68  CG        72.5260  103.4860   31.1010 C.2    58  ASP58       0.3668
     69  OD1       71.3490  103.1060   31.0220 O.co2  58  ASP58      -0.2456
     70  OD2       73.2470  103.7120   30.0900 O.co2  58  ASP58      -0.2456
     71  N         72.4620  102.5820   35.7080 N.am   59  ILE59      -0.1966
     72  CA        72.9510  102.4570   37.0660 C.3    59  ILE59       0.1727
     73  C         73.7280  101.1810   37.2760 C.2    59  ILE59       0.2616
     74  O         73.1980  100.0960   37.0520 O.2    59  ILE59      -0.2715
     75  CB        71.7870  102.4950   38.0720 C.3    59  ILE59       0.0290
     76  CG1       71.0730  103.8370   37.9660 C.3    59  ILE59       0.0022
     77  CG2       72.2960  102.2640   39.5110 C.3    59  ILE59       0.0023
     78  CD1       69.7070  103.7950   38.5700 C.3    59  ILE59       0.0001
     79  N         74.9660  101.3200   37.7510 N.am   60  LEU60      -0.1977
     80  CA        75.7730  100.1700   38.0970 C.3    60  LEU60       0.1596
     81  C         75.8330   99.9430   39.5900 C.2    60  LEU60       0.2287
     82  O         76.3420  100.7710   40.3410 O.2    60  LEU60      -0.2864
     83  CB        77.1870  100.3270   37.5410 C.3    60  LEU60       0.0297
     84  CG        77.9430   98.9860   37.5110 C.3    60  LEU60       0.0022
     85  CD1       77.3310   98.0740   36.4420 C.3    60  LEU60       0.0001
     86  CD2       79.4480   99.2520   37.2960 C.3    60  LEU60       0.0001
     87  N         87.5790   99.5740   35.7410 N.3    70  GLN70      -0.1231
     88  CA        86.8440   99.8360   34.5160 C.3    70  GLN70       0.1698
     89  C         85.6120  100.6940   34.7400 C.2    70  GLN70       0.2592
     90  O         85.4280  101.6900   34.0390 O.2    70  GLN70      -0.2718
     91  CB        86.4580   98.5260   33.8170 C.3    70  GLN70       0.0381
     92  CG        85.6830   98.7360   32.5130 C.3    70  GLN70       0.0905
     93  CD        86.3180   98.1080   31.2920 C.2    70  GLN70       0.2608
     94  OE1       87.5400   97.9850   31.1960 O.2    70  GLN70      -0.2717
     95  NE2       85.4890   97.7350   30.3480 N.am   70  GLN70      -0.0878
     96  N         84.7800  100.3220   35.7150 N.am   71  TYR71      -0.1976
     97  CA        83.5500  101.0780   35.9510 C.3    71  TYR71       0.1639
     98  C         83.7760  102.4360   36.6070 C.2    71  TYR71       0.2290
     99  O         82.9700  103.3430   36.4590 O.2    71  TYR71      -0.2864
    100  CB        82.4880  100.2670   36.7160 C.3    71  TYR71       0.0560
    101  CG        82.8050   99.8890   38.1420 C.ar   71  TYR71      -0.0198
    102  CD1       83.0420  100.8580   39.1230 C.ar   71  TYR71      -0.0009
    103  CD2       82.8500   98.5510   38.5230 C.ar   71  TYR71      -0.0009
    104  CE1       83.3100  100.5070   40.4460 C.ar   71  TYR71       0.0417
    105  CE2       83.1240   98.1740   39.8350 C.ar   71  TYR71       0.0417
    106  CZ        83.3610   99.1650   40.8000 C.ar   71  TYR71       0.1957
    107  OH        83.6300   98.8350   42.1130 O.3    71  TYR71      -0.2866
    108  N         84.3130  104.5740   33.4170 N.3    74  THR74      -0.1203
    109  CA        83.1000  104.8490   32.6360 C.3    74  THR74       0.1994
    110  C         82.0520  105.6950   33.3580 C.2    74  THR74       0.2618
    111  O         81.2970  106.4330   32.7130 O.2    74  THR74      -0.2717
    112  CB        82.3800  103.5650   32.1700 C.3    74  THR74       0.1784
    113  OG1       82.2130  102.6870   33.2940 O.3    74  THR74      -0.2211
    114  CG2       83.1690  102.8500   31.0590 C.3    74  THR74       0.0376
    115  N         81.9810  105.5890   34.6830 N.am   75  GLY75      -0.1956
    116  CA        80.9000  106.2480   35.4290 C.3    75  GLY75       0.1869
    117  C         81.0860  107.7520   35.4840 C.2    75  GLY75       0.2309
    118  O         82.1990  108.2510   35.6940 O.2    75  GLY75      -0.2863
@<TRIPOS>BOND
     1    61    60    1
     2    62    60    1
     3    60    59    2
     4     9     8    1
     5    59    58    1
     6     8     7    1
     7    58    57    1
     8    70    68   ar
     9    95    93   am
    10    69    68   ar
    11     7     6    1
    12   114   112    1
    13    68    67    1
    14    57    56    1
    15    94    93    2
    16    93    92    1
    17     6     5    1
    18    56    53    1
    19   112   109    1
    20   112   113    1
    21    67    64    1
    22    92    91    1
    23   109   110    1
    24   109   108    1
    25   111   110    2
    26     5     2    1
    27   110   115   am
    28     1     2    1
    29    53    54    1
    30    53    52    1
    31    64    63    1
    32    64    65    1
    33    39    38    1
    34    91    88    1
    35    54    55    2
    36    90    89    2
    37     2     3    1
    38    38    35    1
    39    52    42   am
    40    88    89    1
    41    88    87    1
    42    43    42    2
    43   115   116    1
    44    89    96   am
    45    42    41    1
    46    65    66    2
    47    65    71   am
    48    37    36    2
    49   116   117    1
    50   117   118    2
    51     3     4    2
    52     3    10   am
    53    36    35    1
    54    36    40   am
    55    71    72    1
    56    96    97    1
    57    41    40    1
    58    41    44    1
    59    35    34    1
    60    97    98    1
    61    97   100    1
    62    33    31   ar
    63    10    11    1
    64    85    84    1
    65    99    98    2
    66   100   101    1
    67    74    73    2
    68    72    73    1
    69    72    75    1
    70    44    45    1
    71    73    79   am
    72    86    84    1
    73    31    30    1
    74    31    32   ar
    75    17    15    1
    76    84    83    1
    77    83    80    1
    78    15    14    1
    79    15    16    1
    80    30    29    1
    81    79    80    1
    82    11    14    1
    83    11    12    1
    84    76    75    1
    85    76    78    1
    86    13    12    2
    87    75    77    1
    88    80    81    1
    89    45    47   ar
    90    45    46   ar
    91   101   103   ar
    92   101   102   ar
    93    28    27    2
    94    24    22    1
    95    47    49   ar
    96    12    18   am
    97    29    26    1
    98   103   105   ar
    99    27    26    1
   100    46    48   ar
   101   102   104   ar
   102    49    50   ar
   103    18    19    1
   104    26    25    1
   105    81    82    2
   106    48    50   ar
   107    22    19    1
   108    22    23    1
   109   105   106   ar
   110    50    51    1
   111    19    20    1
   112   104   106   ar
   113   106   107    1
   114    20    21    2
