@<TRIPOS>MOLECULE
tmp/6gqyA01.pdb
 118 114 0 0 0
SMALL
GASTEIGER

@<TRIPOS>ATOM
      1  N         64.5480   96.4870   25.4890 N.3     7  GLU7       -0.1245
      2  CA        65.1900   97.2710   24.4690 C.3     7  GLU7        0.1567
      3  C         65.0670   96.5080   23.1510 C.2     7  GLU7        0.2260
      4  O         65.2710   95.3080   23.1160 O.2     7  GLU7       -0.2867
      5  CB        66.6340   97.4270   24.9040 C.3     7  GLU7        0.0388
      6  CG        67.4290   98.4640   24.1960 C.3     7  GLU7        0.1160
      7  CD        68.5990   99.0050   25.0320 C.2     7  GLU7        0.3649
      8  OE1       68.3680   99.2740   26.2320 O.co2   7  GLU7       -0.2457
      9  OE2       69.7310   99.1540   24.4930 O.co2   7  GLU7       -0.2457
     10  N         66.3510   96.4340   19.0250 N.3     9  LYS9       -0.1231
     11  CA        67.2770   96.9870   18.0520 C.3     9  LYS9        0.1693
     12  C         66.6800   96.8470   16.6650 C.2     9  LYS9        0.2592
     13  O         66.5350   95.7430   16.1360 O.2     9  LYS9       -0.2718
     14  CB        68.5910   96.2430   18.1190 C.3     9  LYS9        0.0285
     15  CG        69.2150   96.2850   19.5150 C.3     9  LYS9        0.0035
     16  CD        70.7010   96.0240   19.4070 C.3     9  LYS9        0.0206
     17  CE        71.4640   96.3250   20.6950 C.3     9  LYS9        0.1093
     18  NZ        71.9080   95.0190   21.2150 N.3     9  LYS9       -0.1314
     19  N         66.3490   97.9980   16.0740 N.am   10  LEU10      -0.1966
     20  CA        65.7070   98.0450   14.7770 C.3    10  LEU10       0.1728
     21  C         66.6450   98.6720   13.7580 C.2    10  LEU10       0.2616
     22  O         67.3360   99.6450   14.0500 O.2    10  LEU10      -0.2715
     23  CB        64.4390   98.8840   14.8660 C.3    10  LEU10       0.0311
     24  CG        63.5300   98.6200   16.0620 C.3    10  LEU10       0.0022
     25  CD1       62.2410   99.3970   15.8950 C.3    10  LEU10       0.0001
     26  CD2       63.2380   97.1460   16.2650 C.3    10  LEU10       0.0001
     27  N         66.6290   98.1310   12.5500 N.am   11  VAL11      -0.1977
     28  CA        67.4640   98.6500   11.4830 C.3    11  VAL11       0.1596
     29  C         66.5650   99.0620   10.3270 C.2    11  VAL11       0.2287
     30  O         65.6670   98.3070    9.9410 O.2    11  VAL11      -0.2864
     31  CB        68.4080   97.5600   11.0040 C.3    11  VAL11       0.0276
     32  CG1       69.2830   98.0800    9.8830 C.3    11  VAL11       0.0022
     33  CG2       69.2590   97.0400   12.1850 C.3    11  VAL11       0.0022
     34  N         72.3490  106.8150   14.6320 N.3    43  SER43      -0.1202
     35  CA        71.5650  106.0600   15.6100 C.3    43  SER43       0.2020
     36  C         70.6990  106.9010   16.5170 C.2    43  SER43       0.2619
     37  O         71.0780  107.9890   16.9000 O.2    43  SER43      -0.2717
     38  CB        72.4290  105.1250   16.4460 C.3    43  SER43       0.2103
     39  OG        73.6790  105.6600   16.6290 O.3    43  SER43      -0.2182
     40  N         69.5040  106.3800   16.8040 N.am   44  TYR44      -0.1961
     41  CA        68.4740  107.1150   17.4850 C.3    44  TYR44       0.1771
     42  C         67.8870  106.2450   18.5720 C.2    44  TYR44       0.2619
     43  O         68.0660  105.0250   18.5790 O.2    44  TYR44      -0.2715
     44  CB        67.3650  107.4870   16.5170 C.3    44  TYR44       0.0574
     45  CG        67.7980  108.3750   15.3920 C.ar   44  TYR44      -0.0198
     46  CD1       68.3920  107.8520   14.2720 C.ar   44  TYR44      -0.0009
     47  CD2       67.5540  109.7280   15.4340 C.ar   44  TYR44      -0.0009
     48  CE1       68.7620  108.6670   13.2120 C.ar   44  TYR44       0.0417
     49  CE2       67.9040  110.5610   14.3960 C.ar   44  TYR44       0.0417
     50  CZ        68.5000  110.0350   13.2730 C.ar   44  TYR44       0.1957
     51  OH        68.8700  110.8570   12.2330 O.3    44  TYR44      -0.2866
     52  N         67.1420  106.8540   19.4820 N.am   45  ARG45      -0.1977
     53  CA        66.4680  106.1080   20.4950 C.3    45  ARG45       0.1597
     54  C         65.1860  106.7680   20.9230 C.2    45  ARG45       0.2287
     55  O         65.1320  107.9680   21.0560 O.2    45  ARG45      -0.2864
     56  CB        67.4180  105.8860   21.6600 C.3    45  ARG45       0.0334
     57  CG        67.6390  106.9610   22.6400 C.3    45  ARG45       0.0492
     58  CD        68.4300  106.2840   23.7730 C.3    45  ARG45       0.2205
     59  NE        69.3880  107.2040   24.3670 N.pl3  45  ARG45      -0.0865
     60  CZ        70.5620  106.8460   24.8940 C.cat  45  ARG45       0.5346
     61  NH1       70.9560  105.5650   24.8940 N.pl3  45  ARG45       0.1354
     62  NH2       71.3500  107.7960   25.3960 N.pl3  45  ARG45       0.1354
     63  N         65.9720  101.1600   19.9180 N.3    58  ASP58      -0.1225
     64  CA        67.2810  101.5980   19.4490 C.3    58  ASP58       0.1805
     65  C         67.2600  101.4380   17.9530 C.2    58  ASP58       0.2598
     66  O         67.1390  100.3160   17.4550 O.2    58  ASP58      -0.2718
     67  CB        68.3990  100.7150   20.0040 C.3    58  ASP58       0.1424
     68  CG        68.6040  100.8550   21.4930 C.2    58  ASP58       0.3668
     69  OD1       68.2480  101.9360   22.0500 O.co2  58  ASP58      -0.2456
     70  OD2       69.1280   99.8560   22.0990 O.co2  58  ASP58      -0.2456
     71  N         67.3570  102.5500   17.2350 N.am   59  ILE59      -0.1966
     72  CA        67.1260  102.5310   15.8060 C.3    59  ILE59       0.1727
     73  C         68.3610  102.9170   15.0370 C.2    59  ILE59       0.2616
     74  O         68.9500  103.9920   15.2620 O.2    59  ILE59      -0.2715
     75  CB        66.0280  103.5320   15.4670 C.3    59  ILE59       0.0290
     76  CG1       64.7310  103.1260   16.1780 C.3    59  ILE59       0.0022
     77  CG2       65.8210  103.6410   13.9770 C.3    59  ILE59       0.0023
     78  CD1       63.6830  104.2280   16.1650 C.3    59  ILE59       0.0001
     79  N         68.7600  102.0600   14.1080 N.am   60  LEU60      -0.1977
     80  CA        69.8910  102.3810   13.2460 C.3    60  LEU60       0.1596
     81  C         69.4410  102.7320   11.8600 C.2    60  LEU60       0.2287
     82  O         68.8350  101.9120   11.1760 O.2    60  LEU60      -0.2864
     83  CB        70.8690  101.2130   13.1770 C.3    60  LEU60       0.0297
     84  CG        72.1890  101.6270   12.5880 C.3    60  LEU60       0.0022
     85  CD1       72.9430  102.5250   13.5490 C.3    60  LEU60       0.0001
     86  CD2       73.0000  100.3640   12.3970 C.3    60  LEU60       0.0001
     87  N         77.9560   93.6840   10.1920 N.3    74  GLN74      -0.1231
     88  CA        77.9490   93.6350   11.6490 C.3    74  GLN74       0.1698
     89  C         76.6160   94.1140   12.2420 C.2    74  GLN74       0.2592
     90  O         76.0630   93.4720   13.1350 O.2    74  GLN74      -0.2718
     91  CB        79.1000   94.4550   12.1990 C.3    74  GLN74       0.0381
     92  CG        79.2920   94.4620   13.6960 C.3    74  GLN74       0.0905
     93  CD        80.7280   94.9300   14.0650 C.2    74  GLN74       0.2608
     94  OE1       81.3230   95.8390   13.4350 O.2    74  GLN74      -0.2717
     95  NE2       81.2920   94.3060   15.0980 N.am   74  GLN74      -0.0878
     96  N         76.0870   95.2250   11.7600 N.am   75  TYR75      -0.1976
     97  CA        74.8100   95.7050   12.2920 C.3    75  TYR75       0.1639
     98  C         73.6230   94.8790   11.8130 C.2    75  TYR75       0.2290
     99  O         72.6090   94.7930   12.4690 O.2    75  TYR75      -0.2864
    100  CB        74.5960   97.2050   12.0480 C.3    75  TYR75       0.0560
    101  CG        74.3930   97.6310   10.6260 C.ar   75  TYR75      -0.0198
    102  CD1       73.2950   97.1460    9.8660 C.ar   75  TYR75      -0.0009
    103  CD2       75.2420   98.6120   10.0480 C.ar   75  TYR75      -0.0009
    104  CE1       73.1020   97.5740    8.5550 C.ar   75  TYR75       0.0417
    105  CE2       75.0140   99.0590    8.7560 C.ar   75  TYR75       0.0417
    106  CZ        73.9340   98.5760    8.0160 C.ar   75  TYR75       0.1957
    107  OH        73.8070   99.0030    6.7290 O.3    75  TYR75      -0.2866
    108  N         73.6500   92.2310   14.5730 N.3    78  THR78      -0.1203
    109  CA        73.1340   92.5760   15.8970 C.3    78  THR78       0.1994
    110  C         71.6410   92.9630   15.9160 C.2    78  THR78       0.2618
    111  O         70.9580   92.7310   16.9100 O.2    78  THR78      -0.2717
    112  CB        73.9630   93.6380   16.6740 C.3    78  THR78       0.1784
    113  OG1       73.4860   94.9370   16.3930 O.3    78  THR78      -0.2211
    114  CG2       75.4640   93.5740   16.3930 C.3    78  THR78       0.0376
    115  N         71.1430   93.5330   14.8310 N.am   79  GLY79      -0.1956
    116  CA        69.7610   94.0300   14.7740 C.3    79  GLY79       0.1869
    117  C         68.7180   92.9230   14.8230 C.2    79  GLY79       0.2309
    118  O         68.8760   91.8880   14.2070 O.2    79  GLY79      -0.2863
@<TRIPOS>BOND
     1   107   106    1
     2   106   104   ar
     3   106   105   ar
     4   104   102   ar
     5   105   103   ar
     6   102   101   ar
     7    32    31    1
     8    30    29    2
     9   103   101   ar
    10    87    88    1
    11    29    28    1
    12   101   100    1
    13    31    28    1
    14    31    33    1
    15    82    81    2
    16    28    27    1
    17    88    91    1
    18    88    89    1
    19    96    89   am
    20    96    97    1
    21    98    97    1
    22    98    99    2
    23    81    80    1
    24   100    97    1
    25    91    92    1
    26    51    50    1
    27    89    90    2
    28    86    84    1
    29    27    21   am
    30    84    83    1
    31    84    85    1
    32    83    80    1
    33    48    50   ar
    34    48    46   ar
    35    80    79    1
    36    50    49   ar
    37    94    93    2
    38    92    93    1
    39    21    22    2
    40    21    20    1
    41    77    75    1
    42    93    95   am
    43    79    73   am
    44   118   117    2
    45    46    45   ar
    46    49    47   ar
    47   108   109    1
    48    34    35    1
    49   116   117    1
    50   116   115    1
    51    20    23    1
    52    20    19    1
    53   115   110   am
    54    23    24    1
    55    73    74    2
    56    73    72    1
    57    45    47   ar
    58    45    44    1
    59    75    72    1
    60    75    76    1
    61    35    38    1
    62    35    36    1
    63    72    71    1
    64    25    24    1
    65   109   110    1
    66   109   112    1
    67   110   111    2
    68    24    26    1
    69    19    12   am
    70    13    12    2
    71    78    76    1
    72   113   112    1
    73   114   112    1
    74    38    39    1
    75    36    40   am
    76    36    37    2
    77    44    41    1
    78    12    11    1
    79    40    41    1
    80    71    65   am
    81    66    65    2
    82    41    42    1
    83    65    64    1
    84    11    14    1
    85    11    10    1
    86    14    15    1
    87    42    43    2
    88    42    52   am
    89    16    15    1
    90    16    17    1
    91    64    63    1
    92    64    67    1
    93    52    53    1
    94    67    68    1
    95    53    54    1
    96    53    56    1
    97    17    18    1
    98    54    55    2
    99    68    69   ar
   100    68    70   ar
   101    56    57    1
   102    57    58    1
   103     4     3    2
   104     3     2    1
   105    58    59    1
   106     6     5    1
   107     6     7    1
   108    59    60    2
   109     2     5    1
   110     2     1    1
   111     9     7   ar
   112    61    60    1
   113    60    62    1
   114     7     8   ar
