@<TRIPOS>MOLECULE
tmp/6gr0C02.pdb
 81 82 0 0 0
SMALL
GASTEIGER

@<TRIPOS>ATOM
      1  N         27.6660    8.3310   -7.9780 N.3    36  PRO36      -0.2103
      2  CA        26.7910    9.0390   -7.0450 C.3    36  PRO36       0.1489
      3  C         27.6010   10.0840   -6.2960 C.2    36  PRO36       0.2417
      4  O         28.7980    9.9100   -6.1120 O.2    36  PRO36      -0.2734
      5  CB        26.2920    7.9380   -6.1000 C.3    36  PRO36       0.0282
      6  CG        27.4250    6.9500   -6.0840 C.3    36  PRO36       0.0208
      7  CD        27.9500    6.9640   -7.5120 C.3    36  PRO36       0.0893
      8  N         26.9910   11.2050   -5.8730 N.am   37  PRO37      -0.2729
      9  CA        27.7340   12.2540   -5.1760 C.3    37  PRO37       0.1401
     10  C         28.0400   11.8940   -3.7180 C.2    37  PRO37       0.2269
     11  O         27.2880   11.1690   -3.0920 O.2    37  PRO37      -0.2865
     12  CB        26.8140   13.4780   -5.2580 C.3    37  PRO37       0.0296
     13  CG        25.4130   12.9030   -5.4090 C.3    37  PRO37       0.0237
     14  CD        25.5750   11.5410   -6.0630 C.3    37  PRO37       0.0939
     15  N         24.0450   11.6450    9.5490 N.3   130  LYS130     -0.1231
     16  CA        24.2030   11.4520    8.1070 C.3   130  LYS130      0.1693
     17  C         23.0870   10.5650    7.5550 C.2   130  LYS130      0.2592
     18  O         22.8700   10.5360    6.3500 O.2   130  LYS130     -0.2718
     19  CB        25.5520   10.7980    7.7850 C.3   130  LYS130      0.0285
     20  CG        26.7800   11.6160    8.1520 C.3   130  LYS130      0.0035
     21  CD        28.0730   10.8840    7.8280 C.3   130  LYS130      0.0206
     22  CE        29.2390   11.3720    8.6610 C.3   130  LYS130      0.1093
     23  NZ        30.3700   10.4090    8.6060 N.3   130  LYS130     -0.1314
     24  N         22.4270    9.7990    8.4250 N.am  131  GLU131     -0.1966
     25  CA        21.3120    8.9690    7.9840 C.3   131  GLU131      0.1733
     26  C         20.1200    9.2450    8.8960 C.2   131  GLU131      0.2616
     27  O         20.2810    9.3450   10.1020 O.2   131  GLU131     -0.2715
     28  CB        21.7000    7.4960    7.9870 C.3   131  GLU131      0.0429
     29  CG        23.0480    7.2610    7.3360 C.3   131  GLU131      0.1163
     30  CD        23.2310    5.8960    6.6960 C.2   131  GLU131      0.3649
     31  OE1       22.5680    4.9370    7.1230 O.co2 131  GLU131     -0.2457
     32  OE2       24.0130    5.8020    5.7450 O.co2 131  GLU131     -0.2457
     33  N         18.9540    9.4460    8.2740 N.am  132  LEU132     -0.1977
     34  CA        17.7320    9.7640    8.9490 C.3   132  LEU132      0.1596
     35  C         16.7360    8.6170    8.7650 C.2   132  LEU132      0.2287
     36  O         16.9570    7.7220    7.8980 O.2   132  LEU132     -0.2864
     37  CB        17.1840   11.0700    8.3660 C.3   132  LEU132      0.0297
     38  CG        18.0650   12.3020    8.5430 C.3   132  LEU132      0.0022
     39  CD1       17.4310   13.5170    7.8790 C.3   132  LEU132      0.0001
     40  CD2       18.3510   12.5970   10.0110 C.3   132  LEU132      0.0001
     41  N         12.7690   10.9060    5.2380 N.3   137  LYS137     -0.1245
     42  CA        13.1480   10.8610    3.8250 C.3   137  LYS137      0.1561
     43  C         11.8800   10.9080    2.9620 C.2   137  LYS137      0.2260
     44  O         11.8570   11.5920    1.9530 O.2   137  LYS137     -0.2867
     45  CB        14.0790    9.6730    3.5680 C.3   137  LYS137      0.0271
     46  CG        15.4810    9.8860    4.1510 C.3   137  LYS137      0.0035
     47  CD        16.5220    8.8340    3.8080 C.3   137  LYS137      0.0206
     48  CE        16.1270    7.4510    4.2820 C.3   137  LYS137      0.1093
     49  NZ        17.3160    6.5930    4.4840 N.3   137  LYS137     -0.1314
     50  N         20.0260   11.3230   -2.9120 N.3   156  PHE156     -0.1228
     51  CA        20.5130   11.0030   -1.5830 C.3   156  PHE156      0.1721
     52  C         22.0110   10.7380   -1.6660 C.2   156  PHE156      0.2437
     53  O         22.4210    9.6570   -2.0730 O.2   156  PHE156     -0.2733
     54  CB        19.7220    9.8250   -1.0130 C.3   156  PHE156      0.0547
     55  CG        18.2900   10.2050   -0.7600 C.ar  156  PHE156     -0.0202
     56  CD1       17.9440   10.9220    0.3740 C.ar  156  PHE156     -0.0042
     57  CD2       17.3060    9.9390   -1.7000 C.ar  156  PHE156     -0.0042
     58  CE1       16.6370   11.3340    0.5810 C.ar  156  PHE156     -0.0003
     59  CE2       16.0000   10.3480   -1.4870 C.ar  156  PHE156     -0.0003
     60  CZ        15.6720   11.0460   -0.3480 C.ar  156  PHE156     -0.0000
     61  N         22.8690   11.7260   -1.3350 N.am  157  PRO157     -0.2718
     62  CA        24.3180   11.5380   -1.4240 C.3   157  PRO157      0.1535
     63  C         24.8320   10.4100   -0.5040 C.2   157  PRO157      0.2598
     64  O         24.1610   10.0470    0.4800 O.2   157  PRO157     -0.2715
     65  CB        24.8880   12.8910   -0.9720 C.3   157  PRO157      0.0310
     66  CG        23.7470   13.8750   -1.0610 C.3   157  PRO157      0.0237
     67  CD        22.4840   13.0680   -0.8660 C.3   157  PRO157      0.0939
     68  N         26.0240    9.8860   -0.8130 N.am  158  VAL158     -0.1964
     69  CA        26.6160    8.7880   -0.0640 C.3   158  VAL158      0.1712
     70  C         27.3460    9.3430    1.1550 C.2   158  VAL158      0.2458
     71  O         28.2090   10.2070    1.0200 O.2   158  VAL158     -0.2730
     72  CB        27.5790    7.9630   -0.9350 C.3   158  VAL158      0.0289
     73  CG1       28.1380    6.7740   -0.1870 C.3   158  VAL158      0.0023
     74  CG2       26.9180    7.4960   -2.2190 C.3   158  VAL158      0.0023
     75  N         27.0230    8.8720    2.3800 N.am  159  PRO159     -0.2727
     76  CA        27.7960    9.2230    3.5710 C.3   159  PRO159      0.1402
     77  C         29.2820    8.8630    3.4040 C.2   159  PRO159      0.2269
     78  O         29.5900    7.7980    2.8720 O.2   159  PRO159     -0.2865
     79  CB        27.1500    8.3710    4.6740 C.3   159  PRO159      0.0296
     80  CG        25.7370    8.1870    4.1870 C.3   159  PRO159      0.0237
     81  CD        25.9030    7.9720    2.6970 C.3   159  PRO159      0.0939
@<TRIPOS>BOND
     1     1     7    1
     2     1     2    1
     3     7     6    1
     4     2     3    1
     5     2     5    1
     6     3     4    2
     7     3     8   am
     8     5     6    1
     9    14     8    1
    10    14    13    1
    11     8     9    1
    12    13    12    1
    13    12     9    1
    14     9    10    1
    15    10    11    2
    16    50    51    1
    17    74    72    1
    18    53    52    2
    19    57    59   ar
    20    57    55   ar
    21    52    51    1
    22    52    61   am
    23    51    54    1
    24    59    60   ar
    25    62    61    1
    26    62    65    1
    27    62    63    1
    28    61    67    1
    29    66    65    1
    30    66    67    1
    31    54    55    1
    32    72    73    1
    33    72    69    1
    34    68    63   am
    35    68    69    1
    36    55    56   ar
    37    63    64    2
    38    60    58   ar
    39    69    70    1
    40    56    58   ar
    41    71    70    2
    42    70    75   am
    43    44    43    2
    44    75    81    1
    45    75    76    1
    46    81    80    1
    47    78    77    2
    48    43    42    1
    49    77    76    1
    50    45    42    1
    51    45    46    1
    52    76    79    1
    53    47    46    1
    54    47    48    1
    55    42    41    1
    56    80    79    1
    57    48    49    1
    58    32    30   ar
    59    18    17    2
    60    30    31   ar
    61    30    29    1
    62    29    28    1
    63    17    16    1
    64    17    24   am
    65    19    16    1
    66    19    20    1
    67    21    20    1
    68    21    22    1
    69    39    38    1
    70    36    35    2
    71    25    28    1
    72    25    24    1
    73    25    26    1
    74    16    15    1
    75    33    26   am
    76    33    34    1
    77    37    38    1
    78    37    34    1
    79    38    40    1
    80    23    22    1
    81    35    34    1
    82    26    27    2
