@<TRIPOS>MOLECULE
tmp/6gr7B00.pdb
 69 63 0 0 0
SMALL
GASTEIGER

@<TRIPOS>ATOM
      1  N         45.2040    7.4290   29.2220 N.3     6  LYS6       -0.1245
      2  CA        46.0130    6.2170   29.2830 C.3     6  LYS6        0.1561
      3  C         46.6490    6.0110   27.9200 C.2     6  LYS6        0.2260
      4  O         45.9670    6.1550   26.8970 O.2     6  LYS6       -0.2867
      5  CB        45.1690    5.0010   29.6490 C.3     6  LYS6        0.0271
      6  CG        46.0000    3.7320   29.8000 C.3     6  LYS6        0.0035
      7  CD        45.1540    2.5720   30.2780 C.3     6  LYS6        0.0206
      8  CE        45.9890    1.3140   30.4840 C.3     6  LYS6        0.1093
      9  NZ        46.9840    1.4620   31.5820 N.3     6  LYS6       -0.1314
     10  N         49.3440    3.4400   25.6390 N.3     8  LEU8       -0.1245
     11  CA        49.9900    2.1420   25.4980 C.3     8  LEU8        0.1561
     12  C         50.8810    2.1270   24.2620 C.2     8  LEU8        0.2260
     13  O         50.6450    2.8570   23.2860 O.2     8  LEU8       -0.2867
     14  CB        48.9520    1.0300   25.3470 C.3     8  LEU8        0.0270
     15  CG        48.0110    0.7870   26.5340 C.3     8  LEU8        0.0019
     16  CD1       47.0610   -0.3570   26.2480 C.3     8  LEU8        0.0001
     17  CD2       48.7860    0.4870   27.7940 C.3     8  LEU8        0.0001
     18  N         37.6180    8.6770   30.1510 N.3    97  THR97      -0.1218
     19  CA        38.9460    8.1310   29.9420 C.3    97  THR97       0.1862
     20  C         39.2480    8.2020   28.4530 C.2    97  THR97       0.2287
     21  O         38.4770    7.6870   27.6340 O.2    97  THR97      -0.2866
     22  CB        39.0550    6.6930   30.4310 C.3    97  THR97       0.1770
     23  OG1       38.8390    6.6710   31.8450 O.3    97  THR97      -0.2211
     24  CG2       40.4420    6.1150   30.1580 C.3    97  THR97       0.0375
     25  N         41.9210    6.8900   25.9110 N.3    99  ALA99      -0.1231
     26  CA        43.0040    5.9430   25.7530 C.3    99  ALA99       0.1694
     27  C         43.5810    6.0190   24.3480 C.2    99  ALA99       0.2592
     28  O         42.8660    6.2810   23.3760 O.2    99  ALA99      -0.2718
     29  CB        42.5130    4.5270   26.0560 C.3    99  ALA99       0.0304
     30  N         44.8850    5.8100   24.2520 N.am  100  ALA100     -0.1966
     31  CA        45.5880    5.8300   22.9730 C.3   100  ALA100      0.1728
     32  C         46.5690    4.6730   22.9080 C.2   100  ALA100      0.2616
     33  O         47.3080    4.4200   23.8760 O.2   100  ALA100     -0.2715
     34  CB        46.3120    7.1530   22.7350 C.3   100  ALA100      0.0334
     35  N         46.5800    3.9830   21.7790 N.am  101  LEU101     -0.1977
     36  CA        47.4920    2.8870   21.4980 C.3   101  LEU101      0.1596
     37  C         48.4220    3.3300   20.3850 C.2   101  LEU101      0.2287
     38  O         47.9570    3.6560   19.2850 O.2   101  LEU101     -0.2864
     39  CB        46.6660    1.6780   21.0710 C.3   101  LEU101      0.0297
     40  CG        47.5060    0.4790   20.6260 C.3   101  LEU101      0.0022
     41  CD1       48.3390   -0.0740   21.7660 C.3   101  LEU101      0.0001
     42  CD2       46.5590   -0.5760   20.0630 C.3   101  LEU101      0.0001
     43  N         45.5810    4.4060   17.5610 N.3   108  SER108     -0.1202
     44  CA        44.1630    4.2150   17.7840 C.3   108  SER108      0.2020
     45  C         43.8160    4.9470   19.0650 C.2   108  SER108      0.2619
     46  O         44.6440    5.0530   19.9720 O.2   108  SER108     -0.2717
     47  CB        43.8140    2.7490   17.9280 C.3   108  SER108      0.2103
     48  OG        44.1550    2.0110   16.7550 O.3   108  SER108     -0.2182
     49  N         42.6120    5.4950   19.1240 N.am  109  THR109     -0.1938
     50  CA        42.1660    6.1600   20.3300 C.3   109  THR109      0.2028
     51  C         40.7090    5.8360   20.5670 C.2   109  THR109      0.2642
     52  O         39.9350    5.6740   19.6210 O.2   109  THR109     -0.2714
     53  CB        42.4320    7.6640   20.2360 C.3   109  THR109      0.1808
     54  OG1       42.1820    8.2720   21.4990 O.3   109  THR109     -0.2208
     55  CG2       41.6130    8.3440   19.1840 C.3   109  THR109      0.0379
     56  N         40.3410    5.6980   21.8310 N.am  110  THR110     -0.1950
     57  CA        38.9500    5.4560   22.1590 C.3   110  THR110      0.1897
     58  C         38.6400    6.2600   23.4060 C.2   110  THR110      0.2313
     59  O         39.5330    6.7580   24.1020 O.2   110  THR110     -0.2863
     60  CB        38.5990    3.9580   22.3050 C.3   110  THR110      0.1794
     61  OG1       37.1620    3.7980   22.3380 O.3   110  THR110     -0.2208
     62  CG2       39.2100    3.3990   23.5350 C.3   110  THR110      0.0378
     63  N         36.1710    6.1130   26.8840 N.3   112  VAL112     -0.1245
     64  CA        35.3240    5.3480   27.7750 C.3   112  VAL112      0.1561
     65  C         34.6820    6.3730   28.6900 C.2   112  VAL112      0.2260
     66  O         35.3890    7.0770   29.4270 O.2   112  VAL112     -0.2867
     67  CB        36.1420    4.3310   28.5780 C.3   112  VAL112      0.0252
     68  CG1       35.2130    3.4560   29.4140 C.3   112  VAL112      0.0019
     69  CG2       37.0080    3.4670   27.6380 C.3   112  VAL112      0.0019
@<TRIPOS>BOND
     1    48    47    1
     2    43    44    1
     3    44    47    1
     4    44    45    1
     5    45    49   am
     6    45    46    2
     7    49    50    1
     8    55    53    1
     9    38    37    2
    10    52    51    2
    11    42    40    1
    12    53    50    1
    13    53    54    1
    14    50    51    1
    15    37    36    1
    16    51    56   am
    17    40    39    1
    18    40    41    1
    19    39    36    1
    20    36    35    1
    21    35    32   am
    22    56    57    1
    23    57    60    1
    24    57    58    1
    25    60    61    1
    26    60    62    1
    27    34    31    1
    28    32    31    1
    29    32    33    2
    30    31    30    1
    31    13    12    2
    32    28    27    2
    33    58    59    2
    34    30    27   am
    35    12    11    1
    36    27    26    1
    37    14    11    1
    38    14    15    1
    39    11    10    1
    40    26    25    1
    41    26    29    1
    42    16    15    1
    43    15    17    1
    44    63    64    1
    45     4     3    2
    46    21    20    2
    47    69    67    1
    48    64    67    1
    49    64    65    1
    50     3     2    1
    51    20    19    1
    52    67    68    1
    53    65    66    2
    54     1     2    1
    55     2     5    1
    56     5     6    1
    57     6     7    1
    58    19    18    1
    59    19    22    1
    60    24    22    1
    61     7     8    1
    62    22    23    1
    63     8     9    1
