@<TRIPOS>MOLECULE
tmp/6greA02.pdb
 83 79 0 0 0
SMALL
GASTEIGER

@<TRIPOS>ATOM
      1  N         18.3000   43.4460   15.6570 N.3     4  TYR4       -0.1227
      2  CA        17.5030   44.6060   15.9470 C.3     4  TYR4        0.1736
      3  C         17.0060   44.5010   17.3840 C.2     4  TYR4        0.2595
      4  O         16.9780   43.4170   17.9680 O.2     4  TYR4       -0.2718
      5  CB        16.3300   44.7900   14.9790 C.3     4  TYR4        0.0548
      6  CG        15.2960   43.6960   14.9940 C.ar    4  TYR4       -0.0200
      7  CD1       14.3610   43.6310   16.0080 C.ar    4  TYR4       -0.0009
      8  CD2       15.2830   42.7190   14.0300 C.ar    4  TYR4       -0.0009
      9  CE1       13.3980   42.6370   16.0450 C.ar    4  TYR4        0.0417
     10  CE2       14.2980   41.7440   14.0190 C.ar    4  TYR4        0.0417
     11  CZ        13.3610   41.7000   15.0280 C.ar    4  TYR4        0.1957
     12  OH        12.4060   40.7140   15.0480 O.3     4  TYR4       -0.2866
     13  N         16.7040   45.6700   17.9350 N.am    5  ALA5       -0.1966
     14  CA        16.0570   45.8240   19.2160 C.3     5  ALA5        0.1728
     15  C         14.8460   46.7450   19.0310 C.2     5  ALA5        0.2616
     16  O         14.9230   47.8120   18.4010 O.2     5  ALA5       -0.2715
     17  CB        17.0340   46.3730   20.2270 C.3     5  ALA5        0.0334
     18  N         13.6980   46.3500   19.5650 N.am    6  VAL6       -0.1977
     19  CA        12.5510   47.2030   19.6140 C.3     6  VAL6        0.1596
     20  C         12.2230   47.4560   21.0860 C.2     6  VAL6        0.2287
     21  O         12.0020   46.4880   21.8270 O.2     6  VAL6       -0.2864
     22  CB        11.3390   46.5750   18.9180 C.3     6  VAL6        0.0276
     23  CG1       10.1680   47.5490   18.8890 C.3     6  VAL6        0.0022
     24  CG2       11.7020   46.0730   17.5360 C.3     6  VAL6        0.0022
     25  N         12.2230   43.7990   22.6920 N.3    91  PHE91      -0.1241
     26  CA        12.3580   42.6870   21.7810 C.3    91  PHE91       0.1605
     27  C         13.7350   42.7650   21.1460 C.2    91  PHE91       0.2264
     28  O         14.0360   43.7490   20.4690 O.2    91  PHE91      -0.2867
     29  CB        11.3360   42.6960   20.6430 C.3    91  PHE91       0.0534
     30  CG        11.5130   41.5120   19.7250 C.ar   91  PHE91      -0.0203
     31  CD1       12.5780   41.4320   18.8490 C.ar   91  PHE91      -0.0042
     32  CD2       10.6670   40.4300   19.8110 C.ar   91  PHE91      -0.0042
     33  CE1       12.7370   40.3230   18.0380 C.ar   91  PHE91      -0.0003
     34  CE2       10.8350   39.3170   19.0100 C.ar   91  PHE91      -0.0003
     35  CZ        11.8640   39.2730   18.1120 C.ar   91  PHE91      -0.0000
     36  N         11.7750   38.4520   24.1490 N.3   100  ARG100     -0.1245
     37  CA        10.7140   39.4050   23.9710 C.3   100  ARG100      0.1563
     38  C          9.9060   39.4760   25.2640 C.2   100  ARG100      0.2260
     39  O          9.5580   38.4390   25.8250 O.2   100  ARG100     -0.2867
     40  CB         9.8320   39.0010   22.7850 C.3   100  ARG100      0.0307
     41  CG         8.8010   40.0290   22.3550 C.3   100  ARG100      0.0489
     42  CD         8.0830   39.4830   21.1280 C.3   100  ARG100      0.2205
     43  NE         7.1310   40.4270   20.5650 N.pl3 100  ARG100     -0.0865
     44  CZ         6.7350   40.4190   19.3040 C.cat 100  ARG100      0.5346
     45  NH1        7.0680   39.4030   18.5300 N.pl3 100  ARG100      0.1354
     46  NH2        6.0260   41.4320   18.8260 N.pl3 100  ARG100      0.1354
     47  N          1.1570   38.9300   14.1190 N.3   111  ASP111     -0.1239
     48  CA         1.6570   40.2520   13.7800 C.3   111  ASP111      0.1674
     49  C          2.6690   40.0810   12.6630 C.2   111  ASP111      0.2266
     50  O          3.7590   39.5550   12.8850 O.2   111  ASP111     -0.2867
     51  CB         2.2780   40.9280   14.9930 C.3   111  ASP111      0.1410
     52  CG         2.6290   42.3700   14.7620 C.2   111  ASP111      0.3668
     53  OD1        2.6260   42.8100   13.5970 O.co2 111  ASP111     -0.2456
     54  OD2        2.9180   43.0280   15.7780 O.co2 111  ASP111     -0.2456
     55  N          3.6410   42.6050   10.7240 N.3   113  THR113     -0.1203
     56  CA         4.2210   43.9080   10.3740 C.3   113  THR113      0.1994
     57  C          5.7310   43.7640   10.1560 C.2   113  THR113      0.2618
     58  O          6.4300   43.0390   10.8720 O.2   113  THR113     -0.2717
     59  CB         3.9290   45.0030   11.4040 C.3   113  THR113      0.1784
     60  OG1        4.4660   44.6840   12.6660 O.3   113  THR113     -0.2211
     61  CG2        2.4520   45.2540   11.5820 C.3   113  THR113      0.0376
     62  N          6.2340   44.5310    9.1780 N.am  114  LEU114     -0.1965
     63  CA         7.6420   44.5380    8.8870 C.3   114  LEU114      0.1728
     64  C          8.4370   45.2540    9.9740 C.2   114  LEU114      0.2616
     65  O          8.0560   46.3510   10.4280 O.2   114  LEU114     -0.2715
     66  CB         7.8710   45.2430    7.5560 C.3   114  LEU114      0.0311
     67  CG         9.3480   45.3510    7.1940 C.3   114  LEU114      0.0022
     68  CD1        9.8770   43.9850    6.7770 C.3   114  LEU114      0.0001
     69  CD2        9.5570   46.3690    6.0940 C.3   114  LEU114      0.0001
     70  N          9.5340   44.6210   10.4140 N.am  115  ILE115     -0.1977
     71  CA        10.5360   45.2680   11.1960 C.3   115  ILE115      0.1596
     72  C         11.7170   45.6410   10.3050 C.2   115  ILE115      0.2287
     73  O         12.0660   46.8140   10.2020 O.2   115  ILE115     -0.2864
     74  CB        10.9520   44.4380   12.4100 C.3   115  ILE115      0.0276
     75  CG1        9.7400   44.1950   13.3100 C.3   115  ILE115      0.0022
     76  CG2       12.1070   45.1070   13.1380 C.3   115  ILE115      0.0022
     77  CD1        9.9930   43.2910   14.4710 C.3   115  ILE115      0.0001
     78  N          7.2190   40.9810   12.6480 N.3   195  SER195     -0.1217
     79  CA         7.1150   40.9650   14.0680 C.3   195  SER195      0.1889
     80  C          7.1560   39.5430   14.6600 C.2   195  SER195      0.2288
     81  O          7.8150   39.2990   15.6620 O.2   195  SER195     -0.2866
     82  CB         5.8700   41.6940   14.4920 C.3   195  SER195      0.2089
     83  OG         5.7860   41.7210   15.9000 O.3   195  SER195     -0.2183
@<TRIPOS>BOND
     1    69    67    1
     2    68    67    1
     3    67    66    1
     4    66    63    1
     5    63    62    1
     6    63    64    1
     7    62    57   am
     8    64    70   am
     9    64    65    2
    10    57    56    1
    11    57    58    2
    12    73    72    2
    13    72    71    1
    14    56    55    1
    15    56    59    1
    16    70    71    1
    17    71    74    1
    18    59    61    1
    19    59    60    1
    20    74    76    1
    21    74    75    1
    22    78    79    1
    23    49    50    2
    24    49    48    1
    25    75    77    1
    26    53    52   ar
    27    48    47    1
    28    48    51    1
    29    10     8   ar
    30    10    11   ar
    31     8     6   ar
    32    79    82    1
    33    79    80    1
    34    82    83    1
    35    80    81    2
    36    52    51    1
    37    52    54   ar
    38     5     6    1
    39     5     2    1
    40     6     7   ar
    41    11    12    1
    42    11     9   ar
    43     1     2    1
    44     2     3    1
    45     7     9   ar
    46     3    13   am
    47     3     4    2
    48    24    22    1
    49    13    14    1
    50    33    35   ar
    51    33    31   ar
    52    35    34   ar
    53    16    15    2
    54    45    44    1
    55    46    44    1
    56    31    30   ar
    57    23    22    1
    58    22    19    1
    59    34    32   ar
    60    15    14    1
    61    15    18   am
    62    14    17    1
    63    44    43    2
    64    18    19    1
    65    19    20    1
    66    30    32   ar
    67    30    29    1
    68    28    27    2
    69    43    42    1
    70    29    26    1
    71    20    21    2
    72    42    41    1
    73    27    26    1
    74    26    25    1
    75    41    40    1
    76    40    37    1
    77    37    36    1
    78    37    38    1
    79    38    39    2
