@<TRIPOS>MOLECULE
tmp/6grgE00.pdb
 192 180 0 0 0
SMALL
GASTEIGER

@<TRIPOS>ATOM
      1  N        207.9470   25.1940   25.0690 N.3    42  SER42      -0.1202
      2  CA       206.6890   25.7960   24.7460 C.3    42  SER42       0.2020
      3  C        206.2700   25.4410   23.3140 C.2    42  SER42       0.2619
      4  O        207.0800   24.9640   22.4810 O.2    42  SER42      -0.2717
      5  CB       206.7460   27.2950   24.9340 C.3    42  SER42       0.2103
      6  OG       207.2180   27.9320   23.7460 O.3    42  SER42      -0.2182
      7  N        204.9870   25.7020   23.0280 N.am   43  ALA43      -0.1965
      8  CA       204.4320   25.5200   21.7000 C.3    43  ALA43       0.1728
      9  C        203.2380   26.4590   21.5690 C.2    43  ALA43       0.2616
     10  O        202.7590   26.9820   22.5710 O.2    43  ALA43      -0.2715
     11  CB       204.0850   24.0640   21.4680 C.3    43  ALA43       0.0334
     12  N        202.8030   26.7000   20.3320 N.am   44  ALA44      -0.1977
     13  CA       201.7020   27.6100   20.1010 C.3    44  ALA44       0.1597
     14  C        200.9080   27.1830   18.8610 C.2    44  ALA44       0.2287
     15  O        201.4690   26.5410   17.9670 O.2    44  ALA44      -0.2864
     16  CB       202.2490   29.0180   19.9830 C.3    44  ALA44       0.0319
     17  N        197.0870   21.2220   19.9130 N.3    49  LYS49      -0.1245
     18  CA       198.3810   21.2420   19.2020 C.3    49  LYS49       0.1561
     19  C        199.4180   21.9000   20.1210 C.2    49  LYS49       0.2260
     20  O        200.4650   21.3600   20.3290 O.2    49  LYS49      -0.2867
     21  CB       198.2960   21.9850   17.8560 C.3    49  LYS49       0.0271
     22  CG       197.6160   21.1470   16.8120 C.3    49  LYS49       0.0035
     23  CD       197.2320   21.9610   15.6090 C.3    49  LYS49       0.0206
     24  CE       196.4300   21.1030   14.6400 C.3    49  LYS49       0.1093
     25  NZ       195.3260   20.3630   15.3320 N.3    49  LYS49      -0.1314
     26  N        200.2100   19.5760   23.0150 N.3    52  GLN52      -0.1231
     27  CA       200.9740   18.4140   22.5270 C.3    52  GLN52       0.1698
     28  C        202.4240   18.8470   22.2430 C.2    52  GLN52       0.2592
     29  O        203.3820   18.1100   22.5700 O.2    52  GLN52      -0.2718
     30  CB       200.2900   17.8240   21.2920 C.3    52  GLN52       0.0381
     31  CG       199.0080   17.0680   21.6030 C.3    52  GLN52       0.0905
     32  CD       198.2900   16.6110   20.3470 C.2    52  GLN52       0.2608
     33  OE1      198.2670   17.3250   19.3540 O.2    52  GLN52      -0.2717
     34  NE2      197.6640   15.4320   20.3710 N.am   52  GLN52      -0.0878
     35  N        202.5550   20.0440   21.6520 N.am   53  GLY53      -0.1957
     36  CA       203.8140   20.6480   21.2200 C.3    53  GLY53       0.1869
     37  C        204.7250   21.0030   22.3790 C.2    53  GLY53       0.2309
     38  O        205.9090   20.7580   22.3100 O.2    53  GLY53      -0.2863
     39  N        204.4640   19.6430   25.4820 N.3    55  ILE55      -0.1231
     40  CA       204.8250   18.3300   26.0680 C.3    55  ILE55       0.1692
     41  C        205.9530   17.7230   25.2260 C.2    55  ILE55       0.2593
     42  O        206.9770   17.3420   25.7860 O.2    55  ILE55      -0.2718
     43  CB       203.6340   17.3570   26.2090 C.3    55  ILE55       0.0266
     44  CG1      202.5740   17.9060   27.1770 C.3    55  ILE55       0.0019
     45  CG2      204.1020   15.9620   26.6540 C.3    55  ILE55       0.0020
     46  CD1      201.2920   17.1310   27.1580 C.3    55  ILE55       0.0001
     47  N        205.7480   17.6700   23.9000 N.am   56  GLY56      -0.1942
     48  CA       206.6930   17.1470   22.9450 C.3    56  GLY56       0.2014
     49  C        208.0350   17.8640   22.9910 C.2    56  GLY56       0.2638
     50  O        209.0850   17.2360   22.9880 O.2    56  GLY56      -0.2714
     51  N        208.0210   19.1940   23.0550 N.am   57  GLU57      -0.1977
     52  CA       209.2670   19.9090   23.0440 C.3    57  GLU57       0.1602
     53  C        209.9720   19.6220   24.3660 C.2    57  GLU57       0.2287
     54  O        211.1890   19.4720   24.3860 O.2    57  GLU57      -0.2864
     55  CB       209.0590   21.4070   22.8250 C.3    57  GLU57       0.0415
     56  CG       210.3550   22.1270   22.4990 C.3    57  GLU57       0.1163
     57  CD       210.1720   23.5680   22.0630 C.2    57  GLU57       0.3649
     58  OE1      210.0630   23.8290   20.8270 O.co2  57  GLU57      -0.2457
     59  OE2      210.1320   24.4170   22.9620 O.co2  57  GLU57      -0.2457
     60  N        211.6370   16.1750   24.0890 N.3    60  GLU60      -0.1231
     61  CA       212.7100   16.3870   23.1380 C.3    60  GLU60       0.1699
     62  C        213.9460   16.9730   23.8270 C.2    60  GLU60       0.2592
     63  O        215.0200   16.3850   23.7920 O.2    60  GLU60      -0.2718
     64  CB       212.2330   17.3530   22.0480 C.3    60  GLU60       0.0402
     65  CG       213.1730   17.5190   20.8800 C.3    60  GLU60       0.1161
     66  CD       212.8840   18.7870   20.1020 C.2    60  GLU60       0.3649
     67  OE1      211.6950   19.0230   19.7680 O.co2  60  GLU60      -0.2457
     68  OE2      213.8500   19.5290   19.8190 O.co2  60  GLU60      -0.2457
     69  N        213.7750   18.1470   24.4320 N.am   61  ARG61      -0.1980
     70  CA       214.8970   18.9470   24.9160 C.3    61  ARG61       0.1597
     71  C        215.5430   18.2550   26.1230 C.2    61  ARG61       0.2287
     72  O        216.7700   18.2720   26.2580 O.2    61  ARG61      -0.2864
     73  CB       214.4210   20.3730   25.2210 C.3    61  ARG61       0.0334
     74  CG       213.8990   21.1040   23.9900 C.3    61  ARG61       0.0492
     75  CD       215.0020   21.5270   23.0220 C.3    61  ARG61       0.2205
     76  NE       214.5350   21.7220   21.6430 N.pl3  61  ARG61      -0.0865
     77  CZ       214.1090   22.8810   21.1380 C.cat  61  ARG61       0.5346
     78  NH1      214.1620   23.9630   21.8940 N.pl3  61  ARG61       0.1354
     79  NH2      213.6260   22.9500   19.8990 N.pl3  61  ARG61       0.1354
     80  N        216.3970   18.0140   15.7700 N.3   151  CYS151     -0.1221
     81  CA       215.9010   17.2660   16.9170 C.3   151  CYS151      0.1808
     82  C        214.3720   17.2470   16.8970 C.2   151  CYS151      0.2602
     83  O        213.7200   18.2360   16.5070 O.2   151  CYS151     -0.2717
     84  CB       216.3450   17.8870   18.2300 C.3   151  CYS151      0.0970
     85  SG       218.1070   17.6770   18.5950 S.3   151  CYS151     -0.0800
     86  N        213.8000   16.1280   17.3550 N.am  152  SER152     -0.1938
     87  CA       212.3690   15.9730   17.2970 C.3   152  SER152      0.2055
     88  C        211.8960   14.8280   18.2190 C.2   152  SER152      0.2643
     89  O        212.6400   13.8750   18.4810 O.2   152  SER152     -0.2714
     90  CB       211.9820   15.8420   15.8410 C.3   152  SER152      0.2130
     91  OG       210.9040   14.9700   15.6730 O.3   152  SER152     -0.2179
     92  N        210.6690   14.9720   18.7550 N.am  153  PHE153     -0.1959
     93  CA       209.9950   13.9610   19.6140 C.3   153  PHE153      0.1771
     94  C        208.6020   13.6720   19.0540 C.2   153  PHE153      0.2620
     95  O        207.9320   14.5760   18.6120 O.2   153  PHE153     -0.2715
     96  CB       209.8730   14.4540   21.0620 C.3   153  PHE153      0.0574
     97  CG       209.0230   13.6090   21.9920 C.ar  153  PHE153     -0.0200
     98  CD1      209.5810   12.5610   22.7210 C.ar  153  PHE153     -0.0042
     99  CD2      207.6720   13.8720   22.1660 C.ar  153  PHE153     -0.0042
    100  CE1      208.8090   11.7930   23.5850 C.ar  153  PHE153     -0.0003
    101  CE2      206.9010   13.0990   23.0250 C.ar  153  PHE153     -0.0003
    102  CZ       207.4650   12.0620   23.7320 C.ar  153  PHE153     -0.0000
    103  N        208.1850   12.4020   19.0780 N.am  154  HIS154     -0.1959
    104  CA       206.7940   12.0420   18.7560 C.3   154  HIS154      0.1787
    105  C        206.4970   10.6250   19.2670 C.2   154  HIS154      0.2620
    106  O        207.4180    9.9200   19.6900 O.2   154  HIS154     -0.2715
    107  CB       206.5460   12.1880   17.2450 C.3   154  HIS154      0.0785
    108  CG       205.2600   12.8690   16.9110 C.ar  154  HIS154      0.0821
    109  ND1      204.0200   12.2280   17.0320 N.ar  154  HIS154     -0.2267
    110  CD2      205.0090   14.1220   16.4620 C.ar  154  HIS154      0.1154
    111  CE1      203.0710   13.0650   16.6720 C.ar  154  HIS154      0.1986
    112  NE2      203.6460   14.2400   16.3340 N.ar  154  HIS154     -0.2212
    113  N        205.2120   10.2240   19.2080 N.am  155  GLY155     -0.1954
    114  CA       204.7130    8.9100   19.6580 C.3   155  GLY155      0.1869
    115  C        204.6580    7.8710   18.5530 C.2   155  GLY155      0.2309
    116  O        204.4030    6.6980   18.8120 O.2   155  GLY155     -0.2863
    117  N        206.3320   10.0420   12.5470 N.3   159  ASP159     -0.1239
    118  CA       206.1510   11.4260   12.8860 C.3   159  ASP159      0.1674
    119  C        207.4630   12.0200   13.4000 C.2   159  ASP159      0.2266
    120  O        207.8080   13.1510   13.0480 O.2   159  ASP159     -0.2867
    121  CB       205.0050   11.5890   13.8730 C.3   159  ASP159      0.1410
    122  CG       203.6750   11.2710   13.2230 C.2   159  ASP159      0.3668
    123  OD1      203.3270   11.9530   12.2540 O.co2 159  ASP159     -0.2456
    124  OD2      203.0290   10.3210   13.6620 O.co2 159  ASP159     -0.2456
    125  N        209.3020   15.0140   11.4870 N.3   163  GLY163     -0.1225
    126  CA       209.5870   16.2250   12.2710 C.3   163  GLY163      0.1811
    127  C        211.0560   16.6300   12.1920 C.2   163  GLY163      0.2280
    128  O        211.3770   17.7890   11.9230 O.2   163  GLY163     -0.2866
    129  N        212.5970   19.9760   10.0170 N.3   167  GLU167     -0.1245
    130  CA       213.4500   20.9580   10.7270 C.3   167  GLU167      0.1567
    131  C        214.8530   21.0250   10.0800 C.2   167  GLU167      0.2260
    132  O        215.3830   22.1030    9.8130 O.2   167  GLU167     -0.2867
    133  CB       213.5180   20.6170   12.2150 C.3   167  GLU167      0.0388
    134  CG       214.1640   21.7130   13.0320 C.3   167  GLU167      0.1160
    135  CD       214.0170   21.5660   14.5370 C.2   167  GLU167      0.3649
    136  OE1      212.9250   21.8900   15.0630 O.co2 167  GLU167     -0.2457
    137  OE2      214.9960   21.1160   15.1820 O.co2 167  GLU167     -0.2457
    138  N        214.6020   23.0460    7.0620 N.3   170  GLU170     -0.1231
    139  CA       214.2860   24.4460    7.2750 C.3   170  GLU170      0.1699
    140  C        215.5790   25.1520    7.7050 C.2   170  GLU170      0.2592
    141  O        215.8330   26.2870    7.2960 O.2   170  GLU170     -0.2718
    142  CB       213.0900   24.6040    8.2330 C.3   170  GLU170      0.0402
    143  CG       213.4830   24.7580    9.6820 C.3   170  GLU170      0.1161
    144  CD       212.3970   24.6950   10.7360 C.2   170  GLU170      0.3649
    145  OE1      212.6450   25.2570   11.8150 O.co2 170  GLU170     -0.2457
    146  OE2      211.3200   24.0850   10.4870 O.co2 170  GLU170     -0.2457
    147  N        216.3960   24.4600    8.5080 N.am  171  ARG171     -0.1980
    148  CA       217.5910   25.0470    9.0570 C.3   171  ARG171      0.1597
    149  C        218.7030   25.0300    7.9990 C.2   171  ARG171      0.2287
    150  O        219.5230   25.9830    7.9350 O.2   171  ARG171     -0.2864
    151  CB       217.9260   24.3670   10.3830 C.3   171  ARG171      0.0334
    152  CG       216.8180   24.4820   11.4240 C.3   171  ARG171      0.0492
    153  CD       216.5590   25.9200   11.8620 C.3   171  ARG171      0.2205
    154  NE       215.5100   26.0200   12.8630 N.pl3 171  ARG171     -0.0865
    155  CZ       215.5870   25.4780   14.0710 C.cat 171  ARG171      0.5346
    156  NH1      216.7500   25.0110   14.5110 N.pl3 171  ARG171      0.1354
    157  NH2      214.4900   25.3610   14.8060 N.pl3 171  ARG171      0.1354
    158  N        209.9100   30.3820   11.3160 N.3   245  LEU245     -0.1245
    159  CA       210.3390   29.5200   10.2300 C.3   245  LEU245      0.1561
    160  C        209.7430   28.1230   10.3990 C.2   245  LEU245      0.2260
    161  O        209.7050   27.5630   11.4910 O.2   245  LEU245     -0.2867
    162  CB       211.8720   29.4760   10.2130 C.3   245  LEU245      0.0270
    163  CG       212.5350   28.4590    9.2670 C.3   245  LEU245      0.0019
    164  CD1      212.2120   28.7250    7.8020 C.3   245  LEU245      0.0001
    165  CD2      214.0440   28.4700    9.4660 C.3   245  LEU245      0.0001
    166  N        202.6380   27.6980   10.4100 N.3   257  LYS257     -0.1245
    167  CA       203.5570   27.3880   11.4970 C.3   257  LYS257      0.1561
    168  C        204.6250   28.5020   11.6200 C.2   257  LYS257      0.2260
    169  O        204.9970   28.9480   12.7400 O.2   257  LYS257     -0.2867
    170  CB       204.1780   26.0040   11.2690 C.3   257  LYS257      0.0271
    171  CG       205.2380   25.5790   12.2820 C.3   257  LYS257      0.0035
    172  CD       204.7120   25.4440   13.6980 C.3   257  LYS257      0.0206
    173  CE       205.7660   24.9650   14.6860 C.3   257  LYS257      0.1093
    174  NZ       206.7240   26.0360   15.0670 N.3   257  LYS257     -0.1314
    175  N        205.1220   30.6500   14.9770 N.3   261  GLU261     -0.1245
    176  CA       206.4130   30.6230   15.6310 C.3   261  GLU261      0.1567
    177  C        206.9350   32.0700   15.7770 C.2   261  GLU261      0.2260
    178  O        207.5020   32.4070   16.7980 O.2   261  GLU261     -0.2867
    179  CB       207.3720   29.6830   14.8840 C.3   261  GLU261      0.0388
    180  CG       208.6440   29.3720   15.6650 C.3   261  GLU261      0.1160
    181  CD       209.5800   28.3300   15.0560 C.2   261  GLU261      0.3649
    182  OE1      210.3850   28.7020   14.1630 O.co2 261  GLU261     -0.2457
    183  OE2      209.5150   27.1520   15.4820 O.co2 261  GLU261     -0.2457
    184  N        205.2140   33.3350   18.6670 N.3   264  GLN264     -0.1245
    185  CA       205.6830   32.5790   19.8250 C.3   264  GLN264      0.1566
    186  C        206.9680   33.2270   20.3670 C.2   264  GLN264      0.2260
    187  O        207.0940   33.4750   21.5650 O.2   264  GLN264     -0.2867
    188  CB       205.8620   31.1000   19.4470 C.3   264  GLN264      0.0367
    189  CG       206.4130   30.2400   20.5770 C.3   264  GLN264      0.0905
    190  CD       206.9280   28.8860   20.1540 C.2   264  GLN264      0.2608
    191  OE1      207.2830   28.0490   20.9870 O.2   264  GLN264     -0.2717
    192  NE2      206.9540   28.6480   18.8570 N.am  264  GLN264     -0.0878
@<TRIPOS>BOND
     1   138   139    1
     2   139   140    1
     3   139   142    1
     4   141   140    2
     5   140   147   am
     6   164   163    1
     7   150   149    2
     8   149   148    1
     9   142   143    1
    10   147   148    1
    11   148   151    1
    12   163   165    1
    13   163   162    1
    14   143   144    1
    15   132   131    2
    16   129   130    1
    17   131   130    1
    18   162   159    1
    19   159   160    1
    20   159   158    1
    21   151   152    1
    22   160   161    2
    23   166   167    1
    24   146   144   ar
    25   130   133    1
    26   144   145   ar
    27   170   167    1
    28   170   171    1
    29   152   153    1
    30   125   126    1
    31   167   168    1
    32   168   169    2
    33   153   154    1
    34   128   127    2
    35   127   126    1
    36   133   134    1
    37   123   122   ar
    38   171   172    1
    39   117   118    1
    40   154   155    2
    41   118   119    1
    42   118   121    1
    43   134   135    1
    44   120   119    2
    45   122   124   ar
    46   122   121    1
    47   172   173    1
    48   155   156    1
    49   155   157    1
    50   182   181   ar
    51   135   136   ar
    52   135   137   ar
    53    24    25    1
    54    24    23    1
    55   173   174    1
    56   179   176    1
    57   179   180    1
    58   175   176    1
    59   181   183   ar
    60   181   180    1
    61    23    22    1
    62   176   177    1
    63    91    90    1
    64    80    81    1
    65   177   178    2
    66    90    87    1
    67   112   110   ar
    68   112   111   ar
    69   110   108   ar
    70    83    82    2
    71   111   109   ar
    72    22    21    1
    73    82    81    1
    74    82    86   am
    75   108   109   ar
    76   108   107    1
    77    81    84    1
    78   107   104    1
    79    87    86    1
    80    87    88    1
    81    21    18    1
    82    15    14    2
    83    88    89    2
    84    88    92   am
    85    84    85    1
    86   115   116    2
    87   115   114    1
    88    95    94    2
    89   184   185    1
    90    92    93    1
    91   104   103    1
    92   104   105    1
    93   192   190   am
    94    14    13    1
    95    94   103   am
    96    94    93    1
    97    18    17    1
    98    18    19    1
    99   113   105   am
   100   113   114    1
   101   105   106    2
   102    33    32    2
   103   188   185    1
   104   188   189    1
   105    93    96    1
   106    67    66   ar
   107    68    66   ar
   108   185   186    1
   109    79    77    1
   110    16    13    1
   111    13    12    1
   112    66    65    1
   113    19    20    2
   114   190   189    1
   115   190   191    2
   116    12     9   am
   117    32    34   am
   118    32    31    1
   119   186   187    2
   120    58    57   ar
   121    65    64    1
   122    96    97    1
   123    77    76    2
   124    77    78    1
   125    36    35    1
   126    36    37    1
   127    30    31    1
   128    30    27    1
   129    11     8    1
   130     9     8    1
   131     9    10    2
   132    76    75    1
   133    35    28   am
   134     8     7    1
   135    97    99   ar
   136    97    98   ar
   137    64    61    1
   138    57    56    1
   139    57    59   ar
   140    99   101   ar
   141    28    27    1
   142    28    29    2
   143    38    37    2
   144     4     3    2
   145    56    55    1
   146    27    26    1
   147    98   100   ar
   148    55    52    1
   149    48    49    1
   150    48    47    1
   151    50    49    2
   152    49    51   am
   153    75    74    1
   154   101   102   ar
   155     7     3   am
   156    52    51    1
   157    52    53    1
   158    61    62    1
   159    61    60    1
   160     3     2    1
   161   100   102   ar
   162     6     5    1
   163    63    62    2
   164    62    69   am
   165    47    41   am
   166    74    73    1
   167    53    54    2
   168    69    70    1
   169     2     5    1
   170     2     1    1
   171    70    73    1
   172    70    71    1
   173    41    42    2
   174    41    40    1
   175    39    40    1
   176    40    43    1
   177    71    72    2
   178    43    45    1
   179    43    44    1
   180    46    44    1
