@<TRIPOS>MOLECULE
tmp/6grhD00.pdb
 97 94 0 0 0
SMALL
GASTEIGER

@<TRIPOS>ATOM
      1  N        196.4200   54.8400   40.6240 N.3   116  ARG116     -0.1231
      2  CA       195.2710   54.6330   41.4880 C.3   116  ARG116      0.1694
      3  C        194.0000   54.8160   40.6500 C.2   116  ARG116      0.2591
      4  O        194.0280   55.4730   39.6090 O.2   116  ARG116     -0.2718
      5  CB       195.3530   55.5530   42.6980 C.3   116  ARG116      0.0321
      6  CG       196.6160   55.2710   43.5270 C.3   116  ARG116      0.0489
      7  CD       196.5710   55.8590   44.9300 C.3   116  ARG116      0.2205
      8  NE       195.3480   55.4960   45.6370 N.pl3 116  ARG116     -0.0865
      9  CZ       194.3350   56.3310   45.8190 C.cat 116  ARG116      0.5346
     10  NH1      194.4100   57.5650   45.3450 N.pl3 116  ARG116      0.1354
     11  NH2      193.2530   55.9420   46.4610 N.pl3 116  ARG116      0.1354
     12  N        192.9320   54.1310   41.0360 N.am  117  ARG117     -0.1980
     13  CA       191.6250   54.2530   40.3820 C.3   117  ARG117      0.1597
     14  C        190.5790   54.7560   41.3650 C.2   117  ARG117      0.2287
     15  O        190.7660   54.6550   42.5760 O.2   117  ARG117     -0.2864
     16  CB       191.2060   52.8930   39.8550 C.3   117  ARG117      0.0334
     17  CG       192.2380   52.2590   38.9520 C.3   117  ARG117      0.0492
     18  CD       191.6870   50.9890   38.3220 C.3   117  ARG117      0.2205
     19  NE       192.7780   50.1290   37.9120 N.pl3 117  ARG117     -0.0865
     20  CZ       192.6820   49.0910   37.0940 C.cat 117  ARG117      0.5346
     21  NH1      191.5130   48.7180   36.5730 N.pl3 117  ARG117      0.1354
     22  NH2      193.7890   48.4130   36.8130 N.pl3 117  ARG117      0.1354
     23  N        188.3030   50.9250   44.7950 N.3   120  PRO120     -0.2102
     24  CA       189.3300   50.0520   45.3640 C.3   120  PRO120      0.1504
     25  C        189.2510   48.6270   44.8100 C.2   120  PRO120      0.2576
     26  O        188.3200   48.2850   44.0860 O.2   120  PRO120     -0.2718
     27  CB       188.9960   50.0900   46.8620 C.3   120  PRO120      0.0282
     28  CG       187.5000   50.1690   46.8740 C.3   120  PRO120      0.0208
     29  CD       187.1080   50.9910   45.6610 C.3   120  PRO120      0.0893
     30  N        190.2390   47.8000   45.1350 N.am  121  SER121     -0.1938
     31  CA       190.2470   46.3930   44.7070 C.3   121  SER121      0.2055
     32  C        191.0950   45.5670   45.6620 C.2   121  SER121      0.2644
     33  O        192.1880   46.0000   46.0590 O.2   121  SER121     -0.2714
     34  CB       190.8100   46.2720   43.2770 C.3   121  SER121      0.2130
     35  OG       190.9250   44.9240   42.8800 O.3   121  SER121     -0.2179
     36  N        190.5970   44.3910   46.0400 N.am  122  GLY122     -0.1939
     37  CA       191.3690   43.4830   46.8830 C.3   122  GLY122      0.2014
     38  C        192.7500   43.2250   46.3050 C.2   122  GLY122      0.2639
     39  O        192.8790   42.8420   45.1450 O.2   122  GLY122     -0.2714
     40  N        193.7710   43.4890   47.1130 N.am  123  GLY123     -0.1939
     41  CA       195.1680   43.3270   46.7170 C.3   123  GLY123      0.2014
     42  C        195.6380   44.1980   45.5740 C.2   123  GLY123      0.2638
     43  O        196.6890   43.9320   45.0030 O.2   123  GLY123     -0.2714
     44  N        194.8710   45.2470   45.2610 N.am  124  ALA124     -0.1977
     45  CA       195.1000   46.0820   44.0850 C.3   124  ALA124      0.1597
     46  C        195.2460   45.2690   42.7830 C.2   124  ALA124      0.2287
     47  O        196.0040   45.6420   41.8860 O.2   124  ALA124     -0.2864
     48  CB       196.3150   46.9580   44.3140 C.3   124  ALA124      0.0319
     49  N        192.6360   44.3130   40.6060 N.3   126  TYR126     -0.1241
     50  CA       191.7300   44.7840   39.5260 C.3   126  TYR126      0.1605
     51  C        191.4320   43.7280   38.4500 C.2   126  TYR126      0.2264
     52  O        191.7760   43.9060   37.2610 O.2   126  TYR126     -0.2867
     53  CB       192.2870   46.0770   38.9220 C.3   126  TYR126      0.0534
     54  CG       192.2580   47.1790   39.9320 C.ar  126  TYR126     -0.0201
     55  CD1      191.0750   47.8750   40.1710 C.ar  126  TYR126     -0.0009
     56  CD2      193.3740   47.4650   40.7250 C.ar  126  TYR126     -0.0009
     57  CE1      191.0070   48.8640   41.1420 C.ar  126  TYR126      0.0417
     58  CE2      193.3320   48.4730   41.6870 C.ar  126  TYR126      0.0417
     59  CZ       192.1390   49.1670   41.8980 C.ar  126  TYR126      0.1957
     60  OH       192.0500   50.1330   42.8660 O.3   126  TYR126     -0.2866
     61  N        193.9350   34.9860   46.3250 N.3   201  TYR201     -0.1241
     62  CA       193.0180   34.7530   47.4390 C.3   201  TYR201      0.1605
     63  C        192.1720   33.4840   47.3470 C.2   201  TYR201      0.2264
     64  O        191.3710   33.2180   48.2690 O.2   201  TYR201     -0.2867
     65  CB       192.0660   35.9390   47.5700 C.3   201  TYR201      0.0534
     66  CG       192.7860   37.2230   47.8680 C.ar  201  TYR201     -0.0201
     67  CD1      193.4820   37.3760   49.0630 C.ar  201  TYR201     -0.0009
     68  CD2      192.7980   38.2660   46.9590 C.ar  201  TYR201     -0.0009
     69  CE1      194.1640   38.5550   49.3540 C.ar  201  TYR201      0.0417
     70  CE2      193.4790   39.4550   47.2450 C.ar  201  TYR201      0.0417
     71  CZ       194.1490   39.5870   48.4340 C.ar  201  TYR201      0.1957
     72  OH       194.8390   40.7470   48.7310 O.3   201  TYR201     -0.2866
     73  N        185.2520   38.7570   45.8920 N.3   208  MET208     -0.1196
     74  CA       185.8730   40.0910   45.7650 C.3   208  MET208      0.1786
     75  C        185.7320   40.6690   44.3490 C.2   208  MET208      0.2306
     76  O        185.4360   41.8620   44.1900 O.2   208  MET208     -0.2863
     77  CB       187.3660   40.0770   46.1850 C.2   208  MET208      0.0070
     78  CG       187.6400   39.9030   47.6960 C.2   208  MET208      0.0282
     79  SD       189.3460   40.2430   48.2520 S.3   208  MET208     -0.1125
     80  CE       189.6620   38.8940   49.3810 C.3   208  MET208      0.0742
     81  N        182.0280   41.8130   43.7390 N.3   211  MET211     -0.1230
     82  CA       181.8250   43.0700   44.4290 C.3   211  MET211      0.1702
     83  C        182.4910   44.2370   43.7040 C.2   211  MET211      0.2592
     84  O        181.8900   45.2950   43.5360 O.2   211  MET211     -0.2718
     85  CB       182.2490   42.9660   45.9070 C.3   211  MET211      0.0401
     86  CG       181.3250   42.0380   46.6730 C.3   211  MET211      0.0596
     87  SD       181.6950   41.9150   48.4280 S.3   211  MET211     -0.1393
     88  CE       183.3440   41.2600   48.4340 C.3   211  MET211      0.0692
     89  N        183.6990   44.0260   43.2190 N.am  212  GLU212     -0.1979
     90  CA       184.3910   45.0440   42.4760 C.3   212  GLU212      0.1602
     91  C        183.6320   45.5030   41.2470 C.2   212  GLU212      0.2287
     92  O        183.5830   46.6780   40.9680 O.2   212  GLU212     -0.2864
     93  CB       185.7760   44.5630   42.0970 C.3   212  GLU212      0.0415
     94  CG       186.5730   45.5240   41.2540 C.3   212  GLU212      0.1163
     95  CD       187.9730   45.0010   41.0060 C.2   212  GLU212      0.3649
     96  OE1      188.5710   44.4410   41.9790 O.co2 212  GLU212     -0.2457
     97  OE2      188.4600   45.1490   39.8420 O.co2 212  GLU212     -0.2457
@<TRIPOS>BOND
     1    21    20    1
     2    22    20    1
     3    20    19    2
     4    52    51    2
     5    19    18    1
     6    18    17    1
     7    51    50    1
     8    53    50    1
     9    53    54    1
    10    17    16    1
    11    50    49    1
    12     4     3    2
    13    97    95   ar
    14    16    13    1
    15    54    55   ar
    16    54    56   ar
    17    55    57   ar
    18    13    12    1
    19    13    14    1
    20     1     2    1
    21     3    12   am
    22     3     2    1
    23    56    58   ar
    24    92    91    2
    25    95    94    1
    26    95    96   ar
    27    57    59   ar
    28    91    90    1
    29    94    93    1
    30    14    15    2
    31     2     5    1
    32    58    59   ar
    33    47    46    2
    34    59    60    1
    35    93    90    1
    36    90    89    1
    37     5     6    1
    38    46    45    1
    39    35    34    1
    40    89    83   am
    41    34    31    1
    42     6     7    1
    43    84    83    2
    44    83    82    1
    45    81    82    1
    46    45    48    1
    47    45    44    1
    48    26    25    2
    49    76    75    2
    50    75    74    1
    51    82    85    1
    52    31    30    1
    53    31    32    1
    54    23    24    1
    55    23    29    1
    56    25    30   am
    57    25    24    1
    58     7     8    1
    59    43    42    2
    60    39    38    2
    61    44    42   am
    62    10     9    1
    63    24    27    1
    64    42    41    1
    65     8     9    2
    66    29    28    1
    67    32    36   am
    68    32    33    2
    69    74    73    1
    70    74    77    1
    71     9    11    1
    72    85    86    1
    73    36    37    1
    74    77    78    2
    75    38    37    1
    76    38    40   am
    77    61    62    1
    78    86    87    1
    79    41    40    1
    80    27    28    1
    81    68    70   ar
    82    68    66   ar
    83    70    71   ar
    84    63    62    1
    85    63    64    2
    86    62    65    1
    87    65    66    1
    88    78    79    1
    89    66    67   ar
    90    79    80    1
    91    87    88    1
    92    71    72    1
    93    71    69   ar
    94    67    69   ar
