@<TRIPOS>MOLECULE
tmp/6groA00.pdb
 173 162 0 0 0
SMALL
GASTEIGER

@<TRIPOS>ATOM
      1  N        -41.5170   21.6460   26.0340 N.3    13  ILE13      -0.1231
      2  CA       -40.0380   21.5140   26.0570 C.3    13  ILE13       0.1696
      3  C        -39.4410   21.0260   24.7190 C.2    13  ILE13       0.2632
      4  O        -38.2420   21.2390   24.5240 O.2    13  ILE13      -0.2714
      5  CB       -39.5540   20.6590   27.2490 C.3    13  ILE13       0.0266
      6  CG1      -40.0390   19.2080   27.1970 C.3    13  ILE13       0.0019
      7  CG2      -39.9150   21.3220   28.5760 C.3    13  ILE13       0.0020
      8  CD1      -39.5630   18.3700   28.3830 C.3    13  ILE13       0.0001
      9  N        -40.1960   20.3870   23.8050 N.am   14  GLY14      -0.1718
     10  CA       -39.5430   19.9000   22.5230 C.2    14  GLY14       0.1480
     11  C        -40.4140   19.0500   21.5950 C.2    14  GLY14       0.2821
     12  O        -41.6390   18.9950   21.7640 O.2    14  GLY14      -0.2669
     13  N        -39.7520   18.3790   20.6220 N.am   15  CYS15      -0.1919
     14  CA       -40.4000   17.5360   19.5900 C.3    15  CYS15       0.1846
     15  C        -39.6330   16.2190   19.3980 C.2    15  CYS15       0.2626
     16  O        -38.3930   16.1570   19.6050 O.2    15  CYS15      -0.2714
     17  CB       -40.4770   18.2640   18.2530 C.3    15  CYS15       0.0997
     18  SG       -41.7660   19.5360   18.1970 S.3    15  CYS15      -0.0797
     19  N        -40.3700   15.1660   18.9910 N.am   16  GLY16      -0.1954
     20  CA       -39.8150   13.8120   18.6870 C.3    16  GLY16       0.1869
     21  C        -40.5850   13.0960   17.5800 C.2    16  GLY16       0.2309
     22  O        -41.4210   13.6970   16.8870 O.2    16  GLY16      -0.2863
     23  N        -43.7240   17.5450   23.3040 N.3    21  LEU21      -0.1245
     24  CA       -43.1090   17.3340   24.6310 C.3    21  LEU21       0.1561
     25  C        -43.3790   18.4640   25.6240 C.2    21  LEU21       0.2260
     26  O        -43.0990   19.6130   25.3540 O.2    21  LEU21      -0.2867
     27  CB       -41.6070   17.1970   24.4110 C.3    21  LEU21       0.0270
     28  CG       -41.2410   16.2090   23.3140 C.3    21  LEU21       0.0019
     29  CD1      -39.7660   16.2950   23.0180 C.3    21  LEU21       0.0001
     30  CD2      -41.6420   14.8010   23.7140 C.3    21  LEU21       0.0001
     31  N        -41.1630   14.0290   32.0760 N.3    34  ALA34      -0.1231
     32  CA       -41.3790   14.5050   30.7110 C.3    34  ALA34       0.1694
     33  C        -42.6290   13.8150   30.1570 C.2    34  ALA34       0.2592
     34  O        -42.8520   12.6520   30.4060 O.2    34  ALA34      -0.2718
     35  CB       -40.1780   14.1880   29.8830 C.3    34  ALA34       0.0304
     36  N        -43.4200   14.5530   29.3860 N.am   35  ILE35      -0.1966
     37  CA       -44.6660   14.0610   28.8260 C.3    35  ILE35       0.1727
     38  C        -44.6390   14.2530   27.3150 C.2    35  ILE35       0.2616
     39  O        -44.4180   15.3890   26.8280 O.2    35  ILE35      -0.2715
     40  CB       -45.8690   14.7690   29.4720 C.3    35  ILE35       0.0290
     41  CG1      -45.8010   14.6220   31.0030 C.3    35  ILE35       0.0022
     42  CG2      -47.1520   14.2320   28.8680 C.3    35  ILE35       0.0023
     43  CD1      -46.9750   15.1560   31.7770 C.3    35  ILE35       0.0001
     44  N        -44.8650   13.1510   26.5930 N.am   36  LYS36      -0.1977
     45  CA       -45.0140   13.1680   25.1210 C.3    36  LYS36       0.1596
     46  C        -46.4950   13.0190   24.7960 C.2    36  LYS36       0.2287
     47  O        -47.1490   12.1110   25.2990 O.2    36  LYS36      -0.2864
     48  CB       -44.1770   12.0530   24.4840 C.3    36  LYS36       0.0298
     49  CG       -44.1790   11.9460   22.9640 C.3    36  LYS36       0.0038
     50  CD       -43.1010   10.9790   22.4480 C.3    36  LYS36       0.0206
     51  CE       -43.0820   10.8150   20.9420 C.3    36  LYS36       0.1093
     52  NZ       -41.9210   10.0080   20.4870 N.3    36  LYS36      -0.1314
     53  N        -44.5710    2.7850   20.7920 N.3    50  GLU50      -0.1245
     54  CA       -43.3690    3.2250   21.4540 C.3    50  GLU50       0.1567
     55  C        -43.3880    2.8430   22.9420 C.2    50  GLU50       0.2260
     56  O        -42.3800    2.3840   23.5100 O.2    50  GLU50      -0.2867
     57  CB       -43.2340    4.7240   21.2820 C.3    50  GLU50       0.0388
     58  CG       -41.9020    5.1730   21.7570 C.3    50  GLU50       0.1160
     59  CD       -41.5820    6.6240   21.5420 C.2    50  GLU50       0.3649
     60  OE1      -42.4380    7.3810   21.0330 O.co2  50  GLU50      -0.2457
     61  OE2      -40.4630    6.9670   21.9140 O.co2  50  GLU50      -0.2457
     62  N        -40.6250    0.5720   25.0650 N.3    54  TYR54      -0.1241
     63  CA       -39.9870    0.9410   26.3390 C.3    54  TYR54       0.1605
     64  C        -40.2190   -0.1680   27.3800 C.2    54  TYR54       0.2264
     65  O        -39.3250   -0.5280   28.1440 O.2    54  TYR54      -0.2867
     66  CB       -40.5100    2.2750   26.8720 C.3    54  TYR54       0.0534
     67  CG       -39.8540    3.5130   26.3260 C.ar   54  TYR54      -0.0201
     68  CD1      -38.5280    3.8170   26.5940 C.ar   54  TYR54      -0.0009
     69  CD2      -40.5590    4.4020   25.5370 C.ar   54  TYR54      -0.0009
     70  CE1      -37.9350    4.9700   26.0980 C.ar   54  TYR54       0.0417
     71  CE2      -39.9780    5.5590   25.0430 C.ar   54  TYR54       0.0417
     72  CZ       -38.6680    5.8600   25.3350 C.ar   54  TYR54       0.1957
     73  OH       -38.1070    7.0140   24.8400 O.3    54  TYR54      -0.2866
     74  N        -47.7180    9.8560   27.0260 N.3    78  MET78      -0.1245
     75  CA       -46.7840    8.9540   27.6420 C.3    78  MET78       0.1570
     76  C        -45.8970    9.7680   28.5890 C.2    78  MET78       0.2261
     77  O        -45.4600   10.8700   28.2540 O.2    78  MET78      -0.2867
     78  CB       -45.9300    8.2560   26.5810 C.3    78  MET78       0.0387
     79  CG       -45.0180    7.2050   27.1640 C.3    78  MET78       0.0595
     80  SD       -44.2680    6.1580   25.9280 S.3    78  MET78      -0.1393
     81  CE       -43.1750    7.3330   25.1220 C.3    78  MET78       0.0692
     82  N        -42.5310    9.9070   30.9600 N.3    80  LEU80      -0.1231
     83  CA       -41.1830    9.3730   31.0380 C.3    80  LEU80       0.1693
     84  C        -40.4060   10.0960   32.1290 C.2    80  LEU80       0.2592
     85  O        -40.6690   11.2290   32.4340 O.2    80  LEU80      -0.2718
     86  CB       -40.4620    9.6400   29.6990 C.3    80  LEU80       0.0284
     87  CG       -39.3450    8.6890   29.3120 C.3    80  LEU80       0.0019
     88  CD1      -39.9170    7.3600   28.8220 C.3    80  LEU80       0.0001
     89  CD2      -38.5020    9.3100   28.2130 C.3    80  LEU80       0.0001
     90  N        -39.3640    9.4290   32.6090 N.am   81  GLU81      -0.1966
     91  CA       -38.3180   10.0520   33.4070 C.3    81  GLU81       0.1733
     92  C        -37.8180   11.3150   32.6930 C.2    81  GLU81       0.2616
     93  O        -37.5200   11.2770   31.4910 O.2    81  GLU81      -0.2715
     94  CB       -37.1980    9.0230   33.5650 C.3    81  GLU81       0.0429
     95  CG       -36.0510    9.4810   34.4200 C.3    81  GLU81       0.1163
     96  CD       -34.9790    8.4210   34.5870 C.2    81  GLU81       0.3649
     97  OE1      -35.1510    7.2970   34.0400 O.co2  81  GLU81      -0.2457
     98  OE2      -34.0050    8.7020   35.3100 O.co2  81  GLU81      -0.2457
     99  N        -37.7030   12.4180   33.4370 N.am   82  LEU82      -0.1963
    100  CA       -37.1280   13.6410   32.8980 C.3    82  LEU82       0.1728
    101  C        -35.6070   13.5060   32.8550 C.2    82  LEU82       0.2616
    102  O        -34.9760   13.1240   33.8420 O.2    82  LEU82      -0.2715
    103  CB       -37.4940   14.8430   33.7660 C.3    82  LEU82       0.0311
    104  CG       -37.0200   16.2030   33.2630 C.3    82  LEU82       0.0022
    105  CD1      -37.7020   16.5690   31.9370 C.3    82  LEU82       0.0001
    106  CD2      -37.2960   17.2790   34.3120 C.3    82  LEU82       0.0001
    107  N        -35.0400   13.8450   31.6990 N.am   83  LEU83      -0.1963
    108  CA       -33.6190   13.7860   31.4510 C.3    83  LEU83       0.1728
    109  C        -33.0920   15.2000   31.1900 C.2    83  LEU83       0.2616
    110  O        -33.8340   16.1870   31.1750 O.2    83  LEU83      -0.2715
    111  CB       -33.3580   12.8240   30.2930 C.3    83  LEU83       0.0311
    112  CG       -33.8130   11.3940   30.5380 C.3    83  LEU83       0.0022
    113  CD1      -33.6810   10.5390   29.2900 C.3    83  LEU83       0.0001
    114  CD2      -33.0690   10.7670   31.7080 C.3    83  LEU83       0.0001
    115  N        -31.7830   15.2730   30.9790 N.am   84  GLY84      -0.1955
    116  CA       -31.1060   16.5100   30.7120 C.3    84  GLY84       0.1869
    117  C        -30.9380   16.7490   29.2190 C.2    84  GLY84       0.2309
    118  O        -31.6610   16.1910   28.3810 O.2    84  GLY84      -0.2863
    119  N        -29.7170   16.9930   25.2490 N.3    86  SER86      -0.1217
    120  CA       -29.2670   16.0180   24.2580 C.3    86  SER86       0.1889
    121  C        -27.8010   16.2560   23.8990 C.2    86  SER86       0.2288
    122  O        -27.2560   17.3490   24.0870 O.2    86  SER86      -0.2866
    123  CB       -30.0900   16.0820   23.0070 C.3    86  SER86       0.2089
    124  OG       -29.7380   17.2290   22.2320 O.3    86  SER86      -0.2183
    125  N        -27.5970   19.3430   21.7300 N.3    89  ASP89      -0.1239
    126  CA       -27.5710   20.5670   22.5470 C.3    89  ASP89       0.1674
    127  C        -26.1600   20.7770   23.1240 C.2    89  ASP89       0.2266
    128  O        -25.6170   21.9190   23.1360 O.2    89  ASP89      -0.2867
    129  CB       -28.5840   20.5320   23.6940 C.3    89  ASP89       0.1410
    130  CG       -30.0370   20.3820   23.3180 C.2    89  ASP89       0.3668
    131  OD1      -30.4290   20.9820   22.3030 O.co2  89  ASP89      -0.2456
    132  OD2      -30.7780   19.6660   24.0980 O.co2  89  ASP89      -0.2456
    133  N        -29.6640   14.0540   18.7830 N.3   130  GLU130     -0.1231
    134  CA       -30.8540   14.5750   19.4590 C.3   130  GLU130      0.1699
    135  C        -31.5460   13.5020   20.3170 C.2   130  GLU130      0.2592
    136  O        -32.3620   13.8480   21.1550 O.2   130  GLU130     -0.2718
    137  CB       -31.8730   15.1370   18.4560 C.3   130  GLU130      0.0402
    138  CG       -31.4190   16.3710   17.7290 C.3   130  GLU130      0.1161
    139  CD       -30.6050   16.1840   16.4510 C.2   130  GLU130      0.3649
    140  OE1      -30.0840   15.0810   16.2050 O.co2 130  GLU130     -0.2457
    141  OE2      -30.4650   17.1780   15.7130 O.co2 130  GLU130     -0.2457
    142  N        -31.2290   12.2160   20.0940 N.am  131  ASN131     -0.1974
    143  CA       -31.9100   11.1300   20.7630 C.3   131  ASN131      0.1688
    144  C        -31.0630   10.4900   21.8690 C.2   131  ASN131      0.2292
    145  O        -31.5110    9.5080   22.4850 O.2   131  ASN131     -0.2864
    146  CB       -32.3360   10.0200   19.7950 C.3   131  ASN131      0.1181
    147  CG       -33.4980   10.4110   18.9140 C.2   131  ASN131      0.2629
    148  OD1      -34.1420   11.4460   19.1360 O.2   131  ASN131     -0.2716
    149  ND2      -33.7760    9.5630   17.9350 N.am  131  ASN131     -0.0877
    150  N        -29.4420   11.5840   25.5330 N.3   133  LEU133     -0.1245
    151  CA       -29.5660   12.6360   26.5340 C.3   133  LEU133      0.1561
    152  C        -28.7950   12.2440   27.7910 C.2   133  LEU133      0.2260
    153  O        -28.8500   11.1010   28.2410 O.2   133  LEU133     -0.2867
    154  CB       -31.0330   12.8620   26.9150 C.3   133  LEU133      0.0270
    155  CG       -31.8860   13.7210   25.9700 C.3   133  LEU133      0.0019
    156  CD1      -31.9910   13.1780   24.5720 C.3   133  LEU133      0.0001
    157  CD2      -33.2810   13.9190   26.5720 C.3   133  LEU133      0.0001
    158  N        -33.3660    7.6890   23.9390 N.3   148  ILE148     -0.1231
    159  CA       -34.7920    7.9960   23.8680 C.3   148  ILE148      0.1692
    160  C        -35.3010    7.8040   22.4370 C.2   148  ILE148      0.2592
    161  O        -34.5350    7.7230   21.5090 O.2   148  ILE148     -0.2718
    162  CB       -35.1670    9.4180   24.3560 C.3   148  ILE148      0.0266
    163  CG1      -34.7380   10.5260   23.3770 C.3   148  ILE148      0.0019
    164  CG2      -34.6760    9.6450   25.7610 C.3   148  ILE148      0.0020
    165  CD1      -35.3650   11.8580   23.6020 C.3   148  ILE148      0.0001
    166  N        -36.6270    7.7880   22.3160 N.am  149  ASP149     -0.1974
    167  CA       -37.3610    7.8060   21.0600 C.3   149  ASP149      0.1709
    168  C        -37.2390    6.4770   20.3040 C.2   149  ASP149      0.2293
    169  O        -36.4090    6.2790   19.4250 O.2   149  ASP149     -0.2864
    170  CB       -37.0210    8.9900   20.1690 C.3   149  ASP149      0.1436
    171  CG       -38.2060    9.2690   19.2550 C.2   149  ASP149      0.3671
    172  OD1      -38.9590    8.2920   18.9030 O.co2 149  ASP149     -0.2456
    173  OD2      -38.3810   10.4600   18.9230 O.co2 149  ASP149     -0.2456
@<TRIPOS>BOND
     1   141   139   ar
     2   140   139   ar
     3   139   138    1
     4    22    21    2
     5    21    20    1
     6   138   137    1
     7   149   147   am
     8    18    17    1
     9    17    14    1
    10   137   134    1
    11    20    19    1
    12   133   134    1
    13   172   171   ar
    14   147   148    2
    15   147   146    1
    16   173   171   ar
    17    19    15   am
    18   171   170    1
    19    15    14    1
    20    15    16    2
    21   169   168    2
    22   134   135    1
    23    14    13    1
    24   146   143    1
    25   142   135   am
    26   142   143    1
    27   170   167    1
    28   168   167    1
    29   135   136    2
    30    52    51    1
    31    13    11   am
    32   143   144    1
    33    53    54    1
    34    51    50    1
    35    60    59   ar
    36   167   166    1
    37    57    54    1
    38    57    58    1
    39    54    55    1
    40   161   160    2
    41    59    58    1
    42    59    61   ar
    43    11    12    2
    44    11    10    1
    45   125   126    1
    46   144   145    2
    47   124   123    1
    48   131   130   ar
    49   166   160   am
    50   160   159    1
    51    50    49    1
    52    10     9    2
    53   126   127    1
    54   126   129    1
    55    55    56    2
    56    49    48    1
    57   123   120    1
    58    29    28    1
    59   127   128    2
    60    23    24    1
    61    28    30    1
    62    28    27    1
    63   130   129    1
    64   130   132   ar
    65   163   165    1
    66   163   162    1
    67     9     3    1
    68   159   158    1
    69   159   162    1
    70   121   122    2
    71   121   120    1
    72   120   119    1
    73   162   164    1
    74    27    24    1
    75    48    45    1
    76     4     3    2
    77   156   155    1
    78    24    25    1
    79     3     2    1
    80    46    45    1
    81    46    47    2
    82    73    72    1
    83    71    72   ar
    84    71    69   ar
    85    62    63    1
    86    45    44    1
    87    81    80    1
    88    72    70   ar
    89    26    25    2
    90   150   151    1
    91    69    67   ar
    92    80    79    1
    93   155   157    1
    94   155   154    1
    95     1     2    1
    96     2     5    1
    97    70    68   ar
    98    67    68   ar
    99    67    66    1
   100    63    66    1
   101    63    64    1
   102   151   154    1
   103   151   152    1
   104    78    79    1
   105    78    75    1
   106    44    38   am
   107    39    38    2
   108    74    75    1
   109     6     5    1
   110     6     8    1
   111     5     7    1
   112    38    37    1
   113    64    65    2
   114    75    76    1
   115   152   153    2
   116    89    87    1
   117    77    76    2
   118   118   117    2
   119    88    87    1
   120    37    36    1
   121    37    40    1
   122    42    40    1
   123   117   116    1
   124   113   112    1
   125    87    86    1
   126    36    33   am
   127    40    41    1
   128    86    83    1
   129    35    32    1
   130    33    34    2
   131    33    32    1
   132   111   112    1
   133   111   108    1
   134   112   114    1
   135    32    31    1
   136   116   115    1
   137    82    83    1
   138   115   109   am
   139    41    43    1
   140    83    84    1
   141   110   109    2
   142   109   108    1
   143   108   107    1
   144    93    92    2
   145   107   101   am
   146   105   104    1
   147    84    85    2
   148    84    90   am
   149    90    91    1
   150    92    91    1
   151    92    99   am
   152   101   100    1
   153   101   102    2
   154   100    99    1
   155   100   103    1
   156   104   103    1
   157   104   106    1
   158    91    94    1
   159    94    95    1
   160    97    96   ar
   161    95    96    1
   162    96    98   ar
