@<TRIPOS>MOLECULE
tmp/6gryA07.pdb
 102 101 0 0 0
SMALL
GASTEIGER

@<TRIPOS>ATOM
      1  N        -10.1390   20.2890  127.8570 N.3   111  PHE111     -0.1241
      2  CA       -11.1400   19.6750  126.9970 C.3   111  PHE111      0.1605
      3  C        -12.5870   20.0390  127.3650 C.2   111  PHE111      0.2264
      4  O        -13.4710   19.8820  126.5110 O.2   111  PHE111     -0.2867
      5  CB       -10.9640   18.1680  127.0330 C.3   111  PHE111      0.0534
      6  CG        -9.8290   17.6800  126.1690 C.ar  111  PHE111     -0.0203
      7  CD1      -10.0110   17.4670  124.8160 C.ar  111  PHE111     -0.0042
      8  CD2       -8.5700   17.4450  126.7100 C.ar  111  PHE111     -0.0042
      9  CE1       -8.9500   17.0110  124.0090 C.ar  111  PHE111     -0.0003
     10  CE2       -7.5220   16.9890  125.9040 C.ar  111  PHE111     -0.0003
     11  CZ        -7.7330   16.7730  124.5600 C.ar  111  PHE111     -0.0000
     12  N        -19.5800   21.7710  123.2940 N.3   129  TRP129     -0.1227
     13  CA       -19.9070   21.0850  122.0480 C.3   129  TRP129      0.1737
     14  C        -19.9980   19.5860  122.2720 C.2   129  TRP129      0.2596
     15  O        -19.1940   19.0000  123.0090 O.2   129  TRP129     -0.2718
     16  CB       -18.8550   21.3730  120.9790 C.3   129  TRP129      0.0564
     17  CG       -18.8390   22.7690  120.5410 C.ar  129  TRP129      0.0003
     18  CD1      -18.2290   23.8030  121.1580 C.ar  129  TRP129      0.0946
     19  CD2      -19.4820   23.3090  119.3840 C.ar  129  TRP129      0.0152
     20  NE1      -18.4460   24.9730  120.4550 N.ar  129  TRP129     -0.2442
     21  CE2      -19.2020   24.6830  119.3540 C.ar  129  TRP129      0.0810
     22  CE3      -20.2800   22.7590  118.3720 C.ar  129  TRP129      0.0012
     23  CZ2      -19.6940   25.5280  118.3570 C.ar  129  TRP129      0.0191
     24  CZ3      -20.7450   23.5950  117.3640 C.ar  129  TRP129      0.0001
     25  CH2      -20.4500   24.9630  117.3680 C.ar  129  TRP129      0.0015
     26  N        -20.9580   18.9580  121.5960 N.am  130  THR130     -0.1939
     27  CA       -21.3530   17.5950  121.9140 C.3   130  THR130      0.2028
     28  C        -20.9590   16.6340  120.8070 C.2   130  THR130      0.2642
     29  O        -20.5180   17.0400  119.7300 O.2   130  THR130     -0.2714
     30  CB       -22.8800   17.4950  122.1050 C.3   130  THR130      0.1808
     31  OG1      -23.5140   17.5520  120.8290 O.3   130  THR130     -0.2208
     32  CG2      -23.3860   18.6280  122.9550 C.3   130  THR130      0.0379
     33  N        -21.1890   15.3410  121.0730 N.am  131  ARG131     -0.1977
     34  CA       -20.9330   14.2830  120.1040 C.3   131  ARG131      0.1597
     35  C        -21.6460   14.5250  118.7820 C.2   131  ARG131      0.2287
     36  O        -21.2390   13.9580  117.7590 O.2   131  ARG131     -0.2864
     37  CB       -21.3660   12.9260  120.6810 C.3   131  ARG131      0.0334
     38  CG       -20.8070   11.6730  119.9400 C.3   131  ARG131      0.0492
     39  CD       -21.6130   10.3940  120.2560 C.3   131  ARG131      0.2205
     40  NE       -23.0140   10.5150  119.8280 N.pl3 131  ARG131     -0.0865
     41  CZ       -23.5680    9.8950  118.7840 C.cat 131  ARG131      0.5346
     42  NH1      -22.8700    9.0660  118.0130 N.pl3 131  ARG131      0.1354
     43  NH2      -24.8470   10.1150  118.5130 N.pl3 131  ARG131      0.1354
     44  N        -21.9420   17.5000  117.3150 N.3   133  ASN133     -0.1240
     45  CA       -21.4760   18.7770  116.7790 C.3   133  ASN133      0.1653
     46  C        -22.5560   19.8560  116.9260 C.2   133  ASN133      0.2266
     47  O        -22.7860   20.6600  116.0160 O.2   133  ASN133     -0.2867
     48  CB       -21.0260   18.6440  115.3220 C.3   133  ASN133      0.1155
     49  CG       -19.9470   17.5600  115.1110 C.2   133  ASN133      0.2627
     50  OD1      -19.2900   17.1030  116.0430 O.2   133  ASN133     -0.2716
     51  ND2      -19.7670   17.1660  113.8700 N.am  133  ASN133     -0.0877
     52  N        -10.8060   24.7730  125.0930 N.3   167  TYR167     -0.1227
     53  CA       -10.1530   24.9850  123.7950 C.3   167  TYR167      0.1736
     54  C        -11.1320   25.2420  122.6710 C.2   167  TYR167      0.2595
     55  O        -10.7920   25.9680  121.7360 O.2   167  TYR167     -0.2718
     56  CB        -9.2590   23.8010  123.4300 C.3   167  TYR167      0.0548
     57  CG        -9.8900   22.5320  122.8840 C.ar  167  TYR167     -0.0200
     58  CD1      -10.7010   21.7250  123.6670 C.ar  167  TYR167     -0.0009
     59  CD2       -9.5680   22.0910  121.6000 C.ar  167  TYR167     -0.0009
     60  CE1      -11.2030   20.5360  123.1790 C.ar  167  TYR167      0.0417
     61  CE2      -10.0440   20.9380  121.1260 C.ar  167  TYR167      0.0417
     62  CZ       -10.8690   20.1440  121.9150 C.ar  167  TYR167      0.1957
     63  OH       -11.3470   18.9630  121.4080 O.3   167  TYR167     -0.2866
     64  N        -12.3450   24.6790  122.7270 N.am  168  GLU168     -0.1979
     65  CA       -13.2520   24.8530  121.5990 C.3   168  GLU168      0.1602
     66  C        -13.8630   26.2610  121.5240 C.2   168  GLU168      0.2287
     67  O        -14.4650   26.5960  120.4990 O.2   168  GLU168     -0.2864
     68  CB       -14.3430   23.7670  121.6420 C.3   168  GLU168      0.0415
     69  CG       -13.8080   22.3540  121.3300 C.3   168  GLU168      0.1163
     70  CD       -14.8890   21.2860  121.3000 C.2   168  GLU168      0.3649
     71  OE1      -15.4500   20.9450  122.3660 O.co2 168  GLU168     -0.2457
     72  OE2      -15.1590   20.7490  120.2050 O.co2 168  GLU168     -0.2457
     73  N        -13.9080   21.6820  117.6460 N.3   173  ASP173     -0.1225
     74  CA       -13.0830   20.5640  117.2070 C.3   173  ASP173      0.1805
     75  C        -13.9270   19.5110  116.4840 C.2   173  ASP173      0.2597
     76  O        -14.2400   18.4280  116.9900 O.2   173  ASP173     -0.2718
     77  CB       -12.3460   19.9730  118.4090 C.3   173  ASP173      0.1424
     78  CG       -11.3890   18.8960  118.0180 C.2   173  ASP173      0.3668
     79  OD1      -11.1420   18.6850  116.7830 O.co2 173  ASP173     -0.2456
     80  OD2      -10.9480   18.2320  118.9660 O.co2 173  ASP173     -0.2456
     81  N        -14.3010   19.8630  115.2600 N.am  174  PHE174     -0.1976
     82  CA       -14.9590   18.9390  114.3540 C.3   174  PHE174      0.1639
     83  C        -14.7850   19.5530  112.9840 C.2   174  PHE174      0.2290
     84  O        -14.5820   20.7670  112.8660 O.2   174  PHE174     -0.2864
     85  CB       -16.4570   18.7080  114.6690 C.3   174  PHE174      0.0560
     86  CG       -17.2870   19.9730  114.6370 C.ar  174  PHE174     -0.0200
     87  CD1      -17.8110   20.4530  113.4440 C.ar  174  PHE174     -0.0042
     88  CD2      -17.5200   20.6820  115.7930 C.ar  174  PHE174     -0.0042
     89  CE1      -18.5740   21.6240  113.4130 C.ar  174  PHE174     -0.0003
     90  CE2      -18.2920   21.8510  115.7850 C.ar  174  PHE174     -0.0003
     91  CZ       -18.8030   22.3320  114.5790 C.ar  174  PHE174     -0.0000
     92  N         -4.4280   15.5850  121.6720 N.3   234  ARG234     -0.1245
     93  CA        -4.3470   16.6270  120.6460 C.3   234  ARG234      0.1563
     94  C         -3.9610   18.0130  121.1800 C.2   234  ARG234      0.2260
     95  O         -3.4630   18.8430  120.4120 O.2   234  ARG234     -0.2867
     96  CB        -5.6950   16.7160  119.9050 C.3   234  ARG234      0.0307
     97  CG        -6.8660   17.2810  120.7240 C.3   234  ARG234      0.0489
     98  CD        -8.2000   16.9900  120.0570 C.3   234  ARG234      0.2205
     99  NE        -8.4790   15.5570  120.1850 N.pl3 234  ARG234     -0.0865
    100  CZ        -9.5950   14.9290  119.8070 C.cat 234  ARG234      0.5346
    101  NH1      -10.6460   15.5650  119.2830 N.pl3 234  ARG234      0.1354
    102  NH2       -9.6600   13.6420  119.9860 N.pl3 234  ARG234      0.1354
@<TRIPOS>BOND
     1    84    83    2
     2    83    82    1
     3    89    87   ar
     4    89    91   ar
     5    87    86   ar
     6    51    49   am
     7    82    85    1
     8    82    81    1
     9    91    90   ar
    10    86    85    1
    11    86    88   ar
    12    49    48    1
    13    49    50    2
    14    81    75   am
    15    48    45    1
    16    90    88   ar
    17    47    46    2
    18    75    76    2
    19    75    74    1
    20    45    46    1
    21    45    44    1
    22    79    78   ar
    23    74    73    1
    24    74    77    1
    25    24    25   ar
    26    24    22   ar
    27    25    23   ar
    28    36    35    2
    29    42    41    1
    30    78    77    1
    31    78    80   ar
    32    23    21   ar
    33    22    19   ar
    34    43    41    1
    35    35    34    1
    36    41    40    2
    37   101   100    1
    38    21    19   ar
    39    21    20   ar
    40    19    17   ar
    41    29    28    2
    42   100   102    1
    43   100    99    2
    44    40    39    1
    45    96    93    1
    46    96    97    1
    47    38    39    1
    48    38    37    1
    49    98    99    1
    50    98    97    1
    51    34    37    1
    52    34    33    1
    53    72    70   ar
    54    95    94    2
    55    20    18   ar
    56    67    66    2
    57    17    16    1
    58    17    18   ar
    59    93    94    1
    60    93    92    1
    61    28    33   am
    62    28    27    1
    63    31    30    1
    64    16    13    1
    65    61    59   ar
    66    61    62   ar
    67    70    69    1
    68    70    71   ar
    69    69    68    1
    70    63    62    1
    71    66    65    1
    72    26    27    1
    73    26    14   am
    74    65    68    1
    75    65    64    1
    76    59    57   ar
    77    55    54    2
    78    27    30    1
    79    62    60   ar
    80    13    14    1
    81    13    12    1
    82    30    32    1
    83    14    15    2
    84    54    64   am
    85    54    53    1
    86    57    56    1
    87    57    58   ar
    88    60    58   ar
    89    56    53    1
    90    53    52    1
    91     9    11   ar
    92     9     7   ar
    93    11    10   ar
    94     7     6   ar
    95    10     8   ar
    96     6     8   ar
    97     6     5    1
    98     4     3    2
    99     2     5    1
   100     2     3    1
   101     2     1    1
