@<TRIPOS>MOLECULE
tmp/6gryA03.pdb
 130 126 0 0 0
SMALL
GASTEIGER

@<TRIPOS>ATOM
      1  N         -3.0810   14.9840  124.9460 N.3   233  SER233     -0.1202
      2  CA        -3.6120   14.3800  123.6930 C.3   233  SER233      0.2020
      3  C         -3.4110   15.3340  122.5120 C.2   233  SER233      0.2618
      4  O         -2.3020   15.8360  122.3140 O.2   233  SER233     -0.2717
      5  CB        -5.0520   13.9620  123.9680 C.3   233  SER233      0.2103
      6  OG        -5.4500   13.0350  123.0030 O.3   233  SER233     -0.2182
      7  N         -4.4280   15.5850  121.6720 N.am  234  ARG234     -0.1979
      8  CA        -4.3470   16.6270  120.6460 C.3   234  ARG234      0.1597
      9  C         -3.9610   18.0130  121.1800 C.2   234  ARG234      0.2287
     10  O         -3.4630   18.8430  120.4120 O.2   234  ARG234     -0.2864
     11  CB        -5.6950   16.7160  119.9050 C.3   234  ARG234      0.0334
     12  CG        -6.8660   17.2810  120.7240 C.3   234  ARG234      0.0492
     13  CD        -8.2000   16.9900  120.0570 C.3   234  ARG234      0.2205
     14  NE        -8.4790   15.5570  120.1850 N.pl3 234  ARG234     -0.0865
     15  CZ        -9.5950   14.9290  119.8070 C.cat 234  ARG234      0.5346
     16  NH1      -10.6460   15.5650  119.2830 N.pl3 234  ARG234      0.1354
     17  NH2       -9.6600   13.6420  119.9860 N.pl3 234  ARG234      0.1354
     18  N         -0.1970   18.3930  121.3490 N.3   237  LYS237     -0.1245
     19  CA         0.3140   18.9280  120.0760 C.3   237  LYS237      0.1561
     20  C          0.2610   20.4470  120.0450 C.2   237  LYS237      0.2260
     21  O          1.2170   21.1200  119.6310 O.2   237  LYS237     -0.2867
     22  CB        -0.4980   18.3800  118.8830 C.3   237  LYS237      0.0271
     23  CG        -0.5990   16.8680  118.7130 C.3   237  LYS237      0.0035
     24  CD        -1.4770   16.5840  117.4300 C.3   237  LYS237      0.0206
     25  CE        -2.3430   15.3340  117.4820 C.3   237  LYS237      0.1093
     26  NZ        -1.6010   14.0780  117.6110 N.3   237  LYS237     -0.1314
     27  N          0.9160   12.5090  126.4580 N.3   256  GLU256     -0.1231
     28  CA         0.4660   11.5650  125.4410 C.3   256  GLU256      0.1699
     29  C         -0.0020   12.2580  124.1730 C.2   256  GLU256      0.2593
     30  O         -1.1910   12.1790  123.8400 O.2   256  GLU256     -0.2718
     31  CB        -0.6610   10.6990  126.0210 C.3   256  GLU256      0.0402
     32  CG        -0.5020   10.4660  127.5730 C.3   256  GLU256      0.1161
     33  CD        -1.6190    9.6250  128.2260 C.2   256  GLU256      0.3649
     34  OE1       -2.5300    9.1720  127.5070 O.co2 256  GLU256     -0.2457
     35  OE2       -1.5720    9.3990  129.4640 O.co2 256  GLU256     -0.2457
     36  N          0.9080   12.8900  123.4290 N.am  257  SER257     -0.1938
     37  CA         0.5360   13.7500  122.2960 C.3   257  SER257      0.2055
     38  C          0.6270   13.1100  120.9030 C.2   257  SER257      0.2644
     39  O          0.2020   13.7460  119.9310 O.2   257  SER257     -0.2714
     40  CB         1.3910   15.0240  122.3010 C.3   257  SER257      0.2130
     41  OG         2.7720   14.7420  122.1500 O.3   257  SER257     -0.2179
     42  N          1.1530   11.8990  120.7610 N.am  258  GLY258     -0.1939
     43  CA         1.0850   11.1840  119.4700 C.3   258  GLY258      0.2014
     44  C          1.6490   11.8890  118.2330 C.2   258  GLY258      0.2638
     45  O          2.5960   12.6810  118.2940 O.2   258  GLY258     -0.2714
     46  N          1.0550   11.5600  117.0750 N.am  259  GLU259     -0.1977
     47  CA         1.5770   11.9440  115.7680 C.3   259  GLU259      0.1602
     48  C          1.2770   13.4060  115.4590 C.2   259  GLU259      0.2287
     49  O          0.1300   13.8360  115.5610 O.2   259  GLU259     -0.2864
     50  CB         0.9660   11.0430  114.6830 C.3   259  GLU259      0.0415
     51  CG         1.1990   11.4620  113.2160 C.3   259  GLU259      0.1163
     52  CD         2.6420   11.2770  112.7800 C.2   259  GLU259      0.3649
     53  OE1        3.5220   12.1170  113.1300 O.co2 259  GLU259     -0.2457
     54  OE2        2.9010   10.2670  112.1090 O.co2 259  GLU259     -0.2457
     55  N          5.5660   12.0180  119.1990 N.3   263  ALA263     -0.1245
     56  CA         5.7990   10.6930  118.6590 C.3   263  ALA263      0.1562
     57  C          6.5290   10.7330  117.3130 C.2   263  ALA263      0.2260
     58  O          6.1960   11.5310  116.4270 O.2   263  ALA263     -0.2867
     59  CB         4.4700    9.9810  118.4980 C.3   263  ALA263      0.0290
     60  N         -0.7700    6.8280  110.5200 N.3   272  ARG272     -0.1245
     61  CA        -1.3470    7.7340  111.5180 C.3   272  ARG272      0.1563
     62  C         -1.6490    9.1030  110.9100 C.2   272  ARG272      0.2260
     63  O         -2.6880    9.7260  111.2040 O.2   272  ARG272     -0.2867
     64  CB        -0.4160    7.8690  112.7220 C.3   272  ARG272      0.0307
     65  CG        -0.5050    6.6890  113.6850 C.3   272  ARG272      0.0489
     66  CD         0.6390    6.7070  114.6980 C.3   272  ARG272      0.2205
     67  NE         1.9150    6.7810  113.9990 N.pl3 272  ARG272     -0.0865
     68  CZ         3.1020    7.0090  114.5700 C.cat 272  ARG272      0.5346
     69  NH1        3.2150    7.1860  115.8940 N.pl3 272  ARG272      0.1354
     70  NH2        4.1960    7.0340  113.8000 N.pl3 272  ARG272      0.1354
     71  N         -5.3140   10.7990  110.6940 N.3   276  LEU276     -0.1245
     72  CA        -5.5470   12.1190  111.2750 C.3   276  LEU276      0.1561
     73  C         -6.0130   13.1150  110.2240 C.2   276  LEU276      0.2260
     74  O         -6.9570   13.8770  110.4640 O.2   276  LEU276     -0.2867
     75  CB        -4.2830   12.6560  111.9590 C.3   276  LEU276      0.0270
     76  CG        -3.8490   11.9700  113.2540 C.3   276  LEU276      0.0019
     77  CD1       -2.6900   12.7400  113.8820 C.3   276  LEU276      0.0001
     78  CD2       -4.9890   11.8240  114.2390 C.3   276  LEU276      0.0001
     79  N         -7.1630   19.8090  111.5700 N.3   283  TRP283     -0.1241
     80  CA        -6.0940   19.9460  112.5750 C.3   283  TRP283      0.1605
     81  C         -4.8510   20.5940  111.9890 C.2   283  TRP283      0.2264
     82  O         -4.3590   21.5920  112.5280 O.2   283  TRP283     -0.2867
     83  CB        -5.7240   18.5960  113.2020 C.3   283  TRP283      0.0550
     84  CG        -6.7200   18.0690  114.2500 C.ar  283  TRP283      0.0003
     85  CD1       -7.9670   18.5860  114.5510 C.ar  283  TRP283      0.0946
     86  CD2       -6.5550   16.9080  115.1000 C.ar  283  TRP283      0.0152
     87  NE1       -8.5630   17.8270  115.5400 N.ar  283  TRP283     -0.2442
     88  CE2       -7.7300   16.7810  115.8720 C.ar  283  TRP283      0.0810
     89  CE3       -5.5340   15.9600  115.2670 C.ar  283  TRP283      0.0012
     90  CZ2       -7.8970   15.7570  116.8180 C.ar  283  TRP283      0.0191
     91  CZ3       -5.7010   14.9520  116.1980 C.ar  283  TRP283      0.0001
     92  CH2       -6.8760   14.8600  116.9650 C.ar  283  TRP283      0.0015
     93  N         -4.0810    2.9520  121.0110 N.3   323  TRP323     -0.1227
     94  CA        -3.7910    3.6220  119.7480 C.3   323  TRP323      0.1737
     95  C         -2.7290    4.6960  119.9260 C.2   323  TRP323      0.2596
     96  O         -2.7820    5.7500  119.2820 O.2   323  TRP323     -0.2718
     97  CB        -5.0690    4.2330  119.1720 C.3   323  TRP323      0.0564
     98  CG        -6.2690    3.4660  119.5730 C.ar  323  TRP323      0.0003
     99  CD1       -7.1230    3.7550  120.5960 C.ar  323  TRP323      0.0946
    100  CD2       -6.7280    2.2430  118.9950 C.ar  323  TRP323      0.0152
    101  NE1       -8.1030    2.7920  120.6800 N.ar  323  TRP323     -0.2442
    102  CE2       -7.8810    1.8510  119.7070 C.ar  323  TRP323      0.0810
    103  CE3       -6.2810    1.4440  117.9390 C.ar  323  TRP323      0.0012
    104  CZ2       -8.5940    0.6940  119.3950 C.ar  323  TRP323      0.0191
    105  CZ3       -6.9880    0.2940  117.6310 C.ar  323  TRP323      0.0001
    106  CH2       -8.1310   -0.0710  118.3570 C.ar  323  TRP323      0.0015
    107  N         -1.7990    4.4660  120.8430 N.am  324  SER324     -0.1938
    108  CA        -0.6840    5.3570  121.0910 C.3   324  SER324      0.2055
    109  C          0.5900    4.5270  121.0550 C.2   324  SER324      0.2643
    110  O          0.5570    3.2930  121.0500 O.2   324  SER324     -0.2714
    111  CB        -0.8350    6.0980  122.4290 C.3   324  SER324      0.2130
    112  OG        -0.7460    5.2120  123.5340 O.3   324  SER324     -0.2179
    113  N          1.7230    5.2210  121.0190 N.am  325  ASP325     -0.1971
    114  CA         3.0330    4.5940  120.8880 C.3   325  ASP325      0.1709
    115  C          3.9750    5.2290  121.8940 C.2   325  ASP325      0.2293
    116  O          4.7300    6.1620  121.5490 O.2   325  ASP325     -0.2864
    117  CB         3.5740    4.7560  119.4760 C.3   325  ASP325      0.1436
    118  CG         4.8490    4.0060  119.2620 C.2   325  ASP325      0.3671
    119  OD1        5.2370    3.1550  120.1200 O.co2 325  ASP325     -0.2456
    120  OD2        5.4580    4.3020  118.2120 O.co2 325  ASP325     -0.2456
    121  N         -5.2100    6.2560  128.5480 N.3   373  HIS373     -0.1241
    122  CA        -5.0350    7.6050  128.0280 C.3   373  HIS373      0.1621
    123  C         -5.7270    8.6040  128.9520 C.2   373  HIS373      0.2264
    124  O         -6.9590    8.6140  129.0080 O.2   373  HIS373     -0.2867
    125  CB        -5.6190    7.6400  126.6220 C.3   373  HIS373      0.0745
    126  CG        -5.2350    8.8240  125.7990 C.ar  373  HIS373      0.0817
    127  ND1       -3.9280    9.2050  125.5940 N.ar  373  HIS373     -0.2268
    128  CD2       -5.9900    9.6500  125.0360 C.ar  373  HIS373      0.1154
    129  CE1       -3.8980   10.2480  124.7840 C.ar  373  HIS373      0.1986
    130  NE2       -5.1380   10.5350  124.4260 N.ar  373  HIS373     -0.2212
@<TRIPOS>BOND
     1    73    74    2
     2    73    72    1
     3    60    61    1
     4    71    72    1
     5    62    63    2
     6    62    61    1
     7    72    75    1
     8    61    64    1
     9    79    80    1
    10    75    76    1
    11    81    82    2
    12    81    80    1
    13    54    52   ar
    14    80    83    1
    15    64    65    1
    16    52    53   ar
    17    52    51    1
    18    83    84    1
    19    51    50    1
    20    76    77    1
    21    76    78    1
    22    65    66    1
    23    70    68    1
    24    67    68    2
    25    67    66    1
    26    84    85   ar
    27    84    86   ar
    28    85    87   ar
    29    68    69    1
    30    50    47    1
    31    86    89   ar
    32    86    88   ar
    33    89    91   ar
    34    48    49    2
    35    48    47    1
    36    87    88   ar
    37    47    46    1
    38    88    90   ar
    39    91    92   ar
    40    58    57    2
    41    90    92   ar
    42    46    44   am
    43    57    56    1
    44    24    25    1
    45    24    23    1
    46    25    26    1
    47   105   103   ar
    48   105   106   ar
    49   103   100   ar
    50   120   118   ar
    51    44    45    2
    52    44    43    1
    53   106   104   ar
    54    59    56    1
    55    56    55    1
    56    23    22    1
    57    22    19    1
    58   100    98   ar
    59   100   102   ar
    60    97    98    1
    61    97    94    1
    62   118   117    1
    63   118   119   ar
    64    96    95    2
    65    16    15    1
    66   104   102   ar
    67    43    42    1
    68   117   114    1
    69    98    99   ar
    70    21    20    2
    71   102   101   ar
    72    94    95    1
    73    94    93    1
    74    15    17    1
    75    15    14    2
    76    11     8    1
    77    11    12    1
    78    95   107   am
    79    39    38    2
    80    20    19    1
    81    13    14    1
    82    13    12    1
    83    19    18    1
    84    10     9    2
    85    99   101   ar
    86     8     9    1
    87     8     7    1
    88    42    38   am
    89   107   108    1
    90   114   113    1
    91   114   115    1
    92    38    37    1
    93   113   109   am
    94   110   109    2
    95   109   108    1
    96   108   111    1
    97   116   115    2
    98     7     3   am
    99    41    40    1
   100    37    40    1
   101    37    36    1
   102     4     3    2
   103   111   112    1
   104     3     2    1
   105     6     5    1
   106    36    29   am
   107     2     5    1
   108     2     1    1
   109    30    29    2
   110    29    28    1
   111   130   129   ar
   112   130   128   ar
   113   129   127   ar
   114   128   126   ar
   115    28    31    1
   116    28    27    1
   117   127   126   ar
   118   126   125    1
   119    31    32    1
   120   125   122    1
   121    34    33   ar
   122    32    33    1
   123   122   121    1
   124   122   123    1
   125    33    35   ar
   126   123   124    2
