@<TRIPOS>MOLECULE
tmp/6gryA06.pdb
 75 69 0 0 0
SMALL
GASTEIGER

@<TRIPOS>ATOM
      1  N        -14.0540   39.6700  134.6870 N.3    60  LYS60      -0.1231
      2  CA       -15.4700   39.6020  134.9620 C.3    60  LYS60       0.1693
      3  C        -15.7840   39.2830  136.4160 C.2    60  LYS60       0.2592
      4  O        -16.8810   39.6100  136.8830 O.2    60  LYS60      -0.2718
      5  CB       -16.1330   38.5550  134.0550 C.3    60  LYS60       0.0285
      6  CG       -16.3080   38.9970  132.5950 C.3    60  LYS60       0.0035
      7  CD       -17.6970   38.6160  132.0450 C.3    60  LYS60       0.0206
      8  CE       -17.7870   38.7030  130.5130 C.3    60  LYS60       0.1093
      9  NZ       -17.7330   40.1040  129.9850 N.3    60  LYS60      -0.1314
     10  N        -14.8570   38.6820  137.1520 N.am   61  SER61      -0.1952
     11  CA       -15.1950   38.1320  138.4570 C.3    61  SER61       0.1924
     12  C        -13.9180   37.8720  139.2430 C.2    61  SER61       0.2314
     13  O        -12.9450   37.3540  138.6910 O.2    61  SER61      -0.2863
     14  CB       -16.0030   36.8480  138.2860 C.3    61  SER61       0.2116
     15  OG       -16.1000   36.1060  139.4870 O.3    61  SER61      -0.2180
     16  N        -12.0380   35.2000  136.8320 N.3    75  ILE75      -0.1245
     17  CA       -12.5720   34.7690  135.5350 C.3    75  ILE75       0.1561
     18  C        -12.5130   35.9710  134.6120 C.2    75  ILE75       0.2260
     19  O        -13.1780   36.9830  134.8690 O.2    75  ILE75      -0.2867
     20  CB       -14.0150   34.2220  135.5660 C.3    75  ILE75       0.0252
     21  CG1      -14.1600   32.9970  136.4670 C.3    75  ILE75       0.0019
     22  CG2      -14.4670   33.8390  134.1280 C.3    75  ILE75       0.0019
     23  CD1      -15.5450   32.6160  136.7370 C.3    75  ILE75       0.0001
     24  N        -12.4310   37.4920  130.5020 N.3    77  THR77      -0.1218
     25  CA       -12.9000   37.2320  129.1470 C.3    77  THR77       0.1862
     26  C        -11.9470   37.8980  128.1770 C.2    77  THR77       0.2287
     27  O        -11.6330   39.0740  128.3290 O.2    77  THR77      -0.2866
     28  CB       -14.3270   37.7320  128.9040 C.3    77  THR77       0.1770
     29  OG1      -15.2110   37.1050  129.8360 O.3    77  THR77      -0.2211
     30  CG2      -14.7700   37.3960  127.4740 C.3    77  THR77       0.0375
     31  N        -14.6140   34.4450  121.4360 N.3    88  LYS88      -0.1245
     32  CA       -14.0220   34.9140  122.6860 C.3    88  LYS88       0.1561
     33  C        -13.8130   33.7080  123.6220 C.2    88  LYS88       0.2260
     34  O        -14.3830   32.6350  123.4120 O.2    88  LYS88      -0.2867
     35  CB       -14.9080   35.9710  123.3350 C.3    88  LYS88       0.0271
     36  CG       -16.1460   35.3840  124.0760 C.3    88  LYS88       0.0035
     37  CD       -17.2080   36.4450  124.3550 C.3    88  LYS88       0.0206
     38  CE       -18.3660   35.8900  125.2070 C.3    88  LYS88       0.1093
     39  NZ       -18.0860   35.8870  126.7010 N.3    88  LYS88      -0.1314
     40  N        -13.0390   32.3770  127.9250 N.3    90  ASP90      -0.1239
     41  CA       -13.1330   32.6100  129.3760 C.3    90  ASP90       0.1674
     42  C        -11.9950   31.9200  130.1240 C.2    90  ASP90       0.2266
     43  O        -11.9990   30.6950  130.2760 O.2    90  ASP90      -0.2867
     44  CB       -14.4610   32.0900  129.9100 C.3    90  ASP90       0.1410
     45  CG       -15.6510   32.7050  129.2020 C.2    90  ASP90       0.3668
     46  OD1      -15.6260   33.9420  129.0500 O.co2  90  ASP90      -0.2456
     47  OD2      -16.5610   31.9480  128.7840 O.co2  90  ASP90      -0.2456
     48  N        -14.9860   25.6460  131.9880 N.3   114  ILE114     -0.1245
     49  CA       -14.2510   26.0140  133.2010 C.3   114  ILE114      0.1561
     50  C        -14.8820   25.4480  134.4690 C.2   114  ILE114      0.2260
     51  O        -14.2500   25.4780  135.5270 O.2   114  ILE114     -0.2867
     52  CB       -14.0910   27.5590  133.3540 C.3   114  ILE114      0.0252
     53  CG1      -15.3500   28.3070  132.9330 C.3   114  ILE114      0.0019
     54  CG2      -12.9050   28.1100  132.5540 C.3   114  ILE114      0.0019
     55  CD1      -15.4410   29.7410  133.4440 C.3   114  ILE114      0.0001
     56  N        -19.8430   29.6960  136.6610 N.3   124  PRO124     -0.2102
     57  CA       -20.9910   29.4450  135.7830 C.3   124  PRO124      0.1504
     58  C        -20.7590   28.2630  134.8660 C.2   124  PRO124      0.2576
     59  O        -19.6540   28.0640  134.3520 O.2   124  PRO124     -0.2718
     60  CB       -21.1160   30.7440  134.9840 C.3   124  PRO124      0.0282
     61  CG       -20.3720   31.7550  135.7890 C.3   124  PRO124      0.0208
     62  CD       -19.2460   31.0160  136.3870 C.3   124  PRO124      0.0893
     63  N        -21.8200   27.4910  134.6600 N.am  125  LEU125     -0.1966
     64  CA       -21.7910   26.3430  133.7630 C.3   125  LEU125      0.1728
     65  C        -21.5650   26.8010  132.3260 C.2   125  LEU125      0.2616
     66  O        -22.2450   27.7150  131.8540 O.2   125  LEU125     -0.2715
     67  CB       -23.1020   25.5630  133.8740 C.3   125  LEU125      0.0311
     68  CG       -23.3800   24.8790  135.2270 C.3   125  LEU125      0.0022
     69  CD1      -24.7480   24.2420  135.2160 C.3   125  LEU125      0.0001
     70  CD2      -22.3240   23.8390  135.5970 C.3   125  LEU125      0.0001
     71  N        -20.6180   26.1650  131.6200 N.am  126  ALA126     -0.1977
     72  CA       -20.2360   26.6240  130.2880 C.3   126  ALA126      0.1597
     73  C        -20.9660   25.8420  129.2030 C.2   126  ALA126      0.2287
     74  O        -21.3430   24.6790  129.3880 O.2   126  ALA126     -0.2864
     75  CB       -18.7250   26.4990  130.0770 C.3   126  ALA126      0.0319
@<TRIPOS>BOND
     1    31    32    1
     2    32    35    1
     3    32    33    1
     4    35    36    1
     5    34    33    2
     6    36    37    1
     7    37    38    1
     8    38    39    1
     9    30    28    1
    10    40    41    1
    11    26    27    2
    12    26    25    1
    13    47    45   ar
    14    28    25    1
    15    28    29    1
    16    46    45   ar
    17    25    24    1
    18    45    44    1
    19    73    74    2
    20    73    72    1
    21    41    44    1
    22    41    42    1
    23     9     8    1
    24    75    72    1
    25    42    43    2
    26    72    71    1
    27     8     7    1
    28    71    65   am
    29    66    65    2
    30    48    49    1
    31     7     6    1
    32    65    64    1
    33    54    52    1
    34     6     5    1
    35    53    52    1
    36    53    55    1
    37    49    52    1
    38    49    50    1
    39    64    67    1
    40    64    63    1
    41    67    68    1
    42     5     2    1
    43    22    20    1
    44    59    58    2
    45    50    51    2
    46    18    19    2
    47    18    17    1
    48    63    58   am
    49     1     2    1
    50    58    57    1
    51     2     3    1
    52    60    57    1
    53    60    61    1
    54    69    68    1
    55    68    70    1
    56    17    20    1
    57    17    16    1
    58    20    21    1
    59    57    56    1
    60    61    62    1
    61    62    56    1
    62     3     4    2
    63     3    10   am
    64    21    23    1
    65    10    11    1
    66    14    11    1
    67    14    15    1
    68    11    12    1
    69    13    12    2
