@<TRIPOS>MOLECULE
tmp/6gryA00.pdb
 117 112 0 0 0
SMALL
GASTEIGER

@<TRIPOS>ATOM
      1  N         17.4000   26.8050  114.1280 N.3    33  ARG33      -0.1245
      2  CA        16.0840   26.8740  114.7500 C.3    33  ARG33       0.1563
      3  C         15.1150   27.6580  113.8600 C.2    33  ARG33       0.2260
      4  O         13.9670   27.2270  113.6900 O.2    33  ARG33      -0.2867
      5  CB        16.1670   27.4800  116.1530 C.3    33  ARG33       0.0307
      6  CG        14.8360   27.3010  117.0000 C.3    33  ARG33       0.0489
      7  CD        14.8460   28.1870  118.2820 C.3    33  ARG33       0.2205
      8  NE        13.6680   27.9340  119.1270 N.pl3  33  ARG33      -0.0865
      9  CZ        12.4760   28.5320  118.9810 C.cat  33  ARG33       0.5346
     10  NH1       12.2830   29.4320  118.0410 N.pl3  33  ARG33       0.1354
     11  NH2       11.4690   28.2350  119.7890 N.pl3  33  ARG33       0.1354
     12  N         11.6620   25.9910  112.4790 N.3    37  LEU37      -0.1245
     13  CA        10.3800   26.6790  112.6920 C.3    37  LEU37       0.1561
     14  C          9.6610   26.9630  111.3680 C.2    37  LEU37       0.2260
     15  O          8.4510   26.7730  111.2560 O.2    37  LEU37      -0.2867
     16  CB        10.6340   27.9620  113.4570 C.3    37  LEU37       0.0270
     17  CG         9.4220   28.6370  114.1000 C.3    37  LEU37       0.0019
     18  CD1        8.9570   27.7980  115.2460 C.3    37  LEU37       0.0001
     19  CD2        9.7360   30.0720  114.6020 C.3    37  LEU37       0.0001
     20  N         -1.3270   34.4690  112.4670 N.3    49  PRO49      -0.2116
     21  CA        -1.1040   35.9150  112.5630 C.3    49  PRO49       0.1372
     22  C         -0.1070   36.2740  113.6530 C.2    49  PRO49       0.2244
     23  O          0.2060   35.4800  114.5460 O.2    49  PRO49      -0.2868
     24  CB        -2.4900   36.4850  112.8840 C.3    49  PRO49       0.0268
     25  CG        -3.4140   35.3140  113.0360 C.3    49  PRO49       0.0207
     26  CD        -2.7620   34.1260  112.4750 C.3    49  PRO49       0.0892
     27  N          1.1490   38.6100  116.9550 N.3    51  ARG51      -0.1245
     28  CA         0.5560   38.9200  118.2420 C.3    51  ARG51       0.1563
     29  C         -0.3180   40.1670  118.1160 C.2    51  ARG51       0.2260
     30  O          0.1120   41.1530  117.4990 O.2    51  ARG51      -0.2867
     31  CB         1.6720   39.1370  119.2540 C.3    51  ARG51       0.0307
     32  CG         1.2360   39.3460  120.6900 C.3    51  ARG51       0.0489
     33  CD         2.4560   39.6300  121.5460 C.3    51  ARG51       0.2205
     34  NE         2.1670   39.9880  122.9290 N.pl3  51  ARG51      -0.0865
     35  CZ         3.0920   40.3900  123.7940 C.cat  51  ARG51       0.5346
     36  NH1        4.3610   40.5060  123.4310 N.pl3  51  ARG51       0.1354
     37  NH2        2.7510   40.6840  125.0300 N.pl3  51  ARG51       0.1354
     38  N         -2.2800   29.4540  119.3470 N.3   207  TRP207     -0.1241
     39  CA        -2.2990   30.8980  119.3130 C.3   207  TRP207      0.1605
     40  C         -3.2020   31.4350  120.4260 C.2   207  TRP207      0.2264
     41  O         -2.8900   32.4550  121.0410 O.2   207  TRP207     -0.2867
     42  CB        -2.7470   31.3290  117.8990 C.3   207  TRP207      0.0550
     43  CG        -2.5180   32.7450  117.5280 C.ar  207  TRP207      0.0003
     44  CD1       -1.3760   33.2980  117.0110 C.ar  207  TRP207      0.0946
     45  CD2       -3.4690   33.7970  117.6260 C.ar  207  TRP207      0.0152
     46  NE1       -1.5660   34.6470  116.7960 N.ar  207  TRP207     -0.2442
     47  CE2       -2.8440   34.9740  117.1660 C.ar  207  TRP207      0.0810
     48  CE3       -4.7960   33.8590  118.0640 C.ar  207  TRP207      0.0012
     49  CZ2       -3.5020   36.1930  117.1230 C.ar  207  TRP207      0.0191
     50  CZ3       -5.4510   35.0870  118.0240 C.ar  207  TRP207      0.0001
     51  CH2       -4.8030   36.2280  117.5550 C.ar  207  TRP207      0.0015
     52  N         -1.3740   31.5430  123.8010 N.3   210  SER210     -0.1202
     53  CA        -0.4750   32.6850  123.8900 C.3   210  SER210      0.2020
     54  C         -1.2670   33.9850  124.1660 C.2   210  SER210      0.2618
     55  O         -0.7330   34.9280  124.7570 O.2   210  SER210     -0.2717
     56  CB         0.3680   32.8140  122.6110 C.3   210  SER210      0.2103
     57  OG         1.4120   31.8290  122.5180 O.3   210  SER210     -0.2182
     58  N         -2.5400   34.0580  123.7830 N.am  211  ARG211     -0.1979
     59  CA        -3.3070   35.2140  124.2280 C.3   211  ARG211      0.1597
     60  C         -3.6750   35.0840  125.7030 C.2   211  ARG211      0.2287
     61  O         -3.6980   36.0840  126.4260 O.2   211  ARG211     -0.2864
     62  CB        -4.5340   35.4320  123.3470 C.3   211  ARG211      0.0334
     63  CG        -4.2970   35.3040  121.8450 C.3   211  ARG211      0.0492
     64  CD        -3.4340   36.3510  121.1810 C.3   211  ARG211      0.2205
     65  NE        -2.0690   36.5050  121.7050 N.pl3 211  ARG211     -0.0865
     66  CZ        -0.9580   35.9840  121.1730 C.cat 211  ARG211      0.5346
     67  NH1       -1.0050   35.2340  120.0690 N.pl3 211  ARG211      0.1354
     68  NH2        0.2260   36.2520  121.7490 N.pl3 211  ARG211      0.1354
     69  N          7.0070   26.3580  121.0250 N.3   244  ALA244     -0.1231
     70  CA         7.8700   26.7400  119.9000 C.3   244  ALA244      0.1694
     71  C          7.6940   28.1960  119.4880 C.2   244  ALA244      0.2592
     72  O          8.6680   28.8930  119.1580 O.2   244  ALA244     -0.2718
     73  CB         7.5490   25.8460  118.7040 C.3   244  ALA244      0.0304
     74  N          6.4620   28.6620  119.4540 N.am  245  GLN245     -0.1966
     75  CA         6.1770   30.0110  119.0110 C.3   245  GLN245      0.1733
     76  C          6.3180   31.0790  120.0890 C.2   245  GLN245      0.2616
     77  O          6.3120   32.2590  119.7520 O.2   245  GLN245     -0.2715
     78  CB         4.7560   30.0750  118.4950 C.3   245  GLN245      0.0408
     79  CG         4.4850   29.1140  117.3800 C.3   245  GLN245      0.0908
     80  CD         4.5170   29.8050  116.0850 C.2   245  GLN245      0.2608
     81  OE1        3.5430   30.4630  115.6970 O.2   245  GLN245     -0.2717
     82  NE2        5.6360   29.7090  115.4070 N.am  245  GLN245     -0.0878
     83  N          6.4160   30.7270  121.3590 N.am  246  ASP246     -0.1957
     84  CA         6.2100   31.7280  122.4200 C.3   246  ASP246      0.1840
     85  C          7.2020   31.4650  123.5370 C.2   246  ASP246      0.2622
     86  O          6.9970   30.5730  124.3750 O.2   246  ASP246     -0.2715
     87  CB         4.7610   31.6880  122.9310 C.3   246  ASP246      0.1450
     88  CG         4.4310   32.8040  123.9240 C.2   246  ASP246      0.3671
     89  OD1        5.3410   33.4360  124.4940 O.co2 246  ASP246     -0.2456
     90  OD2        3.2230   33.0500  124.1480 O.co2 246  ASP246     -0.2456
     91  N          8.2680   32.2700  123.5510 N.am  247  ALA247     -0.1963
     92  CA         9.3960   32.1080  124.4560 C.3   247  ALA247      0.1728
     93  C          9.0480   32.3400  125.9150 C.2   247  ALA247      0.2616
     94  O          9.8690   32.0090  126.7790 O.2   247  ALA247     -0.2715
     95  CB        10.5120   33.0660  124.0550 C.3   247  ALA247      0.0334
     96  N          7.8550   32.8670  126.2150 N.am  248  ARG248     -0.1977
     97  CA         7.4880   33.2140  127.5870 C.3   248  ARG248      0.1597
     98  C          7.1400   31.9930  128.4290 C.2   248  ARG248      0.2287
     99  O          7.2490   32.0490  129.6580 O.2   248  ARG248     -0.2864
    100  CB         6.3190   34.1960  127.5790 C.3   248  ARG248      0.0334
    101  CG         6.6690   35.5890  127.0740 C.3   248  ARG248      0.0492
    102  CD         5.4060   36.4670  126.8710 C.3   248  ARG248      0.2205
    103  NE         4.4360   35.8420  125.9700 N.pl3 248  ARG248     -0.0865
    104  CZ         3.2440   36.3430  125.6430 C.cat 248  ARG248      0.5346
    105  NH1        2.7900   37.4980  126.1390 N.pl3 248  ARG248      0.1354
    106  NH2        2.4870   35.6630  124.8170 N.pl3 248  ARG248      0.1354
    107  N         14.5710   25.7020  127.2730 N.3   312  ARG312     -0.1245
    108  CA        13.5020   25.6980  128.2580 C.3   312  ARG312      0.1563
    109  C         13.0640   24.2720  128.5830 C.2   312  ARG312      0.2260
    110  O         13.4720   23.2970  127.9450 O.2   312  ARG312     -0.2867
    111  CB        12.3420   26.5270  127.7330 C.3   312  ARG312      0.0307
    112  CG        12.7120   27.9510  127.4820 C.3   312  ARG312      0.0489
    113  CD        11.6200   28.6850  126.7700 C.3   312  ARG312      0.2205
    114  NE        11.6440   28.4620  125.3310 N.pl3 312  ARG312     -0.0865
    115  CZ        10.5530   28.3270  124.5910 C.cat 312  ARG312      0.5346
    116  NH1        9.3600   28.3940  125.1670 N.pl3 312  ARG312      0.1354
    117  NH2       10.6360   28.1300  123.2790 N.pl3 312  ARG312      0.1354
@<TRIPOS>BOND
     1    15    14    2
     2    14    13    1
     3    20    26    1
     4    20    21    1
     5    26    25    1
     6    12    13    1
     7    21    24    1
     8    21    22    1
     9    13    16    1
    10    24    25    1
    11    16    17    1
    12    22    23    2
    13     4     3    2
    14     3     2    1
    15    17    19    1
    16    17    18    1
    17     1     2    1
    18     2     5    1
    19    82    80   am
    20    81    80    2
    21    80    79    1
    22     5     6    1
    23    46    44   ar
    24    46    47   ar
    25    27    28    1
    26     6     7    1
    27    44    43   ar
    28    49    47   ar
    29    49    51   ar
    30    47    45   ar
    31    79    78    1
    32    30    29    2
    33    43    45   ar
    34    43    42    1
    35    51    50   ar
    36    45    48   ar
    37    42    39    1
    38    50    48   ar
    39    10     9    1
    40    29    28    1
    41    28    31    1
    42     7     8    1
    43    78    75    1
    44    73    70    1
    45     9     8    2
    46     9    11    1
    47    75    74    1
    48    75    76    1
    49    72    71    2
    50    31    32    1
    51    39    38    1
    52    39    40    1
    53    74    71   am
    54    71    70    1
    55    77    76    2
    56    70    69    1
    57    67    66    1
    58    76    83   am
    59    40    41    2
    60    32    33    1
    61    66    65    2
    62    66    68    1
    63    64    65    1
    64    64    63    1
    65    83    84    1
    66    33    34    1
    67    63    62    1
    68    84    87    1
    69    84    85    1
    70    57    56    1
    71    56    53    1
    72    34    35    2
    73    87    88    1
    74   117   115    1
    75    62    59    1
    76    36    35    1
    77    85    91   am
    78    85    86    2
    79    91    92    1
    80    58    54   am
    81    58    59    1
    82    35    37    1
    83    52    53    1
    84    53    54    1
    85    88    90   ar
    86    88    89   ar
    87    95    92    1
    88    54    55    2
    89    59    60    1
    90    92    93    1
    91   115   116    1
    92   115   114    2
    93   106   104    1
    94   114   113    1
    95   104   103    2
    96   104   105    1
    97    60    61    2
    98    93    96   am
    99    93    94    2
   100   103   102    1
   101    96    97    1
   102   113   112    1
   103   102   101    1
   104   101   100    1
   105   107   108    1
   106   112   111    1
   107   100    97    1
   108    97    98    1
   109   111   108    1
   110   110   109    2
   111   108   109    1
   112    98    99    2
