@<TRIPOS>MOLECULE
tmp/6gs0A00.pdb
 69 67 0 0 0
SMALL
GASTEIGER

@<TRIPOS>ATOM
      1  N         34.0440   19.6300    0.8880 N.3     2  LEU2       -0.1231
      2  CA        34.5630   19.2640    2.1990 C.3     2  LEU2        0.1678
      3  C         35.8840   19.9670    2.4940 C.2     2  LEU2        0.2434
      4  O         36.7460   20.0640    1.6190 O.2     2  LEU2       -0.2733
      5  CB        34.8170   17.7690    2.2710 C.3     2  LEU2        0.0284
      6  CG        33.6220   16.8230    2.1730 C.3     2  LEU2        0.0019
      7  CD1       34.1450   15.4110    2.3550 C.3     2  LEU2        0.0001
      8  CD2       32.5450   17.1360    3.2060 C.3     2  LEU2        0.0001
      9  N         36.0700   20.4180    3.7300 N.am    3  PRO3       -0.2718
     10  CA        37.4010   20.8440    4.1610 C.3     3  PRO3        0.1535
     11  C         38.3840   19.6840    4.0720 C.2     3  PRO3        0.2598
     12  O         38.0380   18.5340    4.3490 O.2     3  PRO3       -0.2715
     13  CB        37.1840   21.2780    5.6160 C.3     3  PRO3        0.0310
     14  CG        35.7360   21.4910    5.7620 C.3     3  PRO3        0.0237
     15  CD        35.0550   20.5940    4.7810 C.3     3  PRO3        0.0939
     16  N         39.6180   19.9880    3.6780 N.am    4  ASP4       -0.1972
     17  CA        40.6350   18.9660    3.4700 C.3     4  ASP4        0.1709
     18  C         41.3350   18.6610    4.7860 C.2     4  ASP4        0.2293
     19  O         41.9470   19.5700    5.3720 O.2     4  ASP4       -0.2864
     20  CB        41.6480   19.4770    2.4660 C.3     4  ASP4        0.1436
     21  CG        42.6150   18.4100    2.0060 C.2     4  ASP4        0.3671
     22  OD1       42.8230   17.4260    2.7490 O.co2   4  ASP4       -0.2456
     23  OD2       43.1840   18.5520    0.9030 O.co2   4  ASP4       -0.2456
     24  N         44.9620   19.8660    5.0020 N.3     7  VAL7       -0.1231
     25  CA        45.3120   21.2730    4.8800 C.3     7  VAL7        0.1692
     26  C         45.0840   21.8930    6.2390 C.2     7  VAL7        0.2593
     27  O         43.9640   21.8440    6.7620 O.2     7  VAL7       -0.2718
     28  CB        44.4610   21.9550    3.8120 C.3     7  VAL7        0.0266
     29  CG1       44.6950   23.4700    3.8160 C.3     7  VAL7        0.0020
     30  CG2       44.7500   21.3620    2.4390 C.3     7  VAL7        0.0020
     31  N         46.1340   22.4310    6.8340 N.am    8  GLY8       -0.1942
     32  CA        46.0150   23.0350    8.1420 C.3     8  GLY8        0.2014
     33  C         45.1310   24.2660    8.1330 C.2     8  GLY8        0.2639
     34  O         44.7730   24.8140    7.0940 O.2     8  GLY8       -0.2714
     35  N         44.7510   24.6820    9.3420 N.am    9  ALA9       -0.1963
     36  CA        43.9400   25.8860    9.5100 C.3     9  ALA9        0.1728
     37  C         44.5350   27.0990    8.8090 C.2     9  ALA9        0.2616
     38  O         43.7790   27.9760    8.3710 O.2     9  ALA9       -0.2715
     39  CB        43.7310   26.1500   11.0060 C.3     9  ALA9        0.0334
     40  N         45.8620   27.2160    8.7510 N.am   10  ASP10      -0.1957
     41  CA        46.5160   28.3460    8.1020 C.3    10  ASP10       0.1840
     42  C         46.7610   28.1020    6.6180 C.2    10  ASP10       0.2622
     43  O         47.3980   28.9300    5.9610 O.2    10  ASP10      -0.2715
     44  CB        47.8240   28.6900    8.8130 C.3    10  ASP10       0.1450
     45  CG        48.8480   27.5650    8.7590 C.2    10  ASP10       0.3671
     46  OD1       48.6630   26.5980    7.9840 O.co2  10  ASP10      -0.2456
     47  OD2       49.8570   27.6560    9.4980 O.co2  10  ASP10      -0.2456
     48  N         46.2520   27.0020    6.0710 N.am   11  GLY11      -0.1954
     49  CA        46.3700   26.7290    4.6590 C.3    11  GLY11       0.1869
     50  C         47.5800   25.9150    4.2660 C.2    11  GLY11       0.2309
     51  O         47.7200   25.5630    3.0910 O.2    11  GLY11      -0.2863
     52  N         48.1690   19.0730   13.2680 N.3    24  ARG24      -0.1245
     53  CA        46.8360   19.0160   12.6830 C.3    24  ARG24       0.1563
     54  C         45.8300   18.3380   13.6090 C.2    24  ARG24       0.2260
     55  O         44.7010   18.8040   13.7410 O.2    24  ARG24      -0.2867
     56  CB        46.9000   18.3600   11.3070 C.3    24  ARG24       0.0307
     57  CG        45.5940   18.4130   10.5560 C.3    24  ARG24       0.0489
     58  CD        45.0330   19.8310   10.4200 C.3    24  ARG24       0.2205
     59  NE        43.8970   19.8010    9.5160 N.pl3  24  ARG24      -0.0865
     60  CZ        42.9330   20.7150    9.4670 C.cat  24  ARG24       0.5346
     61  NH1       42.9430   21.7510   10.2740 N.pl3  24  ARG24       0.1354
     62  NH2       41.9370   20.6030    8.5900 N.pl3  24  ARG24       0.1354
     63  N         33.1060   24.2950    9.9090 N.3   299  PRO299     -0.2116
     64  CA        34.5350   24.3630    9.5700 C.3   299  PRO299      0.1372
     65  C         35.2070   23.0100    9.4670 C.2   299  PRO299      0.2244
     66  O         36.3690   22.9480    9.0330 O.2   299  PRO299     -0.2868
     67  CB        35.1290   25.1670   10.7390 C.3   299  PRO299      0.0268
     68  CG        34.2160   24.8750   11.8900 C.3   299  PRO299      0.0207
     69  CD        32.8510   24.6200   11.3230 C.3   299  PRO299      0.0892
@<TRIPOS>BOND
     1     1     2    1
     2    23    21   ar
     3     4     3    2
     4    21    20    1
     5    21    22   ar
     6     6     5    1
     7     6     7    1
     8     6     8    1
     9     2     5    1
    10     2     3    1
    11    30    28    1
    12    20    17    1
    13     3     9   am
    14    51    50    2
    15    17    16    1
    16    17    18    1
    17    16    11   am
    18     9    10    1
    19     9    15    1
    20    28    29    1
    21    28    25    1
    22    11    10    1
    23    11    12    2
    24    10    13    1
    25    50    49    1
    26    49    48    1
    27    15    14    1
    28    18    19    2
    29    25    24    1
    30    25    26    1
    31    13    14    1
    32    43    42    2
    33    48    42   am
    34    26    27    2
    35    26    31   am
    36    42    41    1
    37    31    32    1
    38    34    33    2
    39    46    45   ar
    40    41    40    1
    41    41    44    1
    42    33    32    1
    43    33    35   am
    44    38    37    2
    45    62    60    1
    46    40    37   am
    47    45    44    1
    48    45    47   ar
    49    37    36    1
    50    66    65    2
    51    35    36    1
    52    65    64    1
    53    60    59    2
    54    60    61    1
    55    36    39    1
    56    59    58    1
    57    64    63    1
    58    64    67    1
    59    63    69    1
    60    58    57    1
    61    57    56    1
    62    67    68    1
    63    56    53    1
    64    69    68    1
    65    53    52    1
    66    53    54    1
    67    54    55    2
