@<TRIPOS>MOLECULE
tmp/6gsgA04.pdb
 82 81 0 0 0
SMALL
GASTEIGER

@<TRIPOS>ATOM
      1  N       -128.8440  -40.3340   98.3450 N.3    97  HIS97      -0.1241
      2  CA      -127.6590  -39.5290   98.0870 C.3    97  HIS97       0.1621
      3  C       -128.0190  -38.0590   98.2490 C.2    97  HIS97       0.2264
      4  O       -129.0970  -37.6280   97.8300 O.2    97  HIS97      -0.2867
      5  CB      -127.0920  -39.8010   96.6810 C.3    97  HIS97       0.0745
      6  CG      -126.6740  -41.2250   96.4680 C.ar   97  HIS97       0.0817
      7  ND1     -127.4560  -42.1360   95.7900 N.ar   97  HIS97      -0.2268
      8  CD2     -125.5630  -41.8990   96.8550 C.ar   97  HIS97       0.1154
      9  CE1     -126.8420  -43.3060   95.7620 C.ar   97  HIS97       0.1986
     10  NE2     -125.6930  -43.1920   96.4060 N.ar   97  HIS97      -0.2212
     11  N       -115.8090  -39.3640   98.3700 N.3   271  HIS271     -0.1226
     12  CA      -116.8270  -40.3000   97.8990 C.3   271  HIS271      0.1752
     13  C       -116.8400  -40.3800   96.3760 C.2   271  HIS271      0.2596
     14  O       -116.6320  -41.4520   95.7950 O.2   271  HIS271     -0.2718
     15  CB      -118.1980  -39.8910   98.4310 C.3   271  HIS271      0.0759
     16  CG      -119.3050  -40.7990   98.0000 C.ar  271  HIS271      0.0818
     17  ND1     -120.3520  -40.3740   97.2120 N.ar  271  HIS271     -0.2268
     18  CD2     -119.5230  -42.1140   98.2380 C.ar  271  HIS271      0.1154
     19  CE1     -121.1730  -41.3850   96.9900 C.ar  271  HIS271      0.1986
     20  NE2     -120.6920  -42.4530   97.6000 N.ar  271  HIS271     -0.2212
     21  N       -117.0790  -39.2480   95.7090 N.am  272  GLY272     -0.1957
     22  CA      -117.0730  -39.2480   94.2540 C.3   272  GLY272      0.1869
     23  C       -115.7160  -39.6040   93.6780 C.2   272  GLY272      0.2309
     24  O       -115.6240  -40.2830   92.6510 O.2   272  GLY272     -0.2863
     25  N       -115.2520  -43.3510   93.7220 N.3   275  HIS275     -0.1226
     26  CA      -116.1260  -43.9760   92.7320 C.3   275  HIS275      0.1752
     27  C       -115.5670  -43.8090   91.3240 C.2   275  HIS275      0.2596
     28  O       -115.3020  -44.7910   90.6220 O.2   275  HIS275     -0.2718
     29  CB      -117.5300  -43.3700   92.8200 C.3   275  HIS275      0.0759
     30  CG      -118.4370  -44.0620   93.7910 C.ar  275  HIS275      0.0818
     31  ND1     -118.7890  -45.3890   93.6660 N.ar  275  HIS275     -0.2268
     32  CD2     -119.0780  -43.6060   94.8940 C.ar  275  HIS275      0.1154
     33  CE1     -119.6010  -45.7230   94.6530 C.ar  275  HIS275      0.1986
     34  NE2     -119.7910  -44.6580   95.4130 N.ar  275  HIS275     -0.2212
     35  N       -115.3700  -42.5630   90.8950 N.am  276  TYR276     -0.1976
     36  CA      -114.9980  -42.3140   89.5070 C.3   276  TYR276      0.1639
     37  C       -113.5840  -42.7800   89.1690 C.2   276  TYR276      0.2290
     38  O       -113.2910  -42.9980   87.9880 O.2   276  TYR276     -0.2864
     39  CB      -115.1560  -40.8280   89.1880 C.3   276  TYR276      0.0560
     40  CG      -116.5950  -40.4270   88.9640 C.ar  276  TYR276     -0.0198
     41  CD1     -117.2830  -40.8430   87.8290 C.ar  276  TYR276     -0.0009
     42  CD2     -117.2700  -39.6400   89.8870 C.ar  276  TYR276     -0.0009
     43  CE1     -118.6040  -40.4830   87.6180 C.ar  276  TYR276      0.0417
     44  CE2     -118.5910  -39.2740   89.6850 C.ar  276  TYR276      0.0417
     45  CZ      -119.2520  -39.6980   88.5480 C.ar  276  TYR276      0.1957
     46  OH      -120.5630  -39.3360   88.3390 O.3   276  TYR276     -0.2866
     47  N       -118.8870  -48.2190   87.2010 N.3   283  GLY283     -0.1210
     48  CA      -118.1230  -47.2730   88.0000 C.3   283  GLY283      0.1956
     49  C       -118.5710  -45.8340   87.8410 C.2   283  GLY283      0.2612
     50  O       -118.4900  -45.0470   88.7870 O.2   283  GLY283     -0.2717
     51  N       -119.0560  -45.4670   86.6520 N.am  284  ARG284     -0.1965
     52  CA      -119.4960  -44.1040   86.3710 C.3   284  ARG284      0.1729
     53  C       -121.0180  -43.9760   86.3280 C.2   284  ARG284      0.2616
     54  O       -121.5390  -43.0440   85.7060 O.2   284  ARG284     -0.2715
     55  CB      -118.8900  -43.6130   85.0560 C.3   284  ARG284      0.0348
     56  CG      -117.3730  -43.6720   84.9990 C.3   284  ARG284      0.0492
     57  CD      -116.8640  -42.8980   83.7930 C.3   284  ARG284      0.2205
     58  NE      -115.4050  -42.8700   83.6990 N.pl3 284  ARG284     -0.0865
     59  CZ      -114.7050  -43.5080   82.7650 C.cat 284  ARG284      0.5346
     60  NH1     -115.3300  -44.2260   81.8380 N.pl3 284  ARG284      0.1354
     61  NH2     -113.3790  -43.4190   82.7500 N.pl3 284  ARG284      0.1354
     62  N       -121.7400  -44.8880   86.9770 N.am  285  ASP285     -0.1957
     63  CA      -123.1990  -44.8600   87.0380 C.3   285  ASP285      0.1840
     64  C       -123.5970  -44.7920   88.5070 C.2   285  ASP285      0.2621
     65  O       -123.4460  -45.7740   89.2400 O.2   285  ASP285     -0.2715
     66  CB      -123.7980  -46.0910   86.3520 C.3   285  ASP285      0.1450
     67  CG      -125.3080  -45.9840   86.1480 C.2   285  ASP285      0.3671
     68  OD1     -126.0010  -45.4020   87.0100 O.co2 285  ASP285     -0.2456
     69  OD2     -125.8030  -46.4940   85.1180 O.co2 285  ASP285     -0.2456
     70  N       -124.1060  -43.6290   88.9280 N.am  286  VAL286     -0.1977
     71  CA      -124.4780  -43.4210   90.3270 C.3   286  VAL286      0.1596
     72  C       -125.5070  -44.4550   90.7710 C.2   286  VAL286      0.2287
     73  O       -125.4840  -44.9270   91.9150 O.2   286  VAL286     -0.2864
     74  CB      -124.9940  -41.9820   90.5250 C.3   286  VAL286      0.0276
     75  CG1     -125.5160  -41.7810   91.9360 C.3   286  VAL286      0.0022
     76  CG2     -123.8950  -40.9780   90.2200 C.3   286  VAL286      0.0022
     77  N       -123.7430  -48.3010   90.7580 N.3   289  SER289     -0.1217
     78  CA      -122.3860  -48.4310   91.2850 C.3   289  SER289      0.1889
     79  C       -122.1330  -49.6850   92.1210 C.2   289  SER289      0.2288
     80  O       -121.0190  -50.2270   92.0290 O.2   289  SER289     -0.2866
     81  CB      -122.0140  -47.1770   92.0920 C.3   289  SER289      0.2089
     82  OG      -122.9470  -46.9080   93.1220 O.3   289  SER289     -0.2183
@<TRIPOS>BOND
     1    60    59    1
     2    61    59    1
     3    59    58    2
     4    58    57    1
     5    57    56    1
     6    56    55    1
     7    55    52    1
     8    69    67   ar
     9    54    53    2
    10    67    66    1
    11    67    68   ar
    12    53    52    1
    13    53    62   am
    14    66    63    1
    15    52    51    1
    16    51    49   am
    17    62    63    1
    18    63    64    1
    19    47    48    1
    20    43    41   ar
    21    43    45   ar
    22    41    40   ar
    23    49    48    1
    24    49    50    2
    25    38    37    2
    26    46    45    1
    27    64    70   am
    28    64    65    2
    29    45    44   ar
    30    70    71    1
    31    40    39    1
    32    40    42   ar
    33    37    36    1
    34    39    36    1
    35    36    35    1
    36    44    42   ar
    37    76    74    1
    38    71    74    1
    39    71    72    1
    40    74    75    1
    41    28    27    2
    42    77    78    1
    43    72    73    2
    44    35    27   am
    45    78    81    1
    46    78    79    1
    47    27    26    1
    48    80    79    2
    49    81    82    1
    50    24    23    2
    51    26    29    1
    52    26    25    1
    53    29    30    1
    54    31    30   ar
    55    31    33   ar
    56    23    22    1
    57    30    32   ar
    58    22    21    1
    59    33    34   ar
    60    32    34   ar
    61    21    13   am
    62     9     7   ar
    63     9    10   ar
    64     7     6   ar
    65    14    13    2
    66    13    12    1
    67    10     8   ar
    68     6     5    1
    69     6     8   ar
    70     5     2    1
    71    19    17   ar
    72    19    20   ar
    73    17    16   ar
    74    20    18   ar
    75     4     3    2
    76    12    11    1
    77    12    15    1
    78    16    18   ar
    79    16    15    1
    80     2     3    1
    81     2     1    1
