@<TRIPOS>MOLECULE
tmp/6gsyB00.pdb
 163 161 0 0 0
SMALL
GASTEIGER

@<TRIPOS>ATOM
      1  N         20.5070    7.9020    2.3180 N.3     6  PHE6       -0.1227
      2  CA        21.1330    7.5990    3.5870 C.3     6  PHE6        0.1736
      3  C         22.4730    6.9220    3.3520 C.2     6  PHE6        0.2595
      4  O         22.7720    6.4560    2.2460 O.2     6  PHE6       -0.2718
      5  CB        20.2540    6.7710    4.5810 C.3     6  PHE6        0.0547
      6  CG        20.8020    6.8210    5.9780 C.ar    6  PHE6       -0.0202
      7  CD1       20.6670    8.0290    6.7320 C.ar    6  PHE6       -0.0042
      8  CD2       21.4150    5.7110    6.5870 C.ar    6  PHE6       -0.0042
      9  CE1       21.2230    8.1610    7.9920 C.ar    6  PHE6       -0.0003
     10  CE2       21.9360    5.8410    7.8850 C.ar    6  PHE6       -0.0003
     11  CZ        21.7950    7.0370    8.6080 C.ar    6  PHE6       -0.0000
     12  N         23.2890    6.8450    4.3750 N.am    7  TRP7       -0.1976
     13  CA        24.5490    6.0580    4.3410 C.3     7  TRP7        0.1640
     14  C         24.1710    4.5530    4.1820 C.2     7  TRP7        0.2290
     15  O         22.9860    4.2100    4.3540 O.2     7  TRP7       -0.2864
     16  CB        25.3080    6.1820    5.6470 C.3     7  TRP7        0.0576
     17  CG        25.6740    7.6060    5.8920 C.ar    7  TRP7        0.0006
     18  CD1       25.1380    8.4920    6.8100 C.ar    7  TRP7        0.0946
     19  CD2       26.5790    8.3490    5.0570 C.ar    7  TRP7        0.0152
     20  NE1       25.7180    9.7010    6.6150 N.ar    7  TRP7       -0.2442
     21  CE2       26.6240    9.6520    5.5930 C.ar    7  TRP7        0.0810
     22  CE3       27.3850    7.9950    3.9850 C.ar    7  TRP7        0.0012
     23  CZ2       27.4150   10.6490    5.0380 C.ar    7  TRP7        0.0191
     24  CZ3       28.1470    9.0240    3.4120 C.ar    7  TRP7        0.0001
     25  CH2       28.1770   10.3080    3.9150 C.ar    7  TRP7        0.0015
     26  N         22.1530    3.1670   10.8880 N.3    11  GLY11      -0.1210
     27  CA        22.0150    4.5100   11.4630 C.3    11  GLY11       0.1956
     28  C         20.6880    4.6720   12.1760 C.2    11  GLY11       0.2611
     29  O         20.3320    3.8230   13.0300 O.2    11  GLY11      -0.2717
     30  N         19.9970    5.7390   11.8460 N.am   12  LEU12      -0.1979
     31  CA        18.6490    6.0040   12.3800 C.3    12  LEU12       0.1596
     32  C         17.5770    5.8280   11.3220 C.2    12  LEU12       0.2287
     33  O         16.4370    6.2700   11.5190 O.2    12  LEU12      -0.2864
     34  CB        18.6500    7.3460   13.1660 C.3    12  LEU12       0.0297
     35  CG        19.4110    8.5580   12.6880 C.3    12  LEU12       0.0022
     36  CD1       19.4100    8.6410   11.1810 C.3    12  LEU12       0.0001
     37  CD2       18.8820    9.8460   13.2830 C.3    12  LEU12       0.0001
     38  N         33.4930   11.6060    2.3810 N.3    42  ARG42      -0.1245
     39  CA        32.0450   11.7970    2.2830 C.3    42  ARG42       0.1563
     40  C         31.7000   12.4900    0.9750 C.2    42  ARG42       0.2260
     41  O         30.5190   12.7980    0.7180 O.2    42  ARG42      -0.2867
     42  CB        31.5440   12.5960    3.4980 C.3    42  ARG42       0.0307
     43  CG        32.2920   12.2510    4.7990 C.3    42  ARG42       0.0489
     44  CD        31.4770   12.6470    5.9530 C.3    42  ARG42       0.2205
     45  NE        31.0530   14.0340    5.9790 N.pl3  42  ARG42      -0.0865
     46  CZ        29.8860   14.5300    6.4330 C.cat  42  ARG42       0.5346
     47  NH1       28.8840   13.7790    6.9160 N.pl3  42  ARG42       0.1354
     48  NH2       29.7480   15.8670    6.4260 N.pl3  42  ARG42       0.1354
     49  N         28.3910   12.1660   -1.0230 N.3    45  TRP45      -0.1241
     50  CA        27.2930   12.8990   -0.4130 C.3    45  TRP45       0.1605
     51  C         27.4580   14.4190   -0.5270 C.2    45  TRP45       0.2264
     52  O         26.4400   15.1020   -0.8150 O.2    45  TRP45      -0.2867
     53  CB        26.9330   12.4880    0.9980 C.3    45  TRP45       0.0550
     54  CG        26.1010   13.4460    1.7950 C.ar   45  TRP45       0.0003
     55  CD1       26.4860   14.0230    2.9570 C.ar   45  TRP45       0.0946
     56  CD2       24.7690   13.9230    1.5330 C.ar   45  TRP45       0.0152
     57  NE1       25.4570   14.8160    3.4430 N.ar   45  TRP45      -0.2442
     58  CE2       24.3850   14.7600    2.5730 C.ar   45  TRP45       0.0810
     59  CE3       23.8570   13.6770    0.5060 C.ar   45  TRP45       0.0012
     60  CZ2       23.1630   15.3470    2.6750 C.ar   45  TRP45       0.0191
     61  CZ3       22.5790   14.2570    0.5850 C.ar   45  TRP45       0.0001
     62  CH2       22.2850   15.1920    1.5990 C.ar   45  TRP45       0.0015
     63  N         24.9610   17.4310   -1.8790 N.3    49  LYS49      -0.1245
     64  CA        24.2320   17.8370   -0.6480 C.3    49  LYS49       0.1561
     65  C         23.3290   19.0350   -0.8510 C.2    49  LYS49       0.2260
     66  O         22.1120   19.0820   -0.4950 O.2    49  LYS49      -0.2867
     67  CB        25.2710   18.0330    0.4530 C.3    49  LYS49       0.0271
     68  CG        24.5340   18.5510    1.7060 C.3    49  LYS49       0.0035
     69  CD        25.5040   18.6100    2.8820 C.3    49  LYS49       0.0206
     70  CE        24.8050   19.1270    4.1480 C.3    49  LYS49       0.1093
     71  NZ        25.8210   19.0820    5.2550 N.3    49  LYS49      -0.1314
     72  N         19.2730   20.3050    4.1890 N.3    57  PRO57      -0.2102
     73  CA        20.0660   19.1800    3.7400 C.3    57  PRO57       0.1504
     74  C         20.5400   18.3010    4.8940 C.2    57  PRO57       0.2576
     75  O         21.2160   18.6990    5.8350 O.2    57  PRO57      -0.2718
     76  CB        21.3140   19.8590    3.1350 C.3    57  PRO57       0.0282
     77  CG        20.7280   21.1030    2.4700 C.3    57  PRO57       0.0208
     78  CD        19.6420   21.5200    3.4480 C.3    57  PRO57       0.0893
     79  N         20.2360   17.0170    4.7110 N.am   58  ASN58      -0.1961
     80  CA        20.7330   16.0520    5.7390 C.3    58  ASN58       0.1819
     81  C         20.4030   14.6410    5.2510 C.2    58  ASN58       0.2621
     82  O         19.6070   14.5320    4.2890 O.2    58  ASN58      -0.2715
     83  CB        20.0120   16.3660    7.0720 C.3    58  ASN58       0.1195
     84  CG        20.8120   16.0710    8.3160 C.2    58  ASN58       0.2630
     85  OD1       21.9180   15.5150    8.2880 O.2    58  ASN58      -0.2716
     86  ND2       20.4270   16.8020    9.3900 N.am   58  ASN58      -0.0877
     87  N         21.0330   13.7080    5.9430 N.am   59  LEU59      -0.1964
     88  CA        20.7390   12.2560    5.6700 C.3    59  LEU59       0.1713
     89  C         20.0940   11.7480    6.9870 C.2    59  LEU59       0.2458
     90  O         20.7730   11.9220    8.0000 O.2    59  LEU59      -0.2730
     91  CB        22.1080   11.5860    5.4490 C.3    59  LEU59       0.0310
     92  CG        22.7090   11.8410    4.0670 C.3    59  LEU59       0.0022
     93  CD1       24.0260   11.1350    3.8870 C.3    59  LEU59       0.0001
     94  CD2       21.6630   11.5730    3.0150 C.3    59  LEU59       0.0001
     95  N         18.9100   11.1950    6.9040 N.am   60  PRO60      -0.2727
     96  CA        18.2040   10.8640    5.6810 C.3    60  PRO60       0.1402
     97  C         17.2700   11.8270    4.9980 C.2    60  PRO60       0.2269
     98  O         16.5980   12.6380    5.6920 O.2    60  PRO60      -0.2865
     99  CB        17.3020    9.6870    6.2060 C.3    60  PRO60       0.0296
    100  CG        16.9350   10.2220    7.6060 C.3    60  PRO60       0.0237
    101  CD        18.3290   10.5940    8.1440 C.3    60  PRO60       0.0939
    102  N         14.8780   15.1730    8.1740 N.3    71  GLN71      -0.1231
    103  CA        14.5910   14.9200    9.6130 C.3    71  GLN71       0.1698
    104  C         13.8560   13.5740    9.7300 C.2    71  GLN71       0.2593
    105  O         12.6800   13.3910    9.3500 O.2    71  GLN71      -0.2718
    106  CB        13.9080   16.0770   10.4000 C.3    71  GLN71       0.0381
    107  CG        14.7730   17.3380   10.5560 C.3    71  GLN71       0.0905
    108  CD        15.9550   17.1420   11.4740 C.2    71  GLN71       0.2608
    109  OE1       15.9090   16.1700   12.2730 O.2    71  GLN71      -0.2717
    110  NE2       17.0190   17.8670   11.4240 N.am   71  GLN71      -0.0878
    111  N         14.6220   12.5940   10.1670 N.am   72  SER72      -0.1938
    112  CA        14.1310   11.2120   10.4000 C.3    72  SER72       0.2055
    113  C         12.7410   11.1790   11.0070 C.2    72  SER72       0.2643
    114  O         11.8360   10.4550   10.4930 O.2    72  SER72      -0.2714
    115  CB        15.0300   10.2530   11.1130 C.3    72  SER72       0.2130
    116  OG        15.4510   10.6180   12.3970 O.3    72  SER72      -0.2179
    117  N         12.5260   12.0200   12.0040 N.am   73  ASN73      -0.1971
    118  CA        11.2090   12.0970   12.6480 C.3    73  ASN73       0.1688
    119  C         10.1480   12.6370   11.7220 C.2    73  ASN73       0.2292
    120  O          9.0070   12.1400   11.6760 O.2    73  ASN73      -0.2864
    121  CB        11.3530   12.6810   14.0280 C.3    73  ASN73       0.1181
    122  CG        11.8840   11.8210   15.1750 C.2    73  ASN73       0.2629
    123  OD1       11.6020   10.6030   15.2980 O.2    73  ASN73      -0.2716
    124  ND2       12.5930   12.5060   16.1060 N.am   73  ASN73      -0.0877
    125  N         14.5620    8.5930   20.4380 N.3   104  MET104     -0.1245
    126  CA        15.7180    9.4010   19.9870 C.3   104  MET104      0.1570
    127  C         16.7290    9.5880   21.0950 C.2   104  MET104      0.2261
    128  O         17.9510    9.4500   20.8780 O.2   104  MET104     -0.2867
    129  CB        15.1330   10.6600   19.3510 C.3   104  MET104      0.0387
    130  CG        16.2130   11.5040   18.6510 C.3   104  MET104      0.0595
    131  SD        16.8510   10.6000   17.2040 S.3   104  MET104     -0.1393
    132  CE        15.3660   10.5200   16.2180 C.3   104  MET104      0.0692
    133  N         24.7110    5.8670   20.7670 N.3   111  ILE111     -0.1245
    134  CA        25.7690    6.3870   19.8890 C.3   111  ILE111      0.1561
    135  C         26.8170    7.1130   20.7320 C.2   111  ILE111      0.2260
    136  O         28.0450    6.9250   20.5560 O.2   111  ILE111     -0.2867
    137  CB        25.1240    7.3080   18.8060 C.3   111  ILE111      0.0252
    138  CG1       23.7400    6.7660   18.3880 C.3   111  ILE111      0.0019
    139  CG2       26.0300    7.5920   17.5750 C.3   111  ILE111      0.0019
    140  CD1       22.9700    7.6540   17.3720 C.3   111  ILE111      0.0001
    141  N         30.7530    5.8770   19.2690 N.3   115  TYR115     -0.1241
    142  CA        31.8520    6.7830   18.8610 C.3   115  TYR115      0.1605
    143  C         32.1290    7.6240   20.1440 C.2   115  TYR115      0.2264
    144  O         31.2290    8.4120   20.4880 O.2   115  TYR115     -0.2867
    145  CB        31.6140    7.7740   17.7190 C.3   115  TYR115      0.0534
    146  CG        30.7220    7.5840   16.5110 C.ar  115  TYR115     -0.0201
    147  CD1       29.3630    7.9420   16.5690 C.ar  115  TYR115     -0.0009
    148  CD2       31.2010    7.1420   15.2770 C.ar  115  TYR115     -0.0009
    149  CE1       28.5100    7.7600   15.4920 C.ar  115  TYR115      0.0417
    150  CE2       30.3550    6.9020   14.2000 C.ar  115  TYR115      0.0417
    151  CZ        28.9940    7.1790   14.3340 C.ar  115  TYR115      0.1957
    152  OH        28.1650    6.9750   13.2630 O.3   115  TYR115     -0.2866
    153  N         26.4500    1.7550   12.7150 N.3   208  PHE208     -0.1241
    154  CA        27.2100    2.9460   12.4270 C.3   208  PHE208      0.1605
    155  C         28.6050    2.6390   11.8780 C.2   208  PHE208      0.2264
    156  O         29.4180    1.9870   12.5160 O.2   208  PHE208     -0.2867
    157  CB        27.3520    3.9660   13.5620 C.3   208  PHE208      0.0534
    158  CG        26.1390    4.3200   14.3520 C.ar  208  PHE208     -0.0203
    159  CD1       25.0450    4.9480   13.7450 C.ar  208  PHE208     -0.0042
    160  CD2       26.0600    3.9880   15.7140 C.ar  208  PHE208     -0.0042
    161  CE1       23.9040    5.2780   14.4560 C.ar  208  PHE208     -0.0003
    162  CE2       24.9180    4.2810   16.4730 C.ar  208  PHE208     -0.0003
    163  CZ        23.8430    4.9080   15.8070 C.ar  208  PHE208     -0.0000
@<TRIPOS>BOND
     1    63    64    1
     2    49    50    1
     3    65    64    1
     4    65    66    2
     5    52    51    2
     6    64    67    1
     7    51    50    1
     8    50    53    1
     9    67    68    1
    10    59    61   ar
    11    59    56   ar
    12    61    62   ar
    13    41    40    2
    14    40    39    1
    15    53    54    1
    16    56    54   ar
    17    56    58   ar
    18    62    60   ar
    19    68    69    1
    20    54    55   ar
    21     4     3    2
    22    39    38    1
    23    39    42    1
    24     1     2    1
    25    77    76    1
    26    77    78    1
    27    58    60   ar
    28    58    57   ar
    29    69    70    1
    30    55    57   ar
    31    94    92    1
    32    76    73    1
    33     3     2    1
    34     3    12   am
    35    24    25   ar
    36    24    22   ar
    37    78    72    1
    38    42    43    1
    39     2     5    1
    40    73    72    1
    41    73    74    1
    42    93    92    1
    43    25    23   ar
    44    22    19   ar
    45    92    91    1
    46    70    71    1
    47    14    13    1
    48    14    15    2
    49    82    81    2
    50    13    12    1
    51    13    16    1
    52     5     6    1
    53    79    74   am
    54    79    80    1
    55    43    44    1
    56    74    75    2
    57    97    96    1
    58    97    98    2
    59    23    21   ar
    60    19    21   ar
    61    19    17   ar
    62    81    80    1
    63    81    87   am
    64    91    88    1
    65    21    20   ar
    66    16    17    1
    67    88    87    1
    68    88    89    1
    69    96    99    1
    70    96    95    1
    71    80    83    1
    72    17    18   ar
    73    44    45    1
    74     6     8   ar
    75     6     7   ar
    76    45    46    2
    77    99   100    1
    78    48    46    1
    79    46    47    1
    80     8    10   ar
    81    20    18   ar
    82     7     9   ar
    83    95    89   am
    84    95   101    1
    85    89    90    2
    86    83    84    1
    87   100   101    1
    88    10    11   ar
    89     9    11   ar
    90   102   103    1
    91    85    84    2
    92    84    86   am
    93   105   104    2
    94   103   104    1
    95   103   106    1
    96   104   111   am
    97   111   112    1
    98   112   113    1
    99   112   115    1
   100   106   107    1
   101   114   113    2
   102   107   108    1
   103    26    27    1
   104   113   117   am
   105   115   116    1
   106    36    35    1
   107    32    33    2
   108    32    31    1
   109   110   108   am
   110    27    28    1
   111   108   109    2
   112   120   119    2
   113   119   118    1
   114    30    28   am
   115    30    31    1
   116   155   154    1
   117   155   156    2
   118   117   118    1
   119    28    29    2
   120    31    34    1
   121   154   153    1
   122   154   157    1
   123   118   121    1
   124    35    34    1
   125    35    37    1
   126   152   151    1
   127   157   158    1
   128   159   158   ar
   129   159   161   ar
   130   121   122    1
   131   150   151   ar
   132   150   148   ar
   133   151   149   ar
   134   158   160   ar
   135   161   163   ar
   136   122   123    2
   137   122   124   am
   138   148   146   ar
   139   149   147   ar
   140   160   162   ar
   141   163   162   ar
   142   132   131    1
   143   146   147   ar
   144   146   145    1
   145   131   130    1
   146   140   138    1
   147   139   137    1
   148   145   142    1
   149   138   137    1
   150   130   129    1
   151   137   134    1
   152   142   141    1
   153   142   143    1
   154   129   126    1
   155   134   135    1
   156   134   133    1
   157   126   125    1
   158   126   127    1
   159   143   144    2
   160   136   135    2
   161   128   127    2
