@<TRIPOS>MOLECULE
tmp/6gszA06.pdb
 91 86 0 0 0
SMALL
GASTEIGER

@<TRIPOS>ATOM
      1  N         33.3410  -15.0140   34.0780 N.3   180  TYR180     -0.1227
      2  CA        33.5300  -13.8060   33.2750 C.3   180  TYR180      0.1736
      3  C         35.0110  -13.4790   33.0700 C.2   180  TYR180      0.2595
      4  O         35.4040  -13.0870   31.9710 O.2   180  TYR180     -0.2718
      5  CB        32.8330  -12.6210   33.9340 C.3   180  TYR180      0.0548
      6  CG        31.3620  -12.8160   34.1280 C.ar  180  TYR180     -0.0200
      7  CD1       30.5310  -12.9280   33.0280 C.ar  180  TYR180     -0.0009
      8  CD2       30.7970  -12.8880   35.3920 C.ar  180  TYR180     -0.0009
      9  CE1       29.1740  -13.0980   33.1810 C.ar  180  TYR180      0.0417
     10  CE2       29.4380  -13.1160   35.5490 C.ar  180  TYR180      0.0417
     11  CZ        28.6250  -13.1750   34.4420 C.ar  180  TYR180      0.1957
     12  OH        27.2860  -13.3990   34.5330 O.3   180  TYR180     -0.2866
     13  N         35.8060  -13.6300   34.1180 N.am  181  ARG181     -0.1980
     14  CA        37.1990  -13.1480   34.1210 C.3   181  ARG181      0.1597
     15  C         37.9890  -14.1080   34.9980 C.2   181  ARG181      0.2287
     16  O         37.5700  -14.3800   36.1220 O.2   181  ARG181     -0.2864
     17  CB        37.2640  -11.7130   34.6460 C.3   181  ARG181      0.0334
     18  CG        38.6450  -11.0700   34.5760 C.3   181  ARG181      0.0492
     19  CD        38.6300   -9.6490   35.0860 C.3   181  ARG181      0.2205
     20  NE        38.4130   -9.6210   36.5290 N.pl3 181  ARG181     -0.0865
     21  CZ        39.3550   -9.7050   37.4920 C.cat 181  ARG181      0.5346
     22  NH1       40.6600   -9.5430   37.1980 N.pl3 181  ARG181      0.1354
     23  NH2       38.9440   -9.9390   38.7520 N.pl3 181  ARG181      0.1354
     24  N         38.8160  -16.9650   26.3050 N.3   299  GLU299     -0.1231
     25  CA        38.4140  -15.5510   26.2040 C.3   299  GLU299      0.1699
     26  C         38.2900  -14.9190   27.5920 C.2   299  GLU299      0.2592
     27  O         38.3530  -13.7020   27.6870 O.2   299  GLU299     -0.2718
     28  CB        37.0930  -15.4050   25.4240 C.3   299  GLU299      0.0402
     29  CG        37.2680  -15.6950   23.9430 C.3   299  GLU299      0.1161
     30  CD        37.2920  -17.1640   23.5250 C.2   299  GLU299      0.3649
     31  OE1       36.9910  -18.0810   24.3890 O.co2 299  GLU299     -0.2457
     32  OE2       37.6080  -17.4070   22.3230 O.co2 299  GLU299     -0.2457
     33  N         38.1270  -15.7250   28.6600 N.am  300  ARG300     -0.1966
     34  CA        37.9810  -15.1490   30.0020 C.3   300  ARG300      0.1729
     35  C         39.3360  -14.8280   30.6400 C.2   300  ARG300      0.2616
     36  O         39.3530  -14.1790   31.7110 O.2   300  ARG300     -0.2715
     37  CB        37.1860  -16.0470   30.9480 C.3   300  ARG300      0.0348
     38  CG        36.2120  -17.0020   30.2920 C.3   300  ARG300      0.0492
     39  CD        35.9120  -18.1660   31.2220 C.3   300  ARG300      0.2205
     40  NE        34.5150  -18.5900   31.1370 N.pl3 300  ARG300     -0.0865
     41  CZ        34.0310  -19.7090   31.6330 C.cat 300  ARG300      0.5346
     42  NH1       34.8010  -20.4940   32.3750 N.pl3 300  ARG300      0.1354
     43  NH2       32.7820  -20.0840   31.3870 N.pl3 300  ARG300      0.1354
     44  N         40.4360  -15.2930   30.0330 N.am  301  LEU301     -0.1963
     45  CA        41.7310  -15.1460   30.6830 C.3   301  LEU301      0.1728
     46  C         42.1830  -13.6750   30.6850 C.2   301  LEU301      0.2616
     47  O         42.0870  -13.0130   29.6520 O.2   301  LEU301     -0.2715
     48  CB        42.7700  -16.0650   30.0370 C.3   301  LEU301      0.0311
     49  CG        42.5110  -17.5550   30.2390 C.3   301  LEU301      0.0022
     50  CD1       43.3280  -18.3680   29.2770 C.3   301  LEU301      0.0001
     51  CD2       42.7370  -17.9790   31.6690 C.3   301  LEU301      0.0001
     52  N         42.6670  -13.2270   31.8520 N.am  302  ALA302     -0.1977
     53  CA        43.0570  -11.8400   32.0230 C.3   302  ALA302      0.1597
     54  C         44.3400  -11.7550   32.8530 C.2   302  ALA302      0.2287
     55  O         44.5550  -12.5050   33.8030 O.2   302  ALA302     -0.2864
     56  CB        41.9700  -11.0610   32.7300 C.3   302  ALA302      0.0319
     57  N         40.5080   -2.0030   40.9740 N.3   492  ARG492     -0.1245
     58  CA        40.1710   -2.0070   39.5730 C.3   492  ARG492      0.1563
     59  C         39.6100   -3.3810   39.1430 C.2   492  ARG492      0.2260
     60  O         38.6020   -3.4790   38.4120 O.2   492  ARG492     -0.2867
     61  CB        41.3750   -1.6390   38.7100 C.3   492  ARG492      0.0307
     62  CG        41.0460   -1.4020   37.2460 C.3   492  ARG492      0.0489
     63  CD        42.2540   -1.0980   36.3800 C.3   492  ARG492      0.2205
     64  NE        41.7950   -0.5540   35.1040 N.pl3 492  ARG492     -0.0865
     65  CZ        42.6090    0.0720   34.2490 C.cat 492  ARG492      0.5346
     66  NH1       43.9350    0.0000   34.4320 N.pl3 492  ARG492      0.1354
     67  NH2       42.0950    0.8080   33.2490 N.pl3 492  ARG492      0.1354
     68  N         35.7210   -4.5730   38.0030 N.3   496  LYS496     -0.1245
     69  CA        35.3820   -5.2390   36.7430 C.3   496  LYS496      0.1561
     70  C         34.3890   -6.3970   36.9760 C.2   496  LYS496      0.2260
     71  O         33.4140   -6.5690   36.2500 O.2   496  LYS496     -0.2867
     72  CB        36.6590   -5.7820   36.0720 C.3   496  LYS496      0.0271
     73  CG        37.5310   -4.6790   35.5030 C.3   496  LYS496      0.0035
     74  CD        38.8150   -5.2310   34.9070 C.3   496  LYS496      0.0206
     75  CE        39.6150   -4.1390   34.2490 C.3   496  LYS496      0.1093
     76  NZ        40.9220   -4.6560   33.7770 N.3   496  LYS496     -0.1314
     77  N         30.4870   -7.0590   35.7060 N.3   500  SER500     -0.1217
     78  CA        30.0500   -8.2800   35.0370 C.3   500  SER500      0.1889
     79  C         28.8710   -8.9410   35.7760 C.2   500  SER500      0.2288
     80  O         27.8690   -9.3610   35.1120 O.2   500  SER500     -0.2866
     81  CB        31.2040   -9.2700   34.9390 C.3   500  SER500      0.2089
     82  OG        32.2510   -8.7950   34.0970 O.3   500  SER500     -0.2183
     83  N         35.6560    3.5360   32.7810 N.3   550  GLU550     -0.1245
     84  CA        35.2610    2.1050   32.6970 C.3   550  GLU550      0.1567
     85  C         34.2370    1.7480   33.7720 C.2   550  GLU550      0.2260
     86  O         33.4310    0.8150   33.5600 O.2   550  GLU550     -0.2867
     87  CB        36.5080    1.2340   32.6730 C.3   550  GLU550      0.0388
     88  CG        37.0990    0.8510   33.9840 C.3   550  GLU550      0.1160
     89  CD        38.5220    0.3060   33.9090 C.2   550  GLU550      0.3649
     90  OE1       39.2410    0.6740   32.9240 O.co2 550  GLU550     -0.2457
     91  OE2       38.9190   -0.4230   34.8540 O.co2 550  GLU550     -0.2457
@<TRIPOS>BOND
     1    32    30   ar
     2    30    29    1
     3    30    31   ar
     4    29    28    1
     5    28    25    1
     6    25    24    1
     7    25    26    1
     8    26    27    2
     9    26    33   am
    10    33    34    1
    11    50    49    1
    12    47    46    2
    13    34    35    1
    14    34    37    1
    15    44    35   am
    16    44    45    1
    17    48    49    1
    18    48    45    1
    19    49    51    1
    20    38    37    1
    21    38    39    1
    22    35    36    2
    23    45    46    1
    24    46    52   am
    25    40    39    1
    26    40    41    2
    27    43    41    1
    28    41    42    1
    29    52    53    1
    30     4     3    2
    31    53    56    1
    32    53    54    1
    33    87    84    1
    34    87    88    1
    35    84    83    1
    36    84    85    1
    37    54    55    2
    38    90    89   ar
    39     7     9   ar
    40     7     6   ar
    41     3     2    1
    42     3    13   am
    43     9    11   ar
    44    67    65    1
    45     2     5    1
    46     2     1    1
    47    86    85    2
    48    76    75    1
    49    89    88    1
    50    89    91   ar
    51     5     6    1
    52    82    81    1
    53    13    14    1
    54    14    17    1
    55    14    15    1
    56     6     8   ar
    57    75    74    1
    58    65    66    1
    59    65    64    2
    60    11    12    1
    61    11    10   ar
    62    18    17    1
    63    18    19    1
    64    74    73    1
    65    81    78    1
    66    15    16    2
    67    78    77    1
    68    78    79    1
    69    19    20    1
    70    64    63    1
    71    80    79    2
    72     8    10   ar
    73    73    72    1
    74    72    69    1
    75    71    70    2
    76    63    62    1
    77    20    21    2
    78    69    70    1
    79    69    68    1
    80    22    21    1
    81    62    61    1
    82    21    23    1
    83    60    59    2
    84    61    58    1
    85    59    58    1
    86    58    57    1
