@<TRIPOS>MOLECULE
tmp/6gszA07.pdb
 103 99 0 0 0
SMALL
GASTEIGER

@<TRIPOS>ATOM
      1  N         50.4480  -24.2720   42.8290 N.3   158  GLU158     -0.1245
      2  CA        51.8210  -24.0230   43.2240 C.3   158  GLU158      0.1567
      3  C         52.7080  -24.7790   42.2430 C.2   158  GLU158      0.2260
      4  O         52.6210  -26.0180   42.1820 O.2   158  GLU158     -0.2867
      5  CB        52.1160  -24.5080   44.6350 C.3   158  GLU158      0.0388
      6  CG        53.5210  -24.2710   45.0970 C.3   158  GLU158      0.1160
      7  CD        53.7100  -24.4960   46.6000 C.2   158  GLU158      0.3649
      8  OE1       52.7690  -24.9940   47.2700 O.co2 158  GLU158     -0.2457
      9  OE2       54.7710  -24.1430   47.1060 O.co2 158  GLU158     -0.2457
     10  N         60.6340  -23.5350   43.5720 N.3   165  ARG165     -0.1245
     11  CA        59.3280  -22.9120   43.5080 C.3   165  ARG165      0.1563
     12  C         59.3250  -21.8090   42.4450 C.2   165  ARG165      0.2260
     13  O         60.2300  -20.9890   42.4090 O.2   165  ARG165     -0.2867
     14  CB        58.8960  -22.3560   44.8690 C.3   165  ARG165      0.0307
     15  CG        57.3950  -22.0500   44.8860 C.3   165  ARG165      0.0489
     16  CD        56.9640  -21.3540   46.1430 C.3   165  ARG165      0.2205
     17  NE        55.5270  -21.4670   46.3310 N.pl3 165  ARG165     -0.0865
     18  CZ        54.6280  -20.6050   45.8260 C.cat 165  ARG165      0.5346
     19  NH1       55.0050  -19.6350   44.9770 N.pl3 165  ARG165      0.1354
     20  NH2       53.3650  -20.7140   46.2100 N.pl3 165  ARG165      0.1354
     21  N         53.1890  -14.1450   51.0430 N.3   311  ARG311     -0.1231
     22  CA        53.6440  -14.2230   52.3940 C.3   311  ARG311      0.1694
     23  C         54.4040  -12.9240   52.6690 C.2   311  ARG311      0.2592
     24  O         55.5540  -12.7740   52.2800 O.2   311  ARG311     -0.2718
     25  CB        54.5400  -15.4480   52.5850 C.3   311  ARG311      0.0321
     26  CG        53.9050  -16.7880   52.2130 C.3   311  ARG311      0.0489
     27  CD        54.9410  -17.8650   51.8940 C.3   311  ARG311      0.2205
     28  NE        55.6560  -18.3570   53.0750 N.pl3 311  ARG311     -0.0865
     29  CZ        56.9020  -18.0200   53.4290 C.cat 311  ARG311      0.5346
     30  NH1       57.5990  -17.1310   52.6990 N.pl3 311  ARG311      0.1354
     31  NH2       57.4370  -18.5870   54.5120 N.pl3 311  ARG311      0.1354
     32  N         53.7010  -11.9670   53.2700 N.am  312  VAL312     -0.1966
     33  CA        54.2160  -10.6090   53.3500 C.3   312  VAL312      0.1727
     34  C         55.1840  -10.4580   54.5240 C.2   312  VAL312      0.2616
     35  O         56.1580   -9.6820   54.4220 O.2   312  VAL312     -0.2715
     36  CB        53.0570   -9.5980   53.4020 C.3   312  VAL312      0.0290
     37  CG1       53.5080   -8.1820   53.6000 C.3   312  VAL312      0.0023
     38  CG2       52.2800   -9.6700   52.1120 C.3   312  VAL312      0.0023
     39  N         54.9290  -11.1590   55.6360 N.am  313  ALA313     -0.1963
     40  CA        55.7410  -11.0350   56.8370 C.3   313  ALA313      0.1728
     41  C         55.6340  -12.3060   57.6740 C.2   313  ALA313      0.2616
     42  O         54.7210  -13.0670   57.5330 O.2   313  ALA313     -0.2715
     43  CB        55.2900   -9.8350   57.6460 C.3   313  ALA313      0.0334
     44  N         56.5980  -12.4480   58.5690 N.am  314  GLU314     -0.1977
     45  CA        56.5680  -13.3380   59.6870 C.3   314  GLU314      0.1602
     46  C         56.0050  -12.5980   60.9040 C.2   314  GLU314      0.2287
     47  O         56.2530  -11.3770   61.0550 O.2   314  GLU314     -0.2864
     48  CB        58.0100  -13.7530   59.9860 C.3   314  GLU314      0.0415
     49  CG        58.0900  -14.8200   61.0240 C.3   314  GLU314      0.1163
     50  CD        59.4740  -15.3510   61.3650 C.2   314  GLU314      0.3649
     51  OE1       60.4190  -15.1210   60.5860 O.co2 314  GLU314     -0.2457
     52  OE2       59.5870  -16.0000   62.4170 O.co2 314  GLU314     -0.2457
     53  N         54.0130  -21.7410   59.9760 N.3   341  ARG341     -0.1245
     54  CA        55.1720  -22.4740   59.4560 C.3   341  ARG341      0.1563
     55  C         55.7920  -23.2160   60.6340 C.2   341  ARG341      0.2260
     56  O         56.0410  -22.6180   61.6880 O.2   341  ARG341     -0.2867
     57  CB        56.2250  -21.5250   58.8580 C.3   341  ARG341      0.0307
     58  CG        57.4740  -22.2520   58.3390 C.3   341  ARG341      0.0489
     59  CD        58.5830  -21.3380   57.8710 C.3   341  ARG341      0.2205
     60  NE        59.2710  -20.7250   58.9960 N.pl3 341  ARG341     -0.0865
     61  CZ        60.0430  -19.6270   58.9340 C.cat 341  ARG341      0.5346
     62  NH1       60.6470  -19.1750   60.0250 N.pl3 341  ARG341      0.1354
     63  NH2       60.2030  -18.9890   57.7830 N.pl3 341  ARG341      0.1354
     64  N         59.8680  -29.2260   57.5540 N.3   388  GLU388     -0.1231
     65  CA        59.3170  -27.8710   57.4880 C.3   388  GLU388      0.1699
     66  C         58.0040  -27.9530   56.7000 C.2   388  GLU388      0.2592
     67  O         57.9460  -28.5970   55.6420 O.2   388  GLU388     -0.2718
     68  CB        60.3120  -26.8780   56.8740 C.3   388  GLU388      0.0402
     69  CG        59.8400  -25.4220   56.9040 C.3   388  GLU388      0.1161
     70  CD        60.8330  -24.3750   56.4150 C.2   388  GLU388      0.3649
     71  OE1       61.9360  -24.3190   56.9660 O.co2 388  GLU388     -0.2457
     72  OE2       60.4960  -23.6130   55.4710 O.co2 388  GLU388     -0.2457
     73  N         56.9770  -27.2660   57.2060 N.am  389  TRP389     -0.1962
     74  CA        55.6640  -27.2940   56.5510 C.3   389  TRP389      0.1771
     75  C         54.9620  -25.9640   56.7460 C.2   389  TRP389      0.2619
     76  O         54.9890  -25.3670   57.8190 O.2   389  TRP389     -0.2715
     77  CB        54.8350  -28.4640   57.0800 C.3   389  TRP389      0.0590
     78  CG        53.3980  -28.5080   56.6460 C.ar  389  TRP389      0.0006
     79  CD1       52.9040  -29.0720   55.5070 C.ar  389  TRP389      0.0946
     80  CD2       52.2680  -27.9540   57.3330 C.ar  389  TRP389      0.0152
     81  NE1       51.5410  -28.9420   55.4550 N.ar  389  TRP389     -0.2442
     82  CE2       51.1270  -28.2370   56.5550 C.ar  389  TRP389      0.0810
     83  CE3       52.1160  -27.1910   58.5000 C.ar  389  TRP389      0.0012
     84  CZ2       49.8540  -27.8460   56.9550 C.ar  389  TRP389      0.0191
     85  CZ3       50.8540  -26.8000   58.8900 C.ar  389  TRP389      0.0001
     86  CH2       49.7410  -27.1260   58.1220 C.ar  389  TRP389      0.0015
     87  N         54.2330  -25.6230   55.6840 N.am  390  GLU390     -0.1977
     88  CA        53.1790  -24.6290   55.6880 C.3   390  GLU390      0.1602
     89  C         52.0520  -25.2150   54.8480 C.2   390  GLU390      0.2287
     90  O         52.3330  -25.9370   53.8720 O.2   390  GLU390     -0.2864
     91  CB        53.5850  -23.2950   55.0370 C.3   390  GLU390      0.0415
     92  CG        54.6330  -22.5240   55.7960 C.3   390  GLU390      0.1163
     93  CD        55.1350  -21.2430   55.1260 C.2   390  GLU390      0.3649
     94  OE1       54.3910  -20.5950   54.3230 O.co2 390  GLU390     -0.2457
     95  OE2       56.2770  -20.8830   55.4480 O.co2 390  GLU390     -0.2457
     96  N         52.7650  -16.8130   59.5880 N.3   420  ILE420     -0.1245
     97  CA        53.0090  -16.2030   58.3070 C.3   420  ILE420      0.1561
     98  C         51.7900  -15.3480   58.0000 C.2   420  ILE420      0.2260
     99  O         50.6940  -15.8320   57.9550 O.2   420  ILE420     -0.2867
    100  CB        53.2230  -17.2620   57.2200 C.3   420  ILE420      0.0252
    101  CG1       54.2730  -18.3120   57.6200 C.3   420  ILE420      0.0019
    102  CG2       53.5400  -16.6180   55.8730 C.3   420  ILE420      0.0019
    103  CD1       55.6600  -17.7830   57.8760 C.3   420  ILE420      0.0001
@<TRIPOS>BOND
     1     4     3    2
     2     3     2    1
     3    13    12    2
     4    12    11    1
     5     1     2    1
     6     2     5    1
     7    11    10    1
     8    11    14    1
     9     5     6    1
    10    14    15    1
    11    15    16    1
    12    19    18    1
    13     6     7    1
    14    18    20    1
    15    18    17    2
    16    16    17    1
    17     7     9   ar
    18     7     8   ar
    19    21    22    1
    20    27    26    1
    21    27    28    1
    22    38    36    1
    23    26    25    1
    24    24    23    2
    25    22    25    1
    26    22    23    1
    27    23    32   am
    28    30    29    1
    29    28    29    2
    30    32    33    1
    31    33    36    1
    32    33    34    1
    33    36    37    1
    34    29    31    1
    35    90    89    2
    36    94    93   ar
    37    35    34    2
    38    34    39   am
    39    89    88    1
    40    91    88    1
    41    91    92    1
    42    93    95   ar
    43    93    92    1
    44    81    79   ar
    45    81    82   ar
    46    72    70   ar
    47    79    78   ar
    48    39    40    1
    49    67    66    2
    50    87    88    1
    51    87    75   am
    52   102   100    1
    53    70    69    1
    54    70    71   ar
    55    74    75    1
    56    74    77    1
    57    74    73    1
    58    82    84   ar
    59    82    80   ar
    60    78    77    1
    61    78    80   ar
    62    66    73   am
    63    66    65    1
    64    75    76    2
    65    40    43    1
    66    40    41    1
    67    68    69    1
    68    68    65    1
    69    84    86   ar
    70   100   101    1
    71   100    97    1
    72    80    83   ar
    73    65    64    1
    74    42    41    2
    75   101   103    1
    76    41    44   am
    77    63    61    1
    78    59    58    1
    79    59    60    1
    80    99    98    2
    81    98    97    1
    82    86    85   ar
    83    97    96    1
    84    58    57    1
    85    83    85   ar
    86    44    45    1
    87    57    54    1
    88    61    60    2
    89    61    62    1
    90    54    53    1
    91    54    55    1
    92    45    48    1
    93    45    46    1
    94    48    49    1
    95    51    50   ar
    96    55    56    2
    97    46    47    2
    98    49    50    1
    99    50    52   ar
