@<TRIPOS>MOLECULE
tmp/6gszA12.pdb
 139 136 0 0 0
SMALL
GASTEIGER

@<TRIPOS>ATOM
      1  N         48.7670  -33.4860   41.7970 N.3   133  GLN133     -0.1245
      2  CA        50.0510  -33.1810   41.2580 C.3   133  GLN133      0.1566
      3  C         50.0310  -33.4810   39.7650 C.2   133  GLN133      0.2260
      4  O         49.6360  -34.5700   39.3720 O.2   133  GLN133     -0.2867
      5  CB        51.1530  -33.9720   41.9600 C.3   133  GLN133      0.0367
      6  CG        51.2760  -33.6780   43.4570 C.3   133  GLN133      0.0905
      7  CD        52.2340  -34.5860   44.1920 C.2   133  GLN133      0.2608
      8  OE1       52.8330  -34.2000   45.1740 O.2   133  GLN133     -0.2717
      9  NE2       52.3290  -35.8540   43.7930 N.am  133  GLN133     -0.0878
     10  N         50.4480  -24.2720   42.8290 N.3   158  GLU158     -0.1245
     11  CA        51.8210  -24.0230   43.2240 C.3   158  GLU158      0.1567
     12  C         52.7080  -24.7790   42.2430 C.2   158  GLU158      0.2260
     13  O         52.6210  -26.0180   42.1820 O.2   158  GLU158     -0.2867
     14  CB        52.1160  -24.5080   44.6350 C.3   158  GLU158      0.0388
     15  CG        53.5210  -24.2710   45.0970 C.3   158  GLU158      0.1160
     16  CD        53.7100  -24.4960   46.6000 C.2   158  GLU158      0.3649
     17  OE1       52.7690  -24.9940   47.2700 O.co2 158  GLU158     -0.2457
     18  OE2       54.7710  -24.1430   47.1060 O.co2 158  GLU158     -0.2457
     19  N         56.5490  -25.7720   40.4640 N.3   160  ARG160     -0.1245
     20  CA        57.9810  -25.9670   40.7090 C.3   160  ARG160      0.1563
     21  C         58.6350  -26.3420   39.3760 C.2   160  ARG160      0.2260
     22  O         58.0940  -27.1640   38.6120 O.2   160  ARG160     -0.2867
     23  CB        58.2360  -27.0900   41.7210 C.3   160  ARG160      0.0307
     24  CG        57.5000  -26.9370   43.0450 C.3   160  ARG160      0.0489
     25  CD        57.8300  -27.9550   44.1190 C.3   160  ARG160      0.2205
     26  NE        59.1430  -27.6340   44.6710 N.pl3 160  ARG160     -0.0865
     27  CZ        59.3860  -26.6870   45.5850 C.cat 160  ARG160      0.5346
     28  NH1       58.3920  -25.9690   46.0820 N.pl3 160  ARG160      0.1354
     29  NH2       60.6280  -26.4720   46.0000 N.pl3 160  ARG160      0.1354
     30  N         62.4680  -28.6750   40.9550 N.3   163  ASP163     -0.1239
     31  CA        62.3180  -28.5470   42.4240 C.3   163  ASP163      0.1674
     32  C         62.6300  -27.1460   42.9660 C.2   163  ASP163      0.2266
     33  O         62.9750  -27.0160   44.1420 O.2   163  ASP163     -0.2867
     34  CB        63.1350  -29.5860   43.2030 C.3   163  ASP163      0.1410
     35  CG        62.6410  -29.7600   44.6450 C.2   163  ASP163      0.3668
     36  OD1       61.3870  -29.5670   44.9270 O.co2 163  ASP163     -0.2456
     37  OD2       63.4880  -30.0690   45.4880 O.co2 163  ASP163     -0.2456
     38  N         51.0870  -35.7590   49.2030 N.3   257  PRO257     -0.2116
     39  CA        50.9220  -35.7140   50.6450 C.3   257  PRO257      0.1372
     40  C         49.7210  -34.9090   51.1420 C.2   257  PRO257      0.2244
     41  O         49.2820  -35.1070   52.2900 O.2   257  PRO257     -0.2868
     42  CB        52.2450  -35.1180   51.1450 C.3   257  PRO257      0.0268
     43  CG        52.7260  -34.2640   49.9550 C.3   257  PRO257      0.0207
     44  CD        52.2980  -35.0720   48.7410 C.3   257  PRO257      0.0892
     45  N         47.7040  -32.9100   55.9120 N.3   269  TYR269     -0.1241
     46  CA        48.9200  -33.2330   55.1700 C.3   269  TYR269      0.1605
     47  C         49.5420  -34.4740   55.8030 C.2   269  TYR269      0.2264
     48  O         49.8490  -34.4530   56.9920 O.2   269  TYR269     -0.2867
     49  CB        49.8690  -32.0370   55.2490 C.3   269  TYR269      0.0534
     50  CG        51.1130  -32.1340   54.4190 C.ar  269  TYR269     -0.0201
     51  CD1       52.2570  -32.7550   54.9030 C.ar  269  TYR269     -0.0009
     52  CD2       51.1760  -31.5860   53.1520 C.ar  269  TYR269     -0.0009
     53  CE1       53.4250  -32.8130   54.1510 C.ar  269  TYR269      0.0417
     54  CE2       52.3300  -31.6350   52.3940 C.ar  269  TYR269      0.0417
     55  CZ        53.4680  -32.2580   52.8840 C.ar  269  TYR269      0.1957
     56  OH        54.5870  -32.3230   52.1110 O.3   269  TYR269     -0.2866
     57  N         54.9330  -37.9930   50.7200 N.3   274  GLU274     -0.1231
     58  CA        55.7660  -37.1800   49.8690 C.3   274  GLU274      0.1699
     59  C         56.4870  -38.0750   48.8700 C.2   274  GLU274      0.2592
     60  O         57.0000  -39.1420   49.2430 O.2   274  GLU274     -0.2718
     61  CB        56.7890  -36.3930   50.6910 C.3   274  GLU274      0.0402
     62  CG        56.1670  -35.2530   51.4720 C.3   274  GLU274      0.1161
     63  CD        57.0230  -34.6180   52.5620 C.2   274  GLU274      0.3649
     64  OE1       58.1640  -35.0790   52.8060 O.co2 274  GLU274     -0.2457
     65  OE2       56.5180  -33.7060   53.2240 O.co2 274  GLU274     -0.2457
     66  N         56.5310  -37.6430   47.6180 N.am  275  GLN275     -0.1966
     67  CA        57.2820  -38.3150   46.5530 C.3   275  GLN275      0.1733
     68  C         58.4760  -37.4520   46.1510 C.2   275  GLN275      0.2616
     69  O         58.3820  -36.6130   45.2620 O.2   275  GLN275     -0.2715
     70  CB        56.3620  -38.5710   45.3650 C.3   275  GLN275      0.0408
     71  CG        55.2030  -39.5260   45.6800 C.3   275  GLN275      0.0908
     72  CD        54.3380  -39.6920   44.4490 C.2   275  GLN275      0.2608
     73  OE1       54.8400  -40.1750   43.4550 O.2   275  GLN275     -0.2717
     74  NE2       53.0870  -39.2220   44.4840 N.am  275  GLN275     -0.0878
     75  N         59.5880  -37.6190   46.8550 N.am  276  LYS276     -0.1963
     76  CA        60.7380  -36.7710   46.6350 C.3   276  LYS276      0.1728
     77  C         61.1990  -36.9060   45.1710 C.2   276  LYS276      0.2617
     78  O         61.2650  -37.9900   44.6230 O.2   276  LYS276     -0.2715
     79  CB        61.8490  -37.0740   47.6440 C.3   276  LYS276      0.0311
     80  CG        62.9970  -36.0780   47.5420 C.3   276  LYS276      0.0038
     81  CD        63.8190  -35.8690   48.7960 C.3   276  LYS276      0.0206
     82  CE        64.6400  -34.5910   48.6940 C.3   276  LYS276      0.1093
     83  NZ        65.6740  -34.4710   49.7550 N.3   276  LYS276     -0.1314
     84  N         61.4650  -35.7740   44.5260 N.am  277  GLY277     -0.1940
     85  CA        61.9480  -35.7420   43.1580 C.3   277  GLY277      0.2014
     86  C         60.8540  -35.6070   42.1010 C.2   277  GLY277      0.2638
     87  O         61.1710  -35.6070   40.9230 O.2   277  GLY277     -0.2714
     88  N         59.5730  -35.4920   42.4870 N.am  278  TRP278     -0.1973
     89  CA        58.5200  -35.4790   41.4890 C.3   278  TRP278      0.1640
     90  C         58.6030  -34.2810   40.5410 C.2   278  TRP278      0.2290
     91  O         58.0070  -34.3360   39.4660 O.2   278  TRP278     -0.2864
     92  CB        57.1450  -35.6100   42.1550 C.3   278  TRP278      0.0576
     93  CG        56.6720  -34.3780   42.8510 C.ar  278  TRP278      0.0006
     94  CD1       56.9550  -34.0060   44.1330 C.ar  278  TRP278      0.0946
     95  CD2       55.8010  -33.3780   42.3210 C.ar  278  TRP278      0.0152
     96  NE1       56.3320  -32.8220   44.4360 N.ar  278  TRP278     -0.2442
     97  CE2       55.5970  -32.4400   43.3520 C.ar  278  TRP278      0.0810
     98  CE3       55.1360  -33.2100   41.1100 C.ar  278  TRP278      0.0012
     99  CZ2       54.7720  -31.3350   43.1980 C.ar  278  TRP278      0.0191
    100  CZ3       54.2750  -32.1410   40.9770 C.ar  278  TRP278      0.0001
    101  CH2       54.1300  -31.2000   41.9900 C.ar  278  TRP278      0.0015
    102  N         59.8680  -29.2260   57.5540 N.3   388  GLU388     -0.1231
    103  CA        59.3170  -27.8710   57.4880 C.3   388  GLU388      0.1699
    104  C         58.0040  -27.9530   56.7000 C.2   388  GLU388      0.2592
    105  O         57.9460  -28.5970   55.6420 O.2   388  GLU388     -0.2718
    106  CB        60.3120  -26.8780   56.8740 C.3   388  GLU388      0.0402
    107  CG        59.8400  -25.4220   56.9040 C.3   388  GLU388      0.1161
    108  CD        60.8330  -24.3750   56.4150 C.2   388  GLU388      0.3649
    109  OE1       61.9360  -24.3190   56.9660 O.co2 388  GLU388     -0.2457
    110  OE2       60.4960  -23.6130   55.4710 O.co2 388  GLU388     -0.2457
    111  N         56.9770  -27.2660   57.2060 N.am  389  TRP389     -0.1962
    112  CA        55.6640  -27.2940   56.5510 C.3   389  TRP389      0.1771
    113  C         54.9620  -25.9640   56.7460 C.2   389  TRP389      0.2619
    114  O         54.9890  -25.3670   57.8190 O.2   389  TRP389     -0.2715
    115  CB        54.8350  -28.4640   57.0800 C.3   389  TRP389      0.0590
    116  CG        53.3980  -28.5080   56.6460 C.ar  389  TRP389      0.0006
    117  CD1       52.9040  -29.0720   55.5070 C.ar  389  TRP389      0.0946
    118  CD2       52.2680  -27.9540   57.3330 C.ar  389  TRP389      0.0152
    119  NE1       51.5410  -28.9420   55.4550 N.ar  389  TRP389     -0.2442
    120  CE2       51.1270  -28.2370   56.5550 C.ar  389  TRP389      0.0810
    121  CE3       52.1160  -27.1910   58.5000 C.ar  389  TRP389      0.0012
    122  CZ2       49.8540  -27.8460   56.9550 C.ar  389  TRP389      0.0191
    123  CZ3       50.8540  -26.8000   58.8900 C.ar  389  TRP389      0.0001
    124  CH2       49.7410  -27.1260   58.1220 C.ar  389  TRP389      0.0015
    125  N         54.2330  -25.6230   55.6840 N.am  390  GLU390     -0.1977
    126  CA        53.1790  -24.6290   55.6880 C.3   390  GLU390      0.1602
    127  C         52.0520  -25.2150   54.8480 C.2   390  GLU390      0.2287
    128  O         52.3330  -25.9370   53.8720 O.2   390  GLU390     -0.2864
    129  CB        53.5850  -23.2950   55.0370 C.3   390  GLU390      0.0415
    130  CG        54.6330  -22.5240   55.7960 C.3   390  GLU390      0.1163
    131  CD        55.1350  -21.2430   55.1260 C.2   390  GLU390      0.3649
    132  OE1       54.3910  -20.5950   54.3230 O.co2 390  GLU390     -0.2457
    133  OE2       56.2770  -20.8830   55.4480 O.co2 390  GLU390     -0.2457
    134  N         49.0610  -25.2090   51.9690 N.3   392  SER392     -0.1217
    135  CA        49.1230  -24.7360   50.5880 C.3   392  SER392      0.1889
    136  C         47.8640  -24.0300   50.1120 C.2   392  SER392      0.2288
    137  O         47.9680  -23.0070   49.4030 O.2   392  SER392     -0.2866
    138  CB        49.4040  -25.9030   49.6510 C.3   392  SER392      0.2089
    139  OG        50.7160  -26.4020   49.8340 O.3   392  SER392     -0.2183
@<TRIPOS>BOND
     1    22    21    2
     2     4     3    2
     3    21    20    1
     4    91    90    2
     5     3     2    1
     6    19    20    1
     7    90    89    1
     8    20    23    1
     9    87    86    2
    10    30    31    1
    11   100    98   ar
    12   100   101   ar
    13    98    95   ar
    14     2     1    1
    15     2     5    1
    16    89    92    1
    17    89    88    1
    18    23    24    1
    19     5     6    1
    20   101    99   ar
    21    86    88   am
    22    86    85    1
    23    92    93    1
    24    13    12    2
    25    12    11    1
    26    95    93   ar
    27    95    97   ar
    28    31    32    1
    29    31    34    1
    30    10    11    1
    31    93    94   ar
    32    32    33    2
    33    24    25    1
    34    85    84    1
    35    99    97   ar
    36    34    35    1
    37    11    14    1
    38    97    96   ar
    39    73    72    2
    40     6     7    1
    41     9     7   am
    42    25    26    1
    43    94    96   ar
    44     7     8    2
    45    72    74   am
    46    72    71    1
    47    84    77   am
    48    78    77    2
    49    14    15    1
    50    35    36   ar
    51    35    37   ar
    52    26    27    2
    53    15    16    1
    54    77    76    1
    55    69    68    2
    56    70    71    1
    57    70    67    1
    58    27    29    1
    59    27    28    1
    60    68    67    1
    61    68    75   am
    62    67    66    1
    63    16    18   ar
    64    16    17   ar
    65    76    75    1
    66    76    79    1
    67    80    79    1
    68    80    81    1
    69    66    59   am
    70    82    81    1
    71    82    83    1
    72    44    38    1
    73    44    43    1
    74    59    60    2
    75    59    58    1
    76    38    39    1
    77   137   136    2
    78   138   139    1
    79   138   135    1
    80    58    61    1
    81    58    57    1
    82    43    42    1
    83   136   135    1
    84   135   134    1
    85    39    40    1
    86    39    42    1
    87    61    62    1
    88    40    41    2
    89    62    63    1
    90    56    55    1
    91    54    55   ar
    92    54    52   ar
    93    63    64   ar
    94    63    65   ar
    95    55    53   ar
    96    52    50   ar
    97   128   127    2
    98    53    51   ar
    99   132   131   ar
   100    50    51   ar
   101    50    49    1
   102   127   126    1
   103   129   126    1
   104   129   130    1
   105   131   133   ar
   106   131   130    1
   107    46    49    1
   108    46    47    1
   109    46    45    1
   110   119   117   ar
   111   119   120   ar
   112   110   108   ar
   113   117   116   ar
   114   105   104    2
   115   125   126    1
   116   125   113   am
   117    47    48    2
   118   108   107    1
   119   108   109   ar
   120   112   113    1
   121   112   115    1
   122   112   111    1
   123   120   122   ar
   124   120   118   ar
   125   116   115    1
   126   116   118   ar
   127   104   111   am
   128   104   103    1
   129   113   114    2
   130   106   107    1
   131   106   103    1
   132   122   124   ar
   133   118   121   ar
   134   103   102    1
   135   124   123   ar
   136   121   123   ar
