@<TRIPOS>MOLECULE
tmp/6gszA13.pdb
 142 140 0 0 0
SMALL
GASTEIGER

@<TRIPOS>ATOM
      1  N         28.1300  -19.4180   53.8610 N.3   215  TYR215     -0.1241
      2  CA        27.6970  -19.7190   55.1940 C.3   215  TYR215      0.1605
      3  C         26.4840  -20.6580   55.1340 C.2   215  TYR215      0.2264
      4  O         25.9910  -21.0100   54.0570 O.2   215  TYR215     -0.2867
      5  CB        27.4140  -18.4210   55.9660 C.3   215  TYR215      0.0534
      6  CG        26.6480  -17.3640   55.2260 C.ar  215  TYR215     -0.0201
      7  CD1       25.2730  -17.3910   55.1230 C.ar  215  TYR215     -0.0009
      8  CD2       27.2990  -16.2790   54.6870 C.ar  215  TYR215     -0.0009
      9  CE1       24.5650  -16.4070   54.4450 C.ar  215  TYR215      0.0417
     10  CE2       26.6160  -15.3100   53.9790 C.ar  215  TYR215      0.0417
     11  CZ        25.2400  -15.3390   53.9020 C.ar  215  TYR215      0.1957
     12  OH        24.5710  -14.3480   53.2320 O.3   215  TYR215     -0.2866
     13  N         34.6190   -9.3590   53.9910 N.3   460  ASP460     -0.1239
     14  CA        34.0330   -8.9610   55.2270 C.3   460  ASP460      0.1674
     15  C         34.8620   -9.4160   56.4310 C.2   460  ASP460      0.2266
     16  O         35.0510   -8.6890   57.3990 O.2   460  ASP460     -0.2867
     17  CB        32.6030   -9.4630   55.3990 C.3   460  ASP460      0.1410
     18  CG        32.4140  -10.9830   55.3880 C.2   460  ASP460      0.3668
     19  OD1       33.0930  -11.6850   54.6000 O.co2 460  ASP460     -0.2456
     20  OD2       31.5540  -11.4290   56.1930 O.co2 460  ASP460     -0.2456
     21  N         35.7610  -17.0550   59.6560 N.3   464  ARG464     -0.1245
     22  CA        34.6270  -17.9470   59.6850 C.3   464  ARG464      0.1563
     23  C         34.3000  -18.4310   58.2650 C.2   464  ARG464      0.2260
     24  O         35.0630  -18.2550   57.3260 O.2   464  ARG464     -0.2867
     25  CB        33.4310  -17.2990   60.3960 C.3   464  ARG464      0.0307
     26  CG        32.7750  -16.1420   59.6490 C.3   464  ARG464      0.0489
     27  CD        31.7390  -15.4650   60.5190 C.3   464  ARG464      0.2205
     28  NE        31.0900  -14.3590   59.8470 N.pl3 464  ARG464     -0.0865
     29  CZ        30.6950  -13.2280   60.4310 C.cat 464  ARG464      0.5346
     30  NH1       30.7320  -13.1420   61.7500 N.pl3 464  ARG464      0.1354
     31  NH2       30.2830  -12.2130   59.6680 N.pl3 464  ARG464      0.1354
     32  N         32.7220  -17.5690   55.7560 N.3   466  GLU466     -0.1245
     33  CA        32.2010  -16.4320   54.9680 C.3   466  GLU466      0.1567
     34  C         33.3490  -15.9470   54.0850 C.2   466  GLU466      0.2260
     35  O         33.6400  -16.5600   53.1060 O.2   466  GLU466     -0.2867
     36  CB        31.5480  -15.4120   55.9160 C.3   466  GLU466      0.0388
     37  CG        30.6720  -14.3860   55.2170 C.3   466  GLU466      0.1160
     38  CD        29.6040  -13.7680   56.0920 C.2   466  GLU466      0.3649
     39  OE1       29.6030  -14.0370   57.2980 O.co2 466  GLU466     -0.2457
     40  OE2       28.7710  -13.0310   55.5620 O.co2 466  GLU466     -0.2457
     41  N         31.7480   -8.6000   50.3880 N.3   470  TRP470     -0.1241
     42  CA        30.5590   -7.8280   50.7710 C.3   470  TRP470      0.1605
     43  C         30.6640   -6.3510   50.3300 C.2   470  TRP470      0.2264
     44  O         31.6060   -5.6190   50.6560 O.2   470  TRP470     -0.2867
     45  CB        30.3150   -7.9550   52.2630 C.3   470  TRP470      0.0550
     46  CG        29.5880   -9.2170   52.6390 C.ar  470  TRP470      0.0003
     47  CD1       30.1220  -10.3730   53.1270 C.ar  470  TRP470      0.0946
     48  CD2       28.1710   -9.4110   52.5960 C.ar  470  TRP470      0.0152
     49  NE1       29.1220  -11.2670   53.3890 N.ar  470  TRP470     -0.2442
     50  CE2       27.9130  -10.7180   53.0550 C.ar  470  TRP470      0.0810
     51  CE3       27.1120   -8.6070   52.2050 C.ar  470  TRP470      0.0012
     52  CZ2       26.6200  -11.2150   53.1460 C.ar  470  TRP470      0.0191
     53  CZ3       25.8310   -9.0900   52.2870 C.ar  470  TRP470      0.0001
     54  CH2       25.5940  -10.4020   52.7410 C.ar  470  TRP470      0.0015
     55  N         30.4290   -3.1690   52.9760 N.3   473  ASP473     -0.1239
     56  CA        31.5610   -2.9980   53.8530 C.3   473  ASP473      0.1674
     57  C         32.6700   -2.2020   53.1310 C.2   473  ASP473      0.2266
     58  O         33.2700   -1.3030   53.7220 O.2   473  ASP473     -0.2867
     59  CB        32.1110   -4.3450   54.3420 C.3   473  ASP473      0.1410
     60  CG        31.1200   -5.2510   55.0470 C.2   473  ASP473      0.3668
     61  OD1       29.9990   -5.4180   54.5030 O.co2 473  ASP473     -0.2456
     62  OD2       31.4690   -5.7470   56.1460 O.co2 473  ASP473     -0.2456
     63  N         24.9510   -1.2130   50.1230 N.3   527  TRP527     -0.1241
     64  CA        25.5020   -2.4170   49.4850 C.3   527  TRP527      0.1605
     65  C         25.4220   -2.2330   47.9670 C.2   527  TRP527      0.2264
     66  O         26.4710   -2.1380   47.3380 O.2   527  TRP527     -0.2867
     67  CB        24.7300   -3.6380   50.0100 C.3   527  TRP527      0.0550
     68  CG        25.2540   -4.1170   51.3320 C.ar  527  TRP527      0.0003
     69  CD1       26.0020   -5.2380   51.5480 C.ar  527  TRP527      0.0946
     70  CD2       25.1020   -3.5110   52.6340 C.ar  527  TRP527      0.0152
     71  NE1       26.3360   -5.3470   52.8650 N.ar  527  TRP527     -0.2442
     72  CE2       25.8170   -4.2890   53.5570 C.ar  527  TRP527      0.0810
     73  CE3       24.4500   -2.3670   53.1170 C.ar  527  TRP527      0.0012
     74  CZ2       25.8890   -3.9910   54.9170 C.ar  527  TRP527      0.0191
     75  CZ3       24.5360   -2.0610   54.4620 C.ar  527  TRP527      0.0001
     76  CH2       25.2380   -2.8620   55.3580 C.ar  527  TRP527      0.0015
     77  N         19.3850   -3.7830   54.1900 N.3   578  TRP578     -0.1241
     78  CA        20.3750   -3.8790   55.2610 C.3   578  TRP578      0.1605
     79  C         20.4100   -2.5950   56.1030 C.2   578  TRP578      0.2264
     80  O         20.3960   -2.6280   57.3640 O.2   578  TRP578     -0.2867
     81  CB        21.7820   -4.1390   54.6870 C.3   578  TRP578      0.0550
     82  CG        21.9080   -5.3560   53.8160 C.ar  578  TRP578      0.0003
     83  CD1       22.0380   -5.4040   52.4520 C.ar  578  TRP578      0.0946
     84  CD2       21.8830   -6.7210   54.2630 C.ar  578  TRP578      0.0152
     85  NE1       22.0680   -6.7090   52.0330 N.ar  578  TRP578     -0.2442
     86  CE2       22.0190   -7.5190   53.1170 C.ar  578  TRP578      0.0810
     87  CE3       21.7870   -7.3290   55.5120 C.ar  578  TRP578      0.0012
     88  CZ2       22.0560   -8.9100   53.1920 C.ar  578  TRP578      0.0191
     89  CZ3       21.8140   -8.7030   55.5850 C.ar  578  TRP578      0.0001
     90  CH2       21.9590   -9.4750   54.4390 C.ar  578  TRP578      0.0015
     91  N         22.9310   -1.4060   59.4870 N.3   581  TRP581     -0.1241
     92  CA        23.2790   -2.7130   60.0140 C.3   581  TRP581      0.1605
     93  C         24.1710   -2.5750   61.2520 C.2   581  TRP581      0.2264
     94  O         25.1190   -1.8240   61.2350 O.2   581  TRP581     -0.2867
     95  CB        23.9870   -3.4500   58.8700 C.3   581  TRP581      0.0550
     96  CG        24.3540   -4.8820   59.1110 C.ar  581  TRP581      0.0003
     97  CD1       25.6220   -5.3660   59.3310 C.ar  581  TRP581      0.0946
     98  CD2       23.4680   -6.0090   59.1360 C.ar  581  TRP581      0.0152
     99  NE1       25.5680   -6.7280   59.4820 N.ar  581  TRP581     -0.2442
    100  CE2       24.2730   -7.1430   59.3600 C.ar  581  TRP581      0.0810
    101  CE3       22.0850   -6.1720   58.9500 C.ar  581  TRP581      0.0012
    102  CZ2       23.7370   -8.4340   59.3990 C.ar  581  TRP581      0.0191
    103  CZ3       21.5560   -7.4490   59.0400 C.ar  581  TRP581      0.0001
    104  CH2       22.3780   -8.5550   59.2410 C.ar  581  TRP581      0.0015
    105  N         26.4660    0.4150   60.2270 N.3   696  PHE696     -0.1241
    106  CA        27.3090    0.4900   59.0390 C.3   696  PHE696      0.1605
    107  C         26.9520    1.7220   58.2030 C.2   696  PHE696      0.2264
    108  O         27.7820    2.1730   57.4200 O.2   696  PHE696     -0.2867
    109  CB        27.2310   -0.8080   58.2110 C.3   696  PHE696      0.0534
    110  CG        28.0610   -1.9910   58.6530 C.ar  696  PHE696     -0.0203
    111  CD1       28.4240   -2.1720   59.9820 C.ar  696  PHE696     -0.0042
    112  CD2       28.4600   -2.9320   57.7310 C.ar  696  PHE696     -0.0042
    113  CE1       29.1580   -3.2700   60.3960 C.ar  696  PHE696     -0.0003
    114  CE2       29.1760   -4.0500   58.1420 C.ar  696  PHE696     -0.0003
    115  CZ        29.5450   -4.2120   59.4560 C.ar  696  PHE696     -0.0000
    116  N         33.5970   -6.7920   64.1620 N.3   740  GLU740     -0.1245
    117  CA        32.3470   -6.6710   63.4190 C.3   740  GLU740      0.1567
    118  C         31.3040   -5.8750   64.2000 C.2   740  GLU740      0.2260
    119  O         30.6600   -4.9840   63.6370 O.2   740  GLU740     -0.2867
    120  CB        31.8520   -8.0760   63.1180 C.3   740  GLU740      0.0388
    121  CG        30.5360   -8.1870   62.3770 C.3   740  GLU740      0.1160
    122  CD        30.1260   -9.6090   62.0280 C.2   740  GLU740      0.3649
    123  OE1       30.4460  -10.5290   62.8220 O.co2 740  GLU740     -0.2457
    124  OE2       29.4620   -9.7560   60.9600 O.co2 740  GLU740     -0.2457
    125  N         26.4170  -14.5580   64.4360 N.3   756  MET756     -0.1245
    126  CA        27.2780  -13.7690   63.5420 C.3   756  MET756      0.1570
    127  C         28.1240  -12.8370   64.4170 C.2   756  MET756      0.2261
    128  O         27.6500  -11.7680   64.8190 O.2   756  MET756     -0.2867
    129  CB        26.4320  -12.9660   62.5610 C.3   756  MET756      0.0387
    130  CG        27.1950  -12.1820   61.5430 C.3   756  MET756      0.0595
    131  SD        26.1970  -10.8960   60.7710 S.3   756  MET756     -0.1393
    132  CE        26.2390   -9.6430   62.0400 C.3   756  MET756      0.0692
    133  N         36.7650   -7.3550   61.2040 N.3   761  HIS761     -0.1241
    134  CA        35.9930   -6.6830   60.1330 C.3   761  HIS761      0.1621
    135  C         36.4750   -5.2390   60.0560 C.2   761  HIS761      0.2264
    136  O         36.5660   -4.6290   61.1160 O.2   761  HIS761     -0.2867
    137  CB        34.5000   -6.6370   60.5100 C.3   761  HIS761      0.0745
    138  CG        33.5950   -7.6990   60.0040 C.ar  761  HIS761      0.0817
    139  ND1       33.6800   -9.0130   60.4330 N.ar  761  HIS761     -0.2268
    140  CD2       32.5210   -7.6200   59.1790 C.ar  761  HIS761      0.1154
    141  CE1       32.7170   -9.7030   59.8490 C.ar  761  HIS761      0.1986
    142  NE2       31.9840   -8.8750   59.0460 N.ar  761  HIS761     -0.2212
@<TRIPOS>BOND
     1    66    65    2
     2    65    64    1
     3    64    67    1
     4    64    63    1
     5    67    68    1
     6    43    44    2
     7    43    42    1
     8    41    42    1
     9    42    45    1
    10    68    69   ar
    11    68    70   ar
    12    69    71   ar
    13    85    83   ar
    14    85    86   ar
    15    51    53   ar
    16    51    48   ar
    17    45    46    1
    18    53    54   ar
    19    83    82   ar
    20    48    46   ar
    21    48    50   ar
    22    70    73   ar
    23    70    72   ar
    24    46    47   ar
    25    54    52   ar
    26    71    72   ar
    27    55    56    1
    28    50    52   ar
    29    50    49   ar
    30    35    34    2
    31    86    88   ar
    32    86    84   ar
    33    73    75   ar
    34    47    49   ar
    35    57    58    2
    36    57    56    1
    37    88    90   ar
    38    12    11    1
    39    72    74   ar
    40    82    84   ar
    41    82    81    1
    42    56    59    1
    43     1     2    1
    44    11    10   ar
    45    11     9   ar
    46    10     8   ar
    47    13    14    1
    48     4     3    2
    49    34    33    1
    50    77    78    1
    51    84    87   ar
    52    59    60    1
    53    90    89   ar
    54     9     7   ar
    55    75    76   ar
    56    61    60   ar
    57    19    18   ar
    58    81    78    1
    59     8     6   ar
    60    74    76   ar
    61    33    32    1
    62    33    36    1
    63    60    62   ar
    64     7     6   ar
    65     3     2    1
    66     2     5    1
    67    37    36    1
    68    37    38    1
    69     6     5    1
    70    14    17    1
    71    14    15    1
    72    78    79    1
    73    18    17    1
    74    18    20   ar
    75    87    89   ar
    76    40    38   ar
    77    38    39   ar
    78    79    80    2
    79    15    16    2
    80    24    23    2
    81   108   107    2
    82   112   114   ar
    83   112   110   ar
    84   114   115   ar
    85   107   106    1
    86   109   110    1
    87   109   106    1
    88    23    22    1
    89   110   111   ar
    90    95    96    1
    91    95    92    1
    92   101   103   ar
    93   101    98   ar
    94   106   105    1
    95   103   104   ar
    96   142   140   ar
    97   142   141   ar
    98    96    98   ar
    99    96    97   ar
   100    98   100   ar
   101   140   138   ar
   102   104   102   ar
   103    97    99   ar
   104   100   102   ar
   105   100    99   ar
   106   115   113   ar
   107    91    92    1
   108    26    25    1
   109    26    27    1
   110    21    22    1
   111    31    29    1
   112    22    25    1
   113    28    29    2
   114    28    27    1
   115   141   139   ar
   116   111   113   ar
   117   138   139   ar
   118   138   137    1
   119    92    93    1
   120   135   134    1
   121   135   136    2
   122   134   137    1
   123   134   133    1
   124    29    30    1
   125   131   130    1
   126   131   132    1
   127   124   122   ar
   128    94    93    2
   129   130   129    1
   130   122   121    1
   131   122   123   ar
   132   121   120    1
   133   129   126    1
   134   120   117    1
   135   117   116    1
   136   117   118    1
   137   126   127    1
   138   126   125    1
   139   119   118    2
   140   127   128    2
