@<TRIPOS>MOLECULE
tmp/6gszA02.pdb
 93 91 0 0 0
SMALL
GASTEIGER

@<TRIPOS>ATOM
      1  N         60.6340  -23.5350   43.5720 N.3   165  ARG165     -0.1231
      2  CA        59.3280  -22.9120   43.5080 C.3   165  ARG165      0.1694
      3  C         59.3250  -21.8090   42.4450 C.2   165  ARG165      0.2592
      4  O         60.2300  -20.9890   42.4090 O.2   165  ARG165     -0.2718
      5  CB        58.8960  -22.3560   44.8690 C.3   165  ARG165      0.0321
      6  CG        57.3950  -22.0500   44.8860 C.3   165  ARG165      0.0489
      7  CD        56.9640  -21.3540   46.1430 C.3   165  ARG165      0.2205
      8  NE        55.5270  -21.4670   46.3310 N.pl3 165  ARG165     -0.0865
      9  CZ        54.6280  -20.6050   45.8260 C.cat 165  ARG165      0.5346
     10  NH1       55.0050  -19.6350   44.9770 N.pl3 165  ARG165      0.1354
     11  NH2       53.3650  -20.7140   46.2100 N.pl3 165  ARG165      0.1354
     12  N         58.2700  -21.7530   41.6350 N.am  166  VAL166     -0.1966
     13  CA        58.0870  -20.6920   40.6590 C.3   166  VAL166      0.1727
     14  C         57.3710  -19.5300   41.3340 C.2   166  VAL166      0.2617
     15  O         56.2400  -19.6430   41.7050 O.2   166  VAL166     -0.2715
     16  CB        57.3110  -21.1270   39.4160 C.3   166  VAL166      0.0290
     17  CG1       57.0770  -19.9810   38.4530 C.3   166  VAL166      0.0023
     18  CG2       57.9970  -22.3200   38.7510 C.3   166  VAL166      0.0023
     19  N         58.0980  -18.4130   41.4410 N.am  167  GLY167     -0.1940
     20  CA        57.5700  -17.2040   42.0330 C.3   167  GLY167      0.2014
     21  C         57.3180  -17.3180   43.5200 C.2   167  GLY167      0.2639
     22  O         57.5920  -18.3400   44.1470 O.2   167  GLY167     -0.2714
     23  N         56.7000  -16.2750   44.0600 N.am  168  ASP168     -0.1957
     24  CA        56.3870  -16.1580   45.4900 C.3   168  ASP168      0.1840
     25  C         54.9130  -15.8030   45.7230 C.2   168  ASP168      0.2622
     26  O         54.5320  -15.2710   46.7820 O.2   168  ASP168     -0.2715
     27  CB        57.3030  -15.1550   46.1660 C.3   168  ASP168      0.1450
     28  CG        57.2160  -13.7510   45.6040 C.2   168  ASP168      0.3671
     29  OD1       56.3970  -13.5310   44.7050 O.co2 168  ASP168     -0.2456
     30  OD2       57.9810  -12.8980   46.0880 O.co2 168  ASP168     -0.2456
     31  N         54.0640  -16.0670   44.7260 N.am  169  HIS169     -0.1973
     32  CA        52.6470  -15.8720   44.8850 C.3   169  HIS169      0.1656
     33  C         52.0290  -17.0710   45.6040 C.2   169  HIS169      0.2291
     34  O         52.3120  -18.2510   45.2360 O.2   169  HIS169     -0.2864
     35  CB        51.9150  -15.6980   43.5490 C.3   169  HIS169      0.0771
     36  CG        52.4230  -14.6330   42.6400 C.ar  169  HIS169      0.0820
     37  ND1       51.6910  -14.2710   41.5360 N.ar  169  HIS169     -0.2267
     38  CD2       53.5910  -13.9490   42.5910 C.ar  169  HIS169      0.1154
     39  CE1       52.3690  -13.3320   40.8690 C.ar  169  HIS169      0.1986
     40  NE2       53.5450  -13.1350   41.4780 N.ar  169  HIS169     -0.2212
     41  N         52.1820  -14.6250   35.1910 N.3   186  THR186     -0.1203
     42  CA        53.3600  -14.6890   34.3680 C.3   186  THR186      0.1994
     43  C         54.6030  -14.6410   35.2590 C.2   186  THR186      0.2618
     44  O         54.7230  -13.7590   36.1430 O.2   186  THR186     -0.2717
     45  CB        53.3970  -13.5220   33.3750 C.3   186  THR186      0.1784
     46  OG1       52.2230  -13.5470   32.5690 O.3   186  THR186     -0.2211
     47  CG2       54.6220  -13.6190   32.4820 C.3   186  THR186      0.0376
     48  N         55.5560  -15.5560   35.0140 N.am  187  TYR187     -0.1961
     49  CA        56.7830  -15.6160   35.7860 C.3   187  TYR187      0.1771
     50  C         57.9820  -15.6730   34.8380 C.2   187  TYR187      0.2620
     51  O         57.9560  -16.3690   33.8060 O.2   187  TYR187     -0.2715
     52  CB        56.7960  -16.8710   36.6530 C.3   187  TYR187      0.0574
     53  CG        55.6450  -16.9400   37.6230 C.ar  187  TYR187     -0.0198
     54  CD1       55.6780  -16.2590   38.8390 C.ar  187  TYR187     -0.0009
     55  CD2       54.5100  -17.6930   37.3440 C.ar  187  TYR187     -0.0009
     56  CE1       54.6140  -16.3000   39.7340 C.ar  187  TYR187      0.0417
     57  CE2       53.4690  -17.7880   38.2580 C.ar  187  TYR187      0.0417
     58  CZ        53.5140  -17.1240   39.4760 C.ar  187  TYR187      0.1957
     59  OH        52.5070  -17.2440   40.3870 O.3   187  TYR187     -0.2866
     60  N         59.0650  -15.0250   35.2620 N.am  188  ASP188     -0.1957
     61  CA        60.3470  -15.1450   34.5840 C.3   188  ASP188      0.1840
     62  C         61.0920  -16.3480   35.1740 C.2   188  ASP188      0.2621
     63  O         61.5450  -16.3170   36.3150 O.2   188  ASP188     -0.2715
     64  CB        61.1470  -13.8660   34.7210 C.3   188  ASP188      0.1450
     65  CG        62.5430  -13.9360   34.1300 C.2   188  ASP188      0.3671
     66  OD1       62.9270  -15.0220   33.6450 O.co2 188  ASP188     -0.2456
     67  OD2       63.2410  -12.8800   34.1620 O.co2 188  ASP188     -0.2456
     68  N         61.1100  -17.4410   34.4200 N.am  189  VAL189     -0.1977
     69  CA        61.6900  -18.7010   34.8960 C.3   189  VAL189      0.1596
     70  C         63.0450  -18.9830   34.2270 C.2   189  VAL189      0.2287
     71  O         63.5550  -20.1080   34.2970 O.2   189  VAL189     -0.2864
     72  CB        60.7130  -19.8740   34.7360 C.3   189  VAL189      0.0276
     73  CG1       59.4500  -19.6220   35.5150 C.3   189  VAL189      0.0022
     74  CG2       60.4100  -20.1920   33.2940 C.3   189  VAL189      0.0022
     75  N         65.5560  -20.8260   36.4270 N.3   192  LEU192     -0.1245
     76  CA        65.1550  -22.1220   37.0030 C.3   192  LEU192      0.1561
     77  C         65.4440  -23.2590   36.0270 C.2   192  LEU192      0.2260
     78  O         65.5290  -24.4190   36.4500 O.2   192  LEU192     -0.2867
     79  CB        63.6580  -22.1030   37.3440 C.3   192  LEU192      0.0270
     80  CG        63.1850  -20.9820   38.2560 C.3   192  LEU192      0.0019
     81  CD1       61.7450  -21.1920   38.6660 C.3   192  LEU192      0.0001
     82  CD2       64.0310  -20.8340   39.4910 C.3   192  LEU192      0.0001
     83  N         50.7800  -12.6780   48.7930 N.3   310  ARG310     -0.1245
     84  CA        52.0950  -13.1450   49.1690 C.3   310  ARG310      0.1563
     85  C         52.1390  -13.3950   50.6700 C.2   310  ARG310      0.2260
     86  O         51.2960  -12.9350   51.4410 O.2   310  ARG310     -0.2867
     87  CB        53.1780  -12.1300   48.8240 C.3   310  ARG310      0.0307
     88  CG        53.3790  -11.9210   47.3300 C.3   310  ARG310      0.0489
     89  CD        54.7730  -11.3730   47.0150 C.3   310  ARG310      0.2205
     90  NE        55.0270  -11.1570   45.6070 N.pl3 310  ARG310     -0.0865
     91  CZ        54.7740  -10.0380   44.9290 C.cat 310  ARG310      0.5346
     92  NH1       54.3100   -8.9600   45.5600 N.pl3 310  ARG310      0.1354
     93  NH2       55.0100  -10.0250   43.6170 N.pl3 310  ARG310      0.1354
@<TRIPOS>BOND
     1    47    45    1
     2    46    45    1
     3    74    72    1
     4    45    42    1
     5    66    65   ar
     6    51    50    2
     7    65    67   ar
     8    65    64    1
     9    70    71    2
    10    70    69    1
    11    42    41    1
    12    42    43    1
    13    68    69    1
    14    68    62   am
    15    61    64    1
    16    61    62    1
    17    61    60    1
    18    72    69    1
    19    72    73    1
    20    50    60   am
    21    50    49    1
    22    48    43   am
    23    48    49    1
    24    62    63    2
    25    43    44    2
    26    49    52    1
    27    77    78    2
    28    77    76    1
    29    75    76    1
    30    52    53    1
    31    76    79    1
    32    55    53   ar
    33    55    57   ar
    34    79    80    1
    35    53    54   ar
    36    80    81    1
    37    80    82    1
    38    57    58   ar
    39    17    16    1
    40    18    16    1
    41    54    56   ar
    42    16    13    1
    43    58    56   ar
    44    58    59    1
    45    13    14    1
    46    13    12    1
    47    39    40   ar
    48    39    37   ar
    49    14    19   am
    50    14    15    2
    51    19    20    1
    52    40    38   ar
    53    37    36   ar
    54    12     3   am
    55    20    21    1
    56     4     3    2
    57     3     2    1
    58    38    36   ar
    59    36    35    1
    60     2     1    1
    61     2     5    1
    62    21    23   am
    63    21    22    2
    64    35    32    1
    65    93    91    1
    66    23    24    1
    67    29    28   ar
    68    31    32    1
    69    31    25   am
    70     5     6    1
    71    32    33    1
    72     6     7    1
    73    91    92    1
    74    91    90    2
    75    10     9    1
    76    34    33    2
    77    24    25    1
    78    24    27    1
    79    28    30   ar
    80    28    27    1
    81    90    89    1
    82    25    26    2
    83     9    11    1
    84     9     8    2
    85     7     8    1
    86    89    88    1
    87    88    87    1
    88    83    84    1
    89    87    84    1
    90    84    85    1
    91    85    86    2
