@<TRIPOS>MOLECULE
tmp/6gszA09.pdb
 121 115 0 0 0
SMALL
GASTEIGER

@<TRIPOS>ATOM
      1  N         60.2360    6.1090   41.5810 N.3     6  GLN6       -0.1245
      2  CA        59.4450    4.9510   41.1440 C.3     6  GLN6        0.1566
      3  C         58.9270    5.3090   39.7650 C.2     6  GLN6        0.2260
      4  O         58.4840    6.4350   39.5690 O.2     6  GLN6       -0.2867
      5  CB        58.2220    4.7090   42.0650 C.3     6  GLN6        0.0367
      6  CG        57.3240    3.5530   41.6070 C.3     6  GLN6        0.0905
      7  CD        55.9770    3.3930   42.2850 C.2     6  GLN6        0.2608
      8  OE1       55.7500    2.4250   43.0180 O.2     6  GLN6       -0.2717
      9  NE2       55.0420    4.2940   42.0050 N.am    6  GLN6       -0.0878
     10  N         56.1990    3.4550   37.1700 N.3     8  ALA8       -0.1245
     11  CA        55.2480    2.3900   37.1760 C.3     8  ALA8        0.1562
     12  C         54.2730    2.4960   36.0010 C.2     8  ALA8        0.2260
     13  O         53.9910    3.5930   35.4710 O.2     8  ALA8       -0.2867
     14  CB        54.5310    2.3600   38.4810 C.3     8  ALA8        0.0290
     15  N         50.4100    1.6630   34.4960 N.3    10  GLU10      -0.1231
     16  CA        49.0380    1.5680   35.0150 C.3    10  GLU10       0.1699
     17  C         49.1170    1.6520   36.5400 C.2    10  GLU10       0.2592
     18  O         49.7540    2.5500   37.0910 O.2    10  GLU10      -0.2718
     19  CB        48.3200    0.3400   34.4350 C.3    10  GLU10       0.0402
     20  CG        48.1990    0.4200   32.9160 C.3    10  GLU10       0.1161
     21  CD        47.1630    1.4070   32.3820 C.2    10  GLU10       0.3649
     22  OE1       46.0520    1.4160   32.9630 O.co2  10  GLU10      -0.2457
     23  OE2       47.4680    2.1210   31.3860 O.co2  10  GLU10      -0.2457
     24  N         48.4540    0.7060   37.2280 N.am   11  HIS11      -0.1962
     25  CA        48.4720    0.6000   38.6700 C.3    11  HIS11       0.1787
     26  C         49.2450   -0.6460   39.1330 C.2    11  HIS11       0.2620
     27  O         49.1800   -1.0240   40.3270 O.2    11  HIS11      -0.2715
     28  CB        47.0700    0.6440   39.2610 C.3    11  HIS11       0.0785
     29  CG        46.3920    1.9360   38.9460 C.ar   11  HIS11       0.0821
     30  ND1       46.6990    3.1440   39.5800 N.ar   11  HIS11      -0.2267
     31  CD2       45.4870    2.2100   37.9940 C.ar   11  HIS11       0.1154
     32  CE1       45.9600    4.0840   39.0260 C.ar   11  HIS11       0.1986
     33  NE2       45.2450    3.5670   38.0380 N.ar   11  HIS11      -0.2212
     34  N         50.0890   -1.1530   38.2420 N.am   12  HIS12      -0.1959
     35  CA        50.9010   -2.3280   38.5640 C.3    12  HIS12       0.1787
     36  C         52.1190   -1.9330   39.4020 C.2    12  HIS12       0.2620
     37  O         52.7680   -0.9130   39.1160 O.2    12  HIS12      -0.2715
     38  CB        51.4200   -2.9600   37.2830 C.3    12  HIS12       0.0785
     39  CG        50.3860   -3.3340   36.2660 C.ar   12  HIS12       0.0821
     40  ND1       49.5020   -4.3950   36.4570 N.ar   12  HIS12      -0.2267
     41  CD2       50.1520   -2.8850   35.0190 C.ar   12  HIS12       0.1154
     42  CE1       48.7520   -4.5000   35.3600 C.ar   12  HIS12       0.1986
     43  NE2       49.1150   -3.5600   34.4730 N.ar   12  HIS12      -0.2212
     44  N         52.4950   -2.7380   40.3900 N.am   13  ARG13      -0.1977
     45  CA        53.7220   -2.4970   41.1370 C.3    13  ARG13       0.1597
     46  C         54.9430   -2.8230   40.2580 C.2    13  ARG13       0.2287
     47  O         55.9800   -2.1510   40.3180 O.2    13  ARG13      -0.2864
     48  CB        53.7800   -3.2940   42.4460 C.3    13  ARG13       0.0334
     49  CG        52.6820   -2.9640   43.4460 C.3    13  ARG13       0.0492
     50  CD        52.9390   -3.4390   44.8740 C.3    13  ARG13       0.2205
     51  NE        54.1060   -2.7580   45.4460 N.pl3  13  ARG13      -0.0865
     52  CZ        54.6650   -3.0470   46.6160 C.cat  13  ARG13       0.5346
     53  NH1       54.1470   -4.0210   47.3680 N.pl3  13  ARG13       0.1354
     54  NH2       55.7270   -2.3580   47.0400 N.pl3  13  ARG13       0.1354
     55  N         53.7070    6.4770   35.0200 N.3    26  SER26      -0.1217
     56  CA        53.7140    7.4060   36.1550 C.3    26  SER26       0.1889
     57  C         55.0850    7.3980   36.8280 C.2    26  SER26       0.2288
     58  O         55.7490    6.3720   36.8420 O.2    26  SER26      -0.2866
     59  CB        52.6790    7.0430   37.1980 C.3    26  SER26       0.2089
     60  OG        51.3790    6.9380   36.6600 O.3    26  SER26      -0.2183
     61  N         56.9590    8.8290   40.5500 N.3    28  ARG28      -0.1245
     62  CA        56.9230    9.5110   41.8210 C.3    28  ARG28       0.1563
     63  C         58.2700   10.2050   42.0740 C.2    28  ARG28       0.2260
     64  O         59.3080    9.7150   41.6720 O.2    28  ARG28      -0.2867
     65  CB        56.5680    8.4240   42.8300 C.3    28  ARG28       0.0307
     66  CG        56.1580    8.9240   44.1960 C.3    28  ARG28       0.0489
     67  CD        55.6570    7.7050   44.9440 C.3    28  ARG28       0.2205
     68  NE        54.2170    7.5300   44.7950 N.pl3  28  ARG28      -0.0865
     69  CZ        53.5480    6.4250   45.0610 C.cat  28  ARG28       0.5346
     70  NH1       52.2650    6.5220   45.3730 N.pl3  28  ARG28       0.1354
     71  NH2       54.1470    5.2470   45.0000 N.pl3  28  ARG28       0.1354
     72  N         51.5830   11.6430   36.1120 N.3    63  VAL63      -0.1231
     73  CA        50.7580   10.5150   36.5370 C.3    63  VAL63       0.1692
     74  C         49.8890   10.0540   35.3760 C.2    63  VAL63       0.2591
     75  O         49.0710   10.8040   34.8430 O.2    63  VAL63      -0.2718
     76  CB        49.8700   10.9100   37.7380 C.3    63  VAL63       0.0266
     77  CG1       48.9350    9.7530   38.1210 C.3    63  VAL63       0.0020
     78  CG2       50.7080   11.3360   38.9240 C.3    63  VAL63       0.0020
     79  N         50.0520    8.7670   35.0470 N.am   64  LEU64      -0.1980
     80  CA        49.2160    8.1050   34.0180 C.3    64  LEU64       0.1596
     81  C         49.2760    8.8570   32.6710 C.2    64  LEU64       0.2287
     82  O         48.2360    9.0500   31.9900 O.2    64  LEU64      -0.2864
     83  CB        47.7930    7.9170   34.5470 C.3    64  LEU64       0.0297
     84  CG        47.6890    6.9960   35.7770 C.3    64  LEU64       0.0022
     85  CD1       46.3180    7.1470   36.4420 C.3    64  LEU64       0.0001
     86  CD2       47.9420    5.5200   35.4650 C.3    64  LEU64       0.0001
     87  N         51.3370   -1.7710   47.9050 N.3   427  GLU427     -0.1245
     88  CA        52.3550   -0.8520   48.4200 C.3   427  GLU427      0.1567
     89  C         51.7570   -0.0480   49.5840 C.2   427  GLU427      0.2260
     90  O         50.6960    0.5640   49.4260 O.2   427  GLU427     -0.2867
     91  CB        52.8130    0.0860   47.3160 C.3   427  GLU427      0.0388
     92  CG        53.9280    1.0000   47.7520 C.3   427  GLU427      0.1160
     93  CD        54.5050    1.8700   46.6410 C.2   427  GLU427      0.3649
     94  OE1       53.8130    2.0980   45.6050 O.co2 427  GLU427     -0.2457
     95  OE2       55.6740    2.3040   46.8060 O.co2 427  GLU427     -0.2457
     96  N         48.0640    1.4800   48.5710 N.3   486  ASP486     -0.1239
     97  CA        47.7190    1.7280   47.1860 C.3   486  ASP486      0.1674
     98  C         46.8400    0.5690   46.6880 C.2   486  ASP486      0.2266
     99  O         47.3220   -0.5130   46.3200 O.2   486  ASP486     -0.2867
    100  CB        48.9630    1.9300   46.3360 C.3   486  ASP486      0.1410
    101  CG        48.6550    2.2900   44.8900 C.2   486  ASP486      0.3668
    102  OD1       47.5300    2.0000   44.4080 O.co2 486  ASP486     -0.2456
    103  OD2       49.5300    2.9910   44.2930 O.co2 486  ASP486     -0.2456
    104  N         42.9330    8.4180   43.4840 N.3   542  PHE542     -0.1241
    105  CA        44.0190    8.1270   42.4950 C.3   542  PHE542      0.1605
    106  C         43.9230    8.9380   41.1930 C.2   542  PHE542      0.2264
    107  O         44.8600    8.9700   40.4110 O.2   542  PHE542     -0.2867
    108  CB        44.1250    6.6290   42.2370 C.3   542  PHE542      0.0534
    109  CG        44.3660    5.8180   43.4790 C.ar  542  PHE542     -0.0203
    110  CD1       45.5700    5.8610   44.1540 C.ar  542  PHE542     -0.0042
    111  CD2       43.3520    5.0510   43.9940 C.ar  542  PHE542     -0.0042
    112  CE1       45.7610    5.1360   45.3180 C.ar  542  PHE542     -0.0003
    113  CE2       43.5320    4.3300   45.1740 C.ar  542  PHE542     -0.0003
    114  CZ        44.7280    4.3700   45.8350 C.ar  542  PHE542     -0.0000
    115  N         50.5730    9.8550   44.7600 N.3   808  PRO808     -0.2116
    116  CA        51.1440    9.5710   43.4510 C.3   808  PRO808      0.1372
    117  C         52.3400   10.4360   43.0060 C.2   808  PRO808      0.2244
    118  O         52.9950   10.1140   42.0160 O.2   808  PRO808     -0.2868
    119  CB        49.9220    9.7550   42.5310 C.3   808  PRO808      0.0268
    120  CG        48.7000    9.4950   43.3870 C.3   808  PRO808      0.0207
    121  CD        49.1240   10.1230   44.6950 C.3   808  PRO808      0.0892
@<TRIPOS>BOND
     1    23    21   ar
     2    82    81    2
     3    21    20    1
     4    21    22   ar
     5    81    80    1
     6    20    19    1
     7    80    83    1
     8    80    79    1
     9    19    16    1
    10    43    41   ar
    11    43    42   ar
    12    15    16    1
    13    83    84    1
    14    75    74    2
    15    16    17    1
    16    41    39   ar
    17    55    56    1
    18    79    74   am
    19    42    40   ar
    20    74    73    1
    21    86    84    1
    22    13    12    2
    23    84    85    1
    24    12    11    1
    25    72    73    1
    26    56    57    1
    27    56    59    1
    28    39    40   ar
    29    39    38    1
    30    73    76    1
    31    17    18    2
    32    17    24   am
    33    60    59    1
    34    57    58    2
    35    10    11    1
    36    11    14    1
    37    24    25    1
    38    38    35    1
    39    76    77    1
    40    76    78    1
    41    31    33   ar
    42    31    29   ar
    43    33    32   ar
    44    34    35    1
    45    34    26   am
    46    35    36    1
    47    25    26    1
    48    25    28    1
    49    29    28    1
    50    29    30   ar
    51    32    30   ar
    52    37    36    2
    53    26    27    2
    54    36    44   am
    55     4     3    2
    56     3     2    1
    57    46    47    2
    58    46    45    1
    59    44    45    1
    60   107   106    2
    61    61    62    1
    62    45    48    1
    63     2     1    1
    64     2     5    1
    65   106   105    1
    66     6     5    1
    67     6     7    1
    68    64    63    2
    69    62    63    1
    70    62    65    1
    71     9     7   am
    72   118   117    2
    73   108   105    1
    74   108   109    1
    75     7     8    2
    76    48    49    1
    77   105   104    1
    78   119   120    1
    79   119   116    1
    80    65    66    1
    81   117   116    1
    82   120   121    1
    83    49    50    1
    84   116   115    1
    85   109   111   ar
    86   109   110   ar
    87   111   113   ar
    88   110   112   ar
    89    66    67    1
    90   103   101   ar
    91   102   101   ar
    92   121   115    1
    93    68    67    1
    94    68    69    2
    95    50    51    1
    96   101   100    1
    97    71    69    1
    98    69    70    1
    99   113   114   ar
   100   112   114   ar
   101    51    52    2
   102    94    93   ar
   103    99    98    2
   104   100    97    1
   105    52    54    1
   106    52    53    1
   107    93    95   ar
   108    93    92    1
   109    98    97    1
   110    97    96    1
   111    91    92    1
   112    91    88    1
   113    87    88    1
   114    88    89    1
   115    90    89    2
