@<TRIPOS>MOLECULE
tmp/6gt1B00.pdb
 187 175 0 0 0
SMALL
GASTEIGER

@<TRIPOS>ATOM
      1  N         70.8560   59.3620  -20.9150 N.3    19  LYS19      -0.1245
      2  CA        69.5300   59.6140  -20.3230 C.3    19  LYS19       0.1561
      3  C         69.5190   59.1700  -18.8720 C.2    19  LYS19       0.2260
      4  O         70.3250   58.3220  -18.4890 O.2    19  LYS19      -0.2867
      5  CB        68.4530   58.8700  -21.0970 C.3    19  LYS19       0.0271
      6  CG        67.1080   59.5280  -21.1060 C.3    19  LYS19       0.0035
      7  CD        66.1450   58.7490  -21.9980 C.3    19  LYS19       0.0206
      8  CE        65.7630   57.3950  -21.3930 C.3    19  LYS19       0.1093
      9  NZ        64.7440   57.5010  -20.3000 N.3    19  LYS19      -0.1314
     10  N         67.8630   56.9990  -16.2440 N.3    21  ILE21      -0.1231
     11  CA        66.9710   55.8430  -16.2730 C.3    21  ILE21       0.1696
     12  C         66.0540   55.8030  -15.0580 C.2    21  ILE21       0.2632
     13  O         64.8730   55.5010  -15.1810 O.2    21  ILE21      -0.2714
     14  CB        67.7400   54.5000  -16.3080 C.3    21  ILE21       0.0266
     15  CG1       68.6690   54.3860  -17.5010 C.3    21  ILE21       0.0019
     16  CG2       66.7680   53.3470  -16.2330 C.3    21  ILE21       0.0020
     17  CD1       69.7740   53.3660  -17.2670 C.3    21  ILE21       0.0001
     18  N         66.5980   56.0860  -13.8770 N.am   22  GLY22      -0.1718
     19  CA        65.8050   56.0330  -12.6460 C.2    22  GLY22       0.1480
     20  C         66.4130   56.7420  -11.4600 C.2    22  GLY22       0.2820
     21  O         67.6080   56.9190  -11.4200 O.2    22  GLY22      -0.2669
     22  N         65.5780   57.1830  -10.5200 N.am   23  ARG23      -0.1929
     23  CA        66.0600   57.7370   -9.2570 C.3    23  ARG23       0.1732
     24  C         65.7490   56.7310   -8.1590 C.2    23  ARG23       0.2616
     25  O         64.5850   56.3960   -7.9090 O.2    23  ARG23      -0.2715
     26  CB        65.4600   59.1410   -8.9750 C.3    23  ARG23       0.0348
     27  CG        66.2410   59.9380   -7.9740 C.3    23  ARG23       0.0492
     28  CD        65.5080   61.2190   -7.6070 C.3    23  ARG23       0.2205
     29  NE        64.2850   60.9540   -6.8470 N.pl3  23  ARG23      -0.0865
     30  CZ        64.2560   60.6260   -5.5560 C.cat  23  ARG23       0.5346
     31  NH1       65.3870   60.5540   -4.8550 N.pl3  23  ARG23       0.1354
     32  NH2       63.0920   60.3950   -4.9640 N.pl3  23  ARG23       0.1354
     33  N         66.7850   56.2370   -7.4830 N.am   24  GLY24      -0.1955
     34  CA        66.6090   55.4760   -6.2210 C.3    24  GLY24       0.1869
     35  C         66.2250   56.3920   -5.0720 C.2    24  GLY24       0.2309
     36  O         66.2300   57.6190   -5.2140 O.2    24  GLY24      -0.2863
     37  N         68.1180   56.3100   -2.4250 N.3    26  PHE26      -0.1227
     38  CA        69.4900   56.5160   -2.0760 C.3    26  PHE26       0.1736
     39  C         70.2830   57.2950   -3.1530 C.2    26  PHE26       0.2596
     40  O         71.0610   58.2300   -2.8450 O.2    26  PHE26      -0.2718
     41  CB        70.0600   55.1010   -1.9150 C.3    26  PHE26       0.0547
     42  CG        69.4210   54.0520   -2.8220 C.ar   26  PHE26      -0.0202
     43  CD1       68.2200   53.4330   -2.4510 C.ar   26  PHE26      -0.0042
     44  CD2       70.0060   53.6830   -4.0340 C.ar   26  PHE26      -0.0042
     45  CE1       67.6200   52.5050   -3.2720 C.ar   26  PHE26      -0.0003
     46  CE2       69.4050   52.7490   -4.8580 C.ar   26  PHE26      -0.0003
     47  CZ        68.2110   52.1540   -4.4720 C.ar   26  PHE26      -0.0000
     48  N         70.1100   56.8890   -4.4180 N.am   27  SER27      -0.1952
     49  CA        70.9510   57.4040   -5.5060 C.3    27  SER27       0.1924
     50  C         70.2280   57.3950   -6.8460 C.2    27  SER27       0.2314
     51  O         69.3260   56.6610   -7.0490 O.2    27  SER27      -0.2863
     52  CB        72.2610   56.6020   -5.5980 C.3    27  SER27       0.2116
     53  OG        72.0320   55.3790   -6.2040 O.3    27  SER27      -0.2180
     54  N         70.4210   56.9870  -11.1210 N.3    29  VAL29      -0.1245
     55  CA        71.1160   56.1710  -12.1000 C.3    29  VAL29       0.1561
     56  C         70.8540   56.6500  -13.5070 C.2    29  VAL29       0.2260
     57  O         69.7020   56.9480  -13.8450 O.2    29  VAL29      -0.2867
     58  CB        70.6970   54.6860  -11.9400 C.3    29  VAL29       0.0252
     59  CG1       70.4430   53.9490  -13.2580 C.3    29  VAL29       0.0019
     60  CG2       71.7240   53.9840  -11.1690 C.3    29  VAL29       0.0019
     61  N         71.8880   56.0930  -17.8590 N.3    31  ARG31      -0.1245
     62  CA        72.4510   55.2800  -18.9390 C.3    31  ARG31       0.1563
     63  C         73.5400   56.0990  -19.5670 C.2    31  ARG31       0.2260
     64  O         73.3690   57.2960  -19.7560 O.2    31  ARG31      -0.2867
     65  CB        71.4130   54.9750  -20.0070 C.3    31  ARG31       0.0307
     66  CG        72.0460   54.5020  -21.2900 C.3    31  ARG31       0.0489
     67  CD        71.0740   53.7040  -22.1350 C.3    31  ARG31       0.2205
     68  NE        69.9850   54.5260  -22.6570 N.pl3  31  ARG31      -0.0865
     69  CZ        70.0240   55.2500  -23.7850 C.cat  31  ARG31       0.5346
     70  NH1       71.1410   55.3430  -24.5240 N.pl3  31  ARG31       0.1354
     71  NH2       68.9490   55.9410  -24.1540 N.pl3  31  ARG31       0.1354
     72  N         75.8010   51.5440  -17.2850 N.3    42  ALA42      -0.1245
     73  CA        74.8600   52.3090  -16.4720 C.3    42  ALA42       0.1562
     74  C         75.5940   52.7110  -15.2020 C.2    42  ALA42       0.2260
     75  O         76.1790   51.8730  -14.5300 O.2    42  ALA42      -0.2867
     76  CB        73.6420   51.4710  -16.1570 C.3    42  ALA42       0.0290
     77  N         75.6060   54.5810  -11.3910 N.3    44  LYS44      -0.1245
     78  CA        74.8200   54.9730  -10.2230 C.3    44  LYS44       0.1561
     79  C         75.5990   56.0550   -9.5010 C.2    44  LYS44       0.2260
     80  O         76.7420   55.8300   -9.1240 O.2    44  LYS44      -0.2867
     81  CB        74.6400   53.7760   -9.2870 C.3    44  LYS44       0.0271
     82  CG        73.2380   53.4910   -8.8380 C.3    44  LYS44       0.0035
     83  CD        73.1290   52.3990   -7.8190 C.3    44  LYS44       0.0206
     84  CE        73.5300   52.8600   -6.4330 C.3    44  LYS44       0.1093
     85  NZ        73.3900   51.7970   -5.3970 N.3    44  LYS44      -0.1314
     86  N         74.2570   41.2620  -11.6760 N.3    76  ILE76      -0.1245
     87  CA        74.7460   42.2020  -12.7120 C.3    76  ILE76       0.1561
     88  C         76.2510   42.4800  -12.5180 C.2    76  ILE76       0.2260
     89  O         76.7230   42.6200  -11.3740 O.2    76  ILE76      -0.2867
     90  CB        74.0000   43.5560  -12.8030 C.3    76  ILE76       0.0252
     91  CG1       73.9270   44.2960  -11.4740 C.3    76  ILE76       0.0019
     92  CG2       72.5930   43.4280  -13.3640 C.3    76  ILE76       0.0019
     93  CD1       73.4220   45.7120  -11.6430 C.3    76  ILE76       0.0001
     94  N         78.0010   49.8910  -13.7960 N.3    92  LEU92      -0.1231
     95  CA        77.6260   48.4990  -13.8880 C.3    92  LEU92       0.1693
     96  C         76.9290   48.2700  -15.1930 C.2    92  LEU92       0.2592
     97  O         76.4910   49.2120  -15.8570 O.2    92  LEU92      -0.2718
     98  CB        76.6310   48.1310  -12.7930 C.3    92  LEU92       0.0284
     99  CG        76.7350   48.7860  -11.4370 C.3    92  LEU92       0.0019
    100  CD1       75.3530   49.2180  -10.9700 C.3    92  LEU92       0.0001
    101  CD2       77.4160   47.8440  -10.4510 C.3    92  LEU92       0.0001
    102  N         76.7350   47.0000  -15.5080 N.am   93  GLU93      -0.1966
    103  CA        76.1530   46.6440  -16.7870 C.3    93  GLU93       0.1733
    104  C         74.6940   47.0910  -16.8430 C.2    93  GLU93       0.2616
    105  O         74.0040   47.1760  -15.8410 O.2    93  GLU93      -0.2715
    106  CB        76.2690   45.1370  -17.0540 C.3    93  GLU93       0.0429
    107  CG        75.3610   44.2460  -16.2140 C.3    93  GLU93       0.1163
    108  CD        75.2080   42.8540  -16.8380 C.2    93  GLU93       0.3649
    109  OE1       74.5030   42.7400  -17.8610 O.co2  93  GLU93      -0.2457
    110  OE2       75.7840   41.8640  -16.3250 O.co2  93  GLU93      -0.2457
    111  N         74.2760   47.4050  -18.0450 N.am   94  LEU94      -0.1963
    112  CA        72.9450   47.8650  -18.3580 C.3    94  LEU94       0.1728
    113  C         71.9820   46.7780  -18.8100 C.2    94  LEU94       0.2616
    114  O         72.2170   46.1040  -19.7960 O.2    94  LEU94      -0.2715
    115  CB        73.0820   48.7660  -19.5380 C.3    94  LEU94       0.0311
    116  CG        72.2900   50.0760  -19.4980 C.3    94  LEU94       0.0022
    117  CD1       73.2830   51.1960  -19.4970 C.3    94  LEU94       0.0001
    118  CD2       71.3310   50.1260  -20.6620 C.3    94  LEU94       0.0001
    119  N         70.9130   46.5920  -18.0740 N.am   95  ALA95      -0.1963
    120  CA        69.9710   45.5830  -18.4330 C.3    95  ALA95       0.1728
    121  C         69.0970   46.1270  -19.5180 C.2    95  ALA95       0.2616
    122  O         68.4910   47.1550  -19.3350 O.2    95  ALA95      -0.2715
    123  CB        69.1490   45.2320  -17.2290 C.3    95  ALA95       0.0334
    124  N         69.0470   45.4350  -20.6480 N.am   96  ASP96      -0.1971
    125  CA        68.2430   45.8370  -21.7910 C.3    96  ASP96       0.1709
    126  C         66.8230   46.0900  -21.3660 C.2    96  ASP96       0.2293
    127  O         66.3310   47.2030  -21.4590 O.2    96  ASP96      -0.2864
    128  CB        68.2620   44.7480  -22.8480 C.3    96  ASP96       0.1436
    129  CG        69.4260   44.7790  -23.7760 C.2    96  ASP96       0.3671
    130  OD1       70.2330   45.6830  -23.7330 O.co2  96  ASP96      -0.2456
    131  OD2       69.4610   43.8140  -24.6430 O.co2  96  ASP96      -0.2456
    132  N         64.4810   46.6550  -18.5330 N.3    98  GLY98      -0.1210
    133  CA        64.6980   47.1220  -17.1780 C.3    98  GLY98       0.1956
    134  C         64.1340   46.3880  -15.9930 C.2    98  GLY98       0.2611
    135  O         63.6460   45.2830  -16.0950 O.2    98  GLY98      -0.2717
    136  N         64.1920   47.0630  -14.8560 N.am   99  ASP99      -0.1973
    137  CA        63.7330   46.5740  -13.5650 C.3    99  ASP99       0.1709
    138  C         62.4220   45.8220  -13.5370 C.2    99  ASP99       0.2293
    139  O         61.4750   46.1980  -14.2020 O.2    99  ASP99      -0.2864
    140  CB        63.6160   47.7530  -12.6080 C.3    99  ASP99       0.1436
    141  CG        62.7610   48.7500  -12.3020 C.2    99  ASP99       0.3671
    142  OD1       61.7600   49.3610  -12.6430 O.co2  99  ASP99      -0.2456
    143  OD2       63.5120   48.9930  -11.3220 O.co2  99  ASP99      -0.2456
    144  N         59.0190   47.4770  -13.1280 N.3   102  ARG102     -0.1245
    145  CA        58.4200   47.9580  -14.3720 C.3   102  ARG102      0.1563
    146  C         57.5530   46.8810  -14.9990 C.2   102  ARG102      0.2260
    147  O         56.4150   47.1340  -15.3840 O.2   102  ARG102     -0.2867
    148  CB        59.4830   48.4020  -15.3930 C.3   102  ARG102      0.0307
    149  CG        60.0950   49.7350  -15.0470 C.3   102  ARG102      0.0489
    150  CD        60.6260   50.5280  -16.2260 C.3   102  ARG102      0.2205
    151  NE        61.3280   51.6760  -15.6700 N.pl3 102  ARG102     -0.0865
    152  CZ        62.5730   51.6710  -15.1840 C.cat 102  ARG102      0.5346
    153  NH1       63.3050   50.5590  -15.1880 N.pl3 102  ARG102      0.1354
    154  NH2       63.0870   52.7890  -14.6930 N.pl3 102  ARG102      0.1354
    155  N         64.4570   43.0130   -4.0040 N.3   144  LYS144     -0.1245
    156  CA        63.1680   43.6460   -4.2260 C.3   144  LYS144      0.1561
    157  C         62.9160   43.6730   -5.7040 C.2   144  LYS144      0.2260
    158  O         63.8590   43.5860   -6.4900 O.2   144  LYS144     -0.2867
    159  CB        63.1530   45.0860   -3.6680 C.3   144  LYS144      0.0271
    160  CG        64.4800   45.8280   -3.7850 C.3   144  LYS144      0.0035
    161  CD        64.6820   46.8530   -2.6600 C.3   144  LYS144      0.0206
    162  CE        65.7570   47.8740   -2.9770 C.3   144  LYS144      0.1093
    163  NZ        65.2100   49.1750   -3.4930 N.3   144  LYS144     -0.1314
    164  N         62.2460   46.1550   -7.4650 N.3   146  ALA146     -0.1231
    165  CA        63.0110   47.3000   -7.9310 C.3   146  ALA146      0.1694
    166  C         64.5080   46.9950   -8.2020 C.2   146  ALA146      0.2592
    167  O         65.1200   47.6670   -9.0170 O.2   146  ALA146     -0.2718
    168  CB        62.8940   48.4280   -6.9120 C.3   146  ALA146      0.0304
    169  N         65.0820   45.9990   -7.5240 N.am  147  ASN147     -0.1974
    170  CA        66.4830   45.6790   -7.6500 C.3   147  ASN147      0.1688
    171  C         66.7510   44.3490   -8.3840 C.2   147  ASN147      0.2292
    172  O         67.8520   43.7670   -8.2190 O.2   147  ASN147     -0.2864
    173  CB        67.1380   45.6640   -6.2690 C.3   147  ASN147      0.1181
    174  CG        68.6440   45.9790   -6.3240 C.2   147  ASN147      0.2629
    175  OD1       69.3030   45.8590   -7.3650 O.2   147  ASN147     -0.2716
    176  ND2       69.1980   46.3130   -5.2150 N.am  147  ASN147     -0.0877
    177  N         66.7230   42.8740  -12.3400 N.3   149  PHE149     -0.1241
    178  CA        66.5850   43.3040  -13.7120 C.3   149  PHE149      0.1605
    179  C         66.5290   42.1740  -14.6680 C.2   149  PHE149      0.2264
    180  O         66.9850   41.1170  -14.3680 O.2   149  PHE149     -0.2867
    181  CB        67.7400   44.2010  -14.0610 C.3   149  PHE149      0.0534
    182  CG        67.9300   45.3010  -13.0920 C.ar  149  PHE149     -0.0203
    183  CD1       67.2510   46.4770  -13.2390 C.ar  149  PHE149     -0.0042
    184  CD2       68.7500   45.1420  -12.0230 C.ar  149  PHE149     -0.0042
    185  CE1       67.4090   47.5000  -12.3440 C.ar  149  PHE149     -0.0003
    186  CE2       68.9220   46.1540  -11.1200 C.ar  149  PHE149     -0.0003
    187  CZ        68.2510   47.3400  -11.2810 C.ar  149  PHE149     -0.0000
@<TRIPOS>BOND
     1   131   129   ar
     2    70    69    1
     3    71    69    1
     4    69    68    2
     5   129   130   ar
     6   129   128    1
     7   128   125    1
     8    68    67    1
     9    67    66    1
    10     7     8    1
    11     7     6    1
    12   125   126    1
    13   125   124    1
    14   127   126    2
    15     8     9    1
    16    66    65    1
    17     6     5    1
    18     5     2    1
    19     1     2    1
    20   118   116    1
    21   124   121   am
    22     2     3    1
    23    65    62    1
    24   114   113    2
    25    64    63    2
    26    63    62    1
    27   115   116    1
    28   115   112    1
    29   121   122    2
    30   121   120    1
    31   116   117    1
    32    62    61    1
    33     3     4    2
    34   113   112    1
    35   113   119   am
    36   132   133    1
    37   120   119    1
    38   120   123    1
    39   112   111    1
    40   111   104   am
    41   109   108   ar
    42    15    17    1
    43    15    14    1
    44    72    73    1
    45   133   134    1
    46   106   103    1
    47   106   107    1
    48   104   103    1
    49   104   105    2
    50   108   110   ar
    51   108   107    1
    52   103   102    1
    53    73    76    1
    54    73    74    1
    55    14    11    1
    56    14    16    1
    57    11    10    1
    58    11    12    1
    59   150   151    1
    60   150   149    1
    61   135   134    2
    62   134   136   am
    63    97    96    2
    64   151   152    2
    65   102    96   am
    66   148   149    1
    67   148   145    1
    68   147   146    2
    69    74    75    2
    70    96    95    1
    71   153   152    1
    72   152   154    1
    73    13    12    2
    74    12    18    1
    75   146   145    1
    76   136   137    1
    77   179   180    2
    78   179   178    1
    79   145   144    1
    80   139   138    2
    81   181   178    1
    82   181   182    1
    83    95    94    1
    84    95    98    1
    85    18    19    2
    86    57    56    2
    87   178   177    1
    88   137   138    1
    89   137   140    1
    90    56    55    1
    91    92    90    1
    92    59    58    1
    93   183   182   ar
    94   183   185   ar
    95   182   184   ar
    96    90    87    1
    97    90    91    1
    98    98    99    1
    99    87    88    1
   100    87    86    1
   101    19    20    1
   102   142   141   ar
   103   140   141    1
   104    88    89    2
   105   185   187   ar
   106   141   143   ar
   107    55    58    1
   108    55    54    1
   109   184   186   ar
   110    58    60    1
   111    93    91    1
   112    20    21    2
   113    20    22   am
   114    99   100    1
   115    99   101    1
   116    77    78    1
   117   187   186   ar
   118    22    23    1
   119    78    79    1
   120    78    81    1
   121    79    80    2
   122    81    82    1
   123    23    26    1
   124    23    24    1
   125   167   166    2
   126    26    27    1
   127    82    83    1
   128   171   172    2
   129   171   170    1
   130   166   165    1
   131   166   169   am
   132    24    25    2
   133    24    33   am
   134    27    28    1
   135   165   164    1
   136   165   168    1
   137    83    84    1
   138   170   169    1
   139   170   173    1
   140    28    29    1
   141    33    34    1
   142   175   174    2
   143    51    50    2
   144    29    30    2
   145    50    49    1
   146   158   157    2
   147    84    85    1
   148   174   173    1
   149   174   176   am
   150    34    35    1
   151    53    52    1
   152   157   156    1
   153    52    49    1
   154    30    32    1
   155    30    31    1
   156    49    48    1
   157    36    35    2
   158    46    47   ar
   159    46    44   ar
   160    47    45   ar
   161    48    39   am
   162   156   155    1
   163   156   159    1
   164    44    42   ar
   165   160   159    1
   166   160   161    1
   167   163   162    1
   168    45    43   ar
   169    39    40    2
   170    39    38    1
   171   162   161    1
   172    42    43   ar
   173    42    41    1
   174    37    38    1
   175    38    41    1
