@<TRIPOS>MOLECULE
tmp/6gthA00.pdb
 91 85 0 0 0
SMALL
GASTEIGER

@<TRIPOS>ATOM
      1  N          0.9800    4.1370   21.4720 N.3    42  CYS42      -0.1221
      2  CA        -0.1830    3.2660   21.2640 C.3    42  CYS42       0.1808
      3  C          0.2490    1.8260   21.4540 C.2    42  CYS42       0.2601
      4  O          0.9500    1.5520   22.4320 O.2    42  CYS42      -0.2717
      5  CB        -0.8120    3.5250   19.9010 C.3    42  CYS42       0.0970
      6  SG        -1.3360    5.2860   19.7790 S.3    42  CYS42      -0.0800
      7  N         -0.1490    0.9170   20.5590 N.am   43  SER43      -0.1952
      8  CA         0.0510   -0.5100   20.8200 C.3    43  SER43       0.1924
      9  C          1.5110   -0.9410   20.7840 C.2    43  SER43       0.2314
     10  O          1.8150   -2.0730   21.1810 O.2    43  SER43      -0.2863
     11  CB        -0.7250   -1.3790   19.8250 C.3    43  SER43       0.2116
     12  OG        -2.1260   -1.3290   20.0740 O.3    43  SER43      -0.2180
     13  N        -11.7980   -2.2210   23.8450 N.3    77  ASN77      -0.1225
     14  CA       -12.2040   -1.8400   22.4930 C.3    77  ASN77       0.1785
     15  C        -11.7570   -2.7920   21.3920 C.2    77  ASN77       0.2597
     16  O        -12.3290   -2.7830   20.3070 O.2    77  ASN77      -0.2718
     17  CB       -11.6720   -0.4510   22.1660 C.3    77  ASN77       0.1169
     18  CG       -10.1680   -0.4050   22.1670 C.2    77  ASN77       0.2627
     19  OD1       -9.5280   -0.9770   23.0480 O.2    77  ASN77      -0.2716
     20  ND2       -9.5880    0.2550   21.1700 N.am   77  ASN77      -0.0877
     21  N        -10.7320   -3.5970   21.6480 N.am   78  TYR78      -0.1976
     22  CA       -10.1530   -4.4430   20.6070 C.3    78  TYR78       0.1639
     23  C         -9.5770   -5.7100   21.2200 C.2    78  TYR78       0.2290
     24  O         -8.4440   -5.7040   21.7030 O.2    78  TYR78      -0.2864
     25  CB        -9.0580   -3.6930   19.8300 C.3    78  TYR78       0.0560
     26  CG        -8.6420   -4.3910   18.5740 C.ar   78  TYR78      -0.0198
     27  CD1       -9.4730   -4.3990   17.4700 C.ar   78  TYR78      -0.0009
     28  CD2       -7.4340   -5.0510   18.4850 C.ar   78  TYR78      -0.0009
     29  CE1       -9.1110   -5.0330   16.3230 C.ar   78  TYR78       0.0417
     30  CE2       -7.0580   -5.6890   17.3260 C.ar   78  TYR78       0.0417
     31  CZ        -7.9010   -5.6770   16.2520 C.ar   78  TYR78       0.1957
     32  OH        -7.5480   -6.3060   15.0890 O.3    78  TYR78      -0.2866
     33  N         -2.3050   -7.8320   18.7050 N.3   103  SER103     -0.1217
     34  CA        -2.5340   -6.5430   19.3740 C.3   103  SER103      0.1889
     35  C         -3.8260   -6.5330   20.1490 C.2   103  SER103      0.2288
     36  O         -4.6250   -5.6050   20.0840 O.2   103  SER103     -0.2866
     37  CB        -2.5040   -5.3850   18.3820 C.3   103  SER103      0.2089
     38  OG        -1.9190   -4.2600   19.0290 O.3   103  SER103     -0.2183
     39  N         -5.9560   -5.7710   23.1130 N.3   105  ASN105     -0.1240
     40  CA        -5.8670   -4.7890   24.1880 C.3   105  ASN105      0.1653
     41  C         -6.2400   -5.3500   25.5380 C.2   105  ASN105      0.2266
     42  O         -5.7150   -4.9060   26.5340 O.2   105  ASN105     -0.2867
     43  CB        -6.7430   -3.5700   23.9020 C.3   105  ASN105      0.1155
     44  CG        -6.0770   -2.5950   22.9610 C.2   105  ASN105      0.2627
     45  OD1       -4.8780   -2.6910   22.7000 O.2   105  ASN105     -0.2716
     46  ND2       -6.8470   -1.6400   22.4490 N.am  105  ASN105     -0.0877
     47  N         -4.1720    5.2250   24.1290 N.3   143  ASN143     -0.1240
     48  CA        -4.0940    5.5250   22.7060 C.3   143  ASN143      0.1653
     49  C         -4.6820    6.8740   22.2640 C.2   143  ASN143      0.2266
     50  O         -4.8230    7.0950   21.0690 O.2   143  ASN143     -0.2867
     51  CB        -4.8060    4.4460   21.8890 C.3   143  ASN143      0.1155
     52  CG        -4.3600    3.0770   22.2490 C.2   143  ASN143      0.2627
     53  OD1       -3.2620    2.6500   21.8740 O.2   143  ASN143     -0.2716
     54  ND2       -5.1990    2.3660   22.9990 N.am  143  ASN143     -0.0877
     55  N         -0.1590   -8.2900   12.1160 N.3   189  THR189     -0.1218
     56  CA        -0.8060   -7.0070   11.8210 C.3   189  THR189      0.1862
     57  C          0.0610   -6.0420   11.0180 C.2   189  THR189      0.2287
     58  O         -0.3410   -4.9010   10.8360 O.2   189  THR189     -0.2866
     59  CB        -1.1800   -6.2500   13.0930 C.3   189  THR189      0.1770
     60  OG1        0.0330   -5.8920   13.7610 O.3   189  THR189     -0.2211
     61  CG2       -2.1020   -7.0660   13.9940 C.3   189  THR189      0.0375
     62  N          5.9800   -4.7660   15.7810 N.3   207  LYS207     -0.1231
     63  CA         4.7810   -4.4820   16.5220 C.3   207  LYS207      0.1693
     64  C          4.2540   -3.1580   16.0340 C.2   207  LYS207      0.2593
     65  O          4.9600   -2.1580   16.0810 O.2   207  LYS207     -0.2718
     66  CB         5.0360   -4.4060   18.0140 C.3   207  LYS207      0.0285
     67  CG         3.7960   -4.0810   18.8110 C.3   207  LYS207      0.0035
     68  CD         2.8760   -5.2910   18.9470 C.3   207  LYS207      0.0206
     69  CE         1.4730   -4.9090   19.3760 C.3   207  LYS207      0.1093
     70  NZ         0.7330   -4.3590   18.2110 N.3   207  LYS207     -0.1314
     71  N          3.0260   -3.1940   15.5480 N.am  208  THR208     -0.1939
     72  CA         2.3440   -2.0160   15.0440 C.3   208  THR208      0.2028
     73  C          1.5800   -1.3160   16.1600 C.2   208  THR208      0.2643
     74  O          1.4100   -1.8410   17.2680 O.2   208  THR208     -0.2714
     75  CB         1.3580   -2.4010   13.9540 C.3   208  THR208      0.1808
     76  OG1        0.4540   -3.3620   14.5190 O.3   208  THR208     -0.2208
     77  CG2        2.0730   -2.9970   12.7570 C.3   208  THR208      0.0379
     78  N          1.0840   -0.1240   15.8530 N.am  209  GLY209     -0.1939
     79  CA         0.1290    0.5280   16.7120 C.3   209  GLY209      0.2014
     80  C         -0.5320    1.6490   15.9560 C.2   209  GLY209      0.2640
     81  O         -0.0060    2.1040   14.9460 O.2   209  GLY209     -0.2714
     82  N         -1.6850    2.0680   16.4510 N.am  210  SER210     -0.1935
     83  CA        -2.4110    3.1750   15.8650 C.3   210  SER210      0.2055
     84  C         -3.2900    3.7930   16.9270 C.2   210  SER210      0.2643
     85  O         -3.5140    3.2230   17.9890 O.2   210  SER210     -0.2714
     86  CB        -3.2360    2.7250   14.6740 C.3   210  SER210      0.2130
     87  OG        -4.2480    1.8520   15.1000 O.3   210  SER210     -0.2179
     88  N         -3.7720    4.9940   16.6610 N.am  211  GLY211     -0.1954
     89  CA        -4.5190    5.7070   17.6720 C.3   211  GLY211      0.1869
     90  C         -5.1630    6.9070   17.0330 C.2   211  GLY211      0.2309
     91  O         -5.0830    7.0720   15.8190 O.2   211  GLY211     -0.2863
@<TRIPOS>BOND
     1    58    57    2
     2    57    56    1
     3    56    55    1
     4    56    59    1
     5    77    75    1
     6    59    60    1
     7    59    61    1
     8    75    76    1
     9    75    72    1
    10    86    87    1
    11    86    83    1
    12    81    80    2
    13    72    71    1
    14    72    73    1
    15    32    31    1
    16    71    64   am
    17    62    63    1
    18    91    90    2
    19    78    73   am
    20    78    79    1
    21    83    82    1
    22    83    84    1
    23    80    82   am
    24    80    79    1
    25    64    65    2
    26    64    63    1
    27    73    74    2
    28    31    29   ar
    29    31    30   ar
    30    29    27   ar
    31    63    66    1
    32    88    84   am
    33    88    89    1
    34    84    85    2
    35    90    89    1
    36    30    28   ar
    37    27    26   ar
    38    66    67    1
    39    70    69    1
    40    37    38    1
    41    37    34    1
    42    28    26   ar
    43    26    25    1
    44    33    34    1
    45    67    68    1
    46    68    69    1
    47    34    35    1
    48     6     5    1
    49    11    12    1
    50    11     8    1
    51    25    22    1
    52     5     2    1
    53    36    35    2
    54    16    15    2
    55     7     8    1
    56     7     3   am
    57    22    23    1
    58    22    21    1
    59     9     8    1
    60     9    10    2
    61    50    49    2
    62    20    18   am
    63    23    24    2
    64     2     3    1
    65     2     1    1
    66    15    21   am
    67    15    14    1
    68     3     4    2
    69    53    52    2
    70    51    52    1
    71    51    48    1
    72    17    18    1
    73    17    14    1
    74    18    19    2
    75    52    54   am
    76    49    48    1
    77    46    44   am
    78    14    13    1
    79    45    44    2
    80    48    47    1
    81    44    43    1
    82    39    40    1
    83    43    40    1
    84    40    41    1
    85    41    42    2
