@<TRIPOS>MOLECULE
tmp/6gttA00.pdb
 209 196 0 0 0
SMALL
GASTEIGER

@<TRIPOS>ATOM
      1  N         24.9340   20.1070  -16.7540 N.3    27  LEU27      -0.1245
      2  CA        24.0650   19.7970  -15.5950 C.3    27  LEU27       0.1561
      3  C         23.4990   21.0820  -14.9680 C.2    27  LEU27       0.2260
      4  O         23.3770   21.1810  -13.7420 O.2    27  LEU27      -0.2867
      5  CB        24.8670   18.9950  -14.5640 C.3    27  LEU27       0.0270
      6  CG        25.0750   17.5200  -14.8930 C.3    27  LEU27       0.0019
      7  CD1       26.0590   16.8880  -13.9240 C.3    27  LEU27       0.0001
      8  CD2       23.7560   16.7650  -14.8840 C.3    27  LEU27       0.0001
      9  N         28.3600   28.7950   -9.3400 N.3    32  PHE32      -0.1241
     10  CA        29.3520   27.7770   -8.9540 C.3    32  PHE32       0.1605
     11  C         30.3960   27.6340  -10.0760 C.2    32  PHE32       0.2264
     12  O         31.5770   27.9400   -9.8750 O.2    32  PHE32      -0.2867
     13  CB        28.6450   26.4600   -8.6000 C.3    32  PHE32       0.0534
     14  CG        29.5410   25.2560   -8.4120 C.ar   32  PHE32      -0.0203
     15  CD1       30.6730   25.3210   -7.6100 C.ar   32  PHE32      -0.0042
     16  CD2       29.2360   24.0440   -9.0180 C.ar   32  PHE32      -0.0042
     17  CE1       31.4890   24.2110   -7.4400 C.ar   32  PHE32      -0.0003
     18  CE2       30.0490   22.9340   -8.8380 C.ar   32  PHE32      -0.0003
     19  CZ        31.1750   23.0200   -8.0530 C.ar   32  PHE32      -0.0000
     20  N         29.8830   22.5190  -14.8540 N.3    35  VAL35      -0.1245
     21  CA        29.7060   21.1030  -14.5180 C.3    35  VAL35       0.1561
     22  C         29.0130   20.3810  -15.6800 C.2    35  VAL35       0.2260
     23  O         28.1280   20.9390  -16.3280 O.2    35  VAL35      -0.2867
     24  CB        28.8840   20.9380  -13.2290 C.3    35  VAL35       0.0252
     25  CG1       28.9260   19.5090  -12.7080 C.3    35  VAL35       0.0019
     26  CG2       29.3360   21.9120  -12.1560 C.3    35  VAL35       0.0019
     27  N         29.0930   13.1330  -12.5920 N.3    48  ALA48      -0.1245
     28  CA        29.1740   14.5680  -12.7880 C.3    48  ALA48       0.1562
     29  C         30.6410   14.9930  -12.7470 C.2    48  ALA48       0.2260
     30  O         31.3950   14.5220  -11.8960 O.2    48  ALA48      -0.2867
     31  CB        28.3750   15.2740  -11.7320 C.3    48  ALA48       0.0290
     32  N         33.3960   18.3950  -13.1740 N.3    50  LYS50      -0.1245
     33  CA        33.6540   19.8250  -13.2640 C.3    50  LYS50       0.1561
     34  C         35.0940   20.0410  -13.7330 C.2    50  LYS50       0.2260
     35  O         35.9950   19.2770  -13.3880 O.2    50  LYS50      -0.2867
     36  CB        33.3280   20.5420  -11.9510 C.3    50  LYS50       0.0271
     37  CG        34.3360   20.4220  -10.8170 C.3    50  LYS50       0.0035
     38  CD        34.2070   21.5920   -9.8560 C.3    50  LYS50       0.0206
     39  CE        34.7810   21.3290   -8.4830 C.3    50  LYS50       0.1093
     40  NZ        35.0010   22.5960   -7.7530 N.3    50  LYS50      -0.1314
     41  N         43.3200   20.3300   -3.4150 N.3    65  VAL65      -0.1231
     42  CA        42.9560   20.1410   -2.0050 C.3    65  VAL65       0.1692
     43  C         41.5660   19.4860   -1.9380 C.2    65  VAL65       0.2591
     44  O         41.3780   18.5150   -1.2110 O.2    65  VAL65      -0.2718
     45  CB        43.0370   21.4610   -1.2120 C.3    65  VAL65       0.0266
     46  CG1       42.4100   21.3520    0.1730 C.3    65  VAL65       0.0020
     47  CG2       44.4760   21.9480   -1.1050 C.3    65  VAL65       0.0020
     48  N         40.6260   19.9880   -2.7490 N.am   66  GLU66      -0.1979
     49  CA        39.2740   19.4360   -2.8590 C.3    66  GLU66       0.1602
     50  C         39.3110   17.9310   -3.1540 C.2    66  GLU66       0.2287
     51  O         38.4670   17.2000   -2.6350 O.2    66  GLU66      -0.2864
     52  CB        38.4770   20.1610   -3.9440 C.3    66  GLU66       0.0415
     53  CG        37.1280   19.5220   -4.2220 C.3    66  GLU66       0.1163
     54  CD        36.1340   20.4080   -4.9540 C.2    66  GLU66       0.3649
     55  OE1       34.9150   20.1730   -4.8140 O.co2  66  GLU66      -0.2457
     56  OE2       36.5750   21.3280   -5.6600 O.co2  66  GLU66      -0.2457
     57  N         40.5340   15.9430   -0.0710 N.3    69  ILE69      -0.1231
     58  CA        39.4380   15.8620    0.8990 C.3    69  ILE69       0.1692
     59  C         38.4010   14.8350    0.4090 C.2    69  ILE69       0.2591
     60  O         37.9930   13.9660    1.1790 O.2    69  ILE69      -0.2718
     61  CB        38.8350   17.2560    1.1890 C.3    69  ILE69       0.0266
     62  CG1       39.7800   18.0870    2.0620 C.3    69  ILE69       0.0019
     63  CG2       37.4500   17.1440    1.8210 C.3    69  ILE69       0.0020
     64  CD1       39.3980   19.5460    2.1980 C.3    69  ILE69       0.0001
     65  N         37.9960   14.9230   -0.8660 N.am   70  LEU70      -0.1980
     66  CA        36.9690   14.0270   -1.4390 C.3    70  LEU70       0.1596
     67  C         37.3990   12.5580   -1.3270 C.2    70  LEU70       0.2287
     68  O         36.5600   11.6840   -1.0990 O.2    70  LEU70      -0.2864
     69  CB        36.7040   14.3900   -2.9050 C.3    70  LEU70       0.0297
     70  CG        35.6780   15.4950   -3.1500 C.3    70  LEU70       0.0022
     71  CD1       35.6280   15.8670   -4.6220 C.3    70  LEU70       0.0001
     72  CD2       34.2930   15.0880   -2.6610 C.3    70  LEU70       0.0001
     73  N         37.3040   11.1420    2.3340 N.3    73  CYS73      -0.1235
     74  CA        35.9210   11.0750    2.8640 C.3    73  CYS73       0.1677
     75  C         35.0750   10.0490    2.0940 C.2    73  CYS73       0.2270
     76  O         34.1450   10.3970    1.3660 O.2    73  CYS73      -0.2867
     77  CB        35.2390   12.4370    2.8030 C.3    73  CYS73       0.0956
     78  SG        35.9490   13.6490    3.9430 S.3    73  CYS73      -0.0801
     79  N         28.0640   10.6370    1.8040 N.3    78  ILE78      -0.1231
     80  CA        28.9180   11.6890    1.2660 C.3    78  ILE78       0.1692
     81  C         29.1840   11.3750   -0.2110 C.2    78  ILE78       0.2591
     82  O         29.4120   10.2120   -0.5790 O.2    78  ILE78      -0.2718
     83  CB        30.2130   11.8130    2.0990 C.3    78  ILE78       0.0266
     84  CG1       29.9050   12.1540    3.5640 C.3    78  ILE78       0.0019
     85  CG2       31.1600   12.8240    1.4770 C.3    78  ILE78       0.0020
     86  CD1       31.1210   12.2920    4.4610 C.3    78  ILE78       0.0001
     87  N         29.1540   12.4110   -1.0580 N.am   79  VAL79      -0.1980
     88  CA        29.4940   12.2580   -2.4740 C.3    79  VAL79       0.1595
     89  C         30.7760   11.4120   -2.5650 C.2    79  VAL79       0.2287
     90  O         31.6250   11.4990   -1.6770 O.2    79  VAL79      -0.2864
     91  CB        29.6410   13.6210   -3.1830 C.3    79  VAL79       0.0276
     92  CG1       28.3190   14.3740   -3.2480 C.3    79  VAL79       0.0022
     93  CG2       30.7260   14.4860   -2.5620 C.3    79  VAL79       0.0022
     94  N         37.4960   16.9190  -12.0760 N.3    93  ILE93      -0.1245
     95  CA        37.0130   16.2460  -10.8590 C.3    93  ILE93       0.1561
     96  C         35.7200   15.4990  -11.1980 C.2    93  ILE93       0.2260
     97  O         34.8180   16.1010  -11.7850 O.2    93  ILE93      -0.2867
     98  CB        36.7220   17.2530   -9.7260 C.3    93  ILE93       0.0252
     99  CG1       37.7410   18.3940   -9.6510 C.3    93  ILE93       0.0019
    100  CG2       36.5800   16.5190   -8.4010 C.3    93  ILE93       0.0019
    101  CD1       39.0300   18.0260   -8.9730 C.3    93  ILE93       0.0001
    102  N         32.5780   12.6810   -9.5990 N.3    95  ILE95      -0.1231
    103  CA        31.8960   12.0010   -8.5350 C.3    95  ILE95       0.1692
    104  C         30.6330   11.3710   -9.1220 C.2    95  ILE95       0.2592
    105  O         30.1310   11.8110  -10.1640 O.2    95  ILE95      -0.2718
    106  CB        31.5830   12.9570   -7.3620 C.3    95  ILE95       0.0266
    107  CG1       30.9610   14.2810   -7.8220 C.3    95  ILE95       0.0019
    108  CG2       32.8290   13.1980   -6.5200 C.3    95  ILE95       0.0020
    109  CD1       29.4530   14.2870   -7.8590 C.3    95  ILE95       0.0001
    110  N         30.1580   10.3310   -8.4310 N.am   96  GLU96      -0.1966
    111  CA        28.9840    9.5710   -8.7980 C.3    96  GLU96       0.1733
    112  C         27.8090   10.5410   -8.9690 C.2    96  GLU96       0.2616
    113  O         27.5850   11.3980   -8.1260 O.2    96  GLU96      -0.2715
    114  CB        28.7500    8.5100   -7.7200 C.3    96  GLU96       0.0429
    115  CG        27.5590    7.6030   -7.9570 C.3    96  GLU96       0.1163
    116  CD        27.4690    6.4550   -6.9610 C.2    96  GLU96       0.3649
    117  OE1       26.6520    6.5480   -5.9970 O.co2  96  GLU96      -0.2457
    118  OE2       28.2120    5.4700   -7.1420 O.co2  96  GLU96      -0.2457
    119  N         27.0860   10.4080  -10.0840 N.am   97  PHE97      -0.1960
    120  CA        25.9130   11.2310  -10.3900 C.3    97  PHE97       0.1771
    121  C         24.8380   10.9700   -9.3220 C.2    97  PHE97       0.2619
    122  O         24.7670    9.8740   -8.7800 O.2    97  PHE97      -0.2715
    123  CB        25.4400   10.9360  -11.8180 C.3    97  PHE97       0.0574
    124  CG        24.2250   11.7060  -12.2720 C.ar   97  PHE97      -0.0200
    125  CD1       24.3160   13.0520  -12.5920 C.ar   97  PHE97      -0.0042
    126  CD2       22.9950   11.0810  -12.4030 C.ar   97  PHE97      -0.0042
    127  CE1       23.1980   13.7600  -13.0090 C.ar   97  PHE97      -0.0003
    128  CE2       21.8790   11.7920  -12.8210 C.ar   97  PHE97      -0.0003
    129  CZ        21.9820   13.1290  -13.1250 C.ar   97  PHE97      -0.0000
    130  N         24.0410   11.9980   -9.0010 N.am   98  CYS98      -0.1968
    131  CA        22.9680   11.9200   -7.9830 C.3    98  CYS98       0.1712
    132  C         21.6380   12.3270   -8.6170 C.2    98  CYS98       0.2296
    133  O         21.3740   13.5170   -8.8030 O.2    98  CYS98      -0.2864
    134  CB        23.2570   12.8020   -6.7710 C.3    98  CYS98       0.0983
    135  SG        24.6920   12.2540   -5.8080 S.3    98  CYS98      -0.0798
    136  N         18.2490   14.8140   -6.8010 N.3   101  GLY101     -0.1225
    137  CA        18.2710   16.2790   -6.7570 C.3   101  GLY101      0.1811
    138  C         18.5110   16.7950   -5.3430 C.2   101  GLY101      0.2280
    139  O         18.2770   16.0820   -4.3650 O.2   101  GLY101     -0.2866
    140  N         33.0610   13.3250    9.4920 N.3   133  LEU133     -0.1245
    141  CA        33.8530   14.4840    9.0510 C.3   133  LEU133      0.1561
    142  C         34.7080   15.0010   10.2130 C.2   133  LEU133      0.2260
    143  O         35.8880   15.3000   10.0410 O.2   133  LEU133     -0.2867
    144  CB        32.9290   15.5920    8.5350 C.3   133  LEU133      0.0270
    145  CG        32.5130   15.5000    7.0670 C.3   133  LEU133      0.0019
    146  CD1       31.4440   16.5330    6.7420 C.3   133  LEU133      0.0001
    147  CD2       33.7060   15.6730    6.1360 C.3   133  LEU133      0.0001
    148  N         37.8430   17.4510    9.8870 N.3   138  ILE138     -0.1245
    149  CA        37.4280   18.2080    8.7080 C.3   138  ILE138      0.1561
    150  C         36.1240   18.9320    9.0430 C.2   138  ILE138      0.2260
    151  O         35.1830   18.3040    9.4840 O.2   138  ILE138     -0.2867
    152  CB        37.2650   17.2880    7.4760 C.3   138  ILE138      0.0252
    153  CG1       38.6220   16.8370    6.9280 C.3   138  ILE138      0.0019
    154  CG2       36.4270   17.9650    6.3990 C.3   138  ILE138      0.0019
    155  CD1       38.5480   15.7790    5.8440 C.3   138  ILE138      0.0001
    156  N         32.9790   21.4180    7.5820 N.3   140  HIS140     -0.1241
    157  CA        32.2740   21.6940    6.3300 C.3   140  HIS140      0.1621
    158  C         32.2370   23.2060    6.0560 C.2   140  HIS140      0.2264
    159  O         32.7290   23.6490    5.0260 O.2   140  HIS140     -0.2867
    160  CB        30.8780   21.0610    6.3580 C.3   140  HIS140      0.0745
    161  CG        30.1450   21.1760    5.0660 C.ar  140  HIS140      0.0817
    162  ND1       29.8280   22.3960    4.5030 N.ar  140  HIS140     -0.2268
    163  CD2       29.6510   20.2410    4.2330 C.ar  140  HIS140      0.1154
    164  CE1       29.1750   22.2090    3.3760 C.ar  140  HIS140      0.1986
    165  NE2       29.0560   20.8990    3.1890 N.ar  140  HIS140     -0.2212
    166  N         22.2610   16.4020   -1.4720 N.3   149  LEU149     -0.1245
    167  CA        21.8250   15.7540   -2.7270 C.3   149  LEU149      0.1561
    168  C         21.1630   14.4080   -2.4050 C.2   149  LEU149      0.2260
    169  O         21.3760   13.8350   -1.3270 O.2   149  LEU149     -0.2867
    170  CB        23.0420   15.5800   -3.6410 C.3   149  LEU149      0.0270
    171  CG        23.8930   16.8330   -3.8630 C.3   149  LEU149      0.0019
    172  CD1       24.9240   16.6020   -4.9590 C.3   149  LEU149      0.0001
    173  CD2       23.0270   18.0370   -4.2070 C.3   149  LEU149      0.0001
    174  N         25.9650   14.1850    0.9200 N.3   158  LEU158     -0.1231
    175  CA        26.4180   15.5230    1.3540 C.3   158  LEU158      0.1693
    176  C         27.4850   16.0660    0.3850 C.2   158  LEU158      0.2592
    177  O         28.5010   15.4130    0.1420 O.2   158  LEU158     -0.2718
    178  CB        26.9730   15.4300    2.7790 C.3   158  LEU158      0.0284
    179  CG        27.3890   16.7550    3.4180 C.3   158  LEU158      0.0019
    180  CD1       26.1850   17.6480    3.6520 C.3   158  LEU158      0.0001
    181  CD2       28.1300   16.5190    4.7210 C.3   158  LEU158      0.0001
    182  N         27.2470   17.2870   -0.1200 N.am  159  ALA159     -0.1966
    183  CA        28.1100   17.9880   -1.0670 C.3   159  ALA159      0.1728
    184  C         28.5380   19.3490   -0.4880 C.2   159  ALA159      0.2616
    185  O         28.2070   19.6850    0.6480 O.2   159  ALA159     -0.2715
    186  CB        27.3670   18.1510   -2.3680 C.3   159  ALA159      0.0334
    187  N         29.2720   20.1230   -1.2990 N.am  160  ASP160     -0.1957
    188  CA        29.7720   21.4480   -0.9580 C.3   160  ASP160      0.1840
    189  C         30.2110   22.1610   -2.2460 C.2   160  ASP160      0.2622
    190  O         31.2370   21.8260   -2.7890 O.2   160  ASP160     -0.2715
    191  CB        30.9340   21.3400    0.0370 C.3   160  ASP160      0.1450
    192  CG        31.6030   22.6610    0.4050 C.2   160  ASP160      0.3671
    193  OD1       31.0420   23.7250    0.0720 O.co2 160  ASP160     -0.2456
    194  OD2       32.6840   22.6150    1.0290 O.co2 160  ASP160     -0.2456
    195  N         29.4190   23.1470   -2.6880 N.am  161  PHE161     -0.1960
    196  CA        29.6400   23.9580   -3.8980 C.3   161  PHE161      0.1771
    197  C         30.3800   25.2580   -3.5090 C.2   161  PHE161      0.2620
    198  O         29.7730   26.3300   -3.3910 O.2   161  PHE161     -0.2715
    199  CB        28.3080   24.3460   -4.5620 C.3   161  PHE161      0.0574
    200  CG        27.3290   23.2680   -4.9820 C.ar  161  PHE161     -0.0200
    201  CD1       27.0020   22.1960   -4.1620 C.ar  161  PHE161     -0.0042
    202  CD2       26.6390   23.3890   -6.1840 C.ar  161  PHE161     -0.0042
    203  CE1       26.0660   21.2480   -4.5550 C.ar  161  PHE161     -0.0003
    204  CE2       25.7050   22.4410   -6.5790 C.ar  161  PHE161     -0.0003
    205  CZ        25.4150   21.3730   -5.7610 C.ar  161  PHE161     -0.0000
    206  N         31.6960   25.1760   -3.2960 N.am  162  GLY162     -0.1954
    207  CA        32.4730   26.2880   -2.7250 C.3   162  GLY162      0.1869
    208  C         32.6090   27.4680   -3.6720 C.2   162  GLY162      0.2309
    209  O         33.7220   27.9750   -3.8850 O.2   162  GLY162     -0.2863
@<TRIPOS>BOND
     1     1     2    1
     2    23    22    2
     3    22    21    1
     4     2     3    1
     5     2     5    1
     6     3     4    2
     7     6     8    1
     8     6     5    1
     9     6     7    1
    10    20    21    1
    11    21    24    1
    12    34    35    2
    13    34    33    1
    14    33    32    1
    15    33    36    1
    16    24    25    1
    17    24    26    1
    18   129   127   ar
    19   129   128   ar
    20   127   125   ar
    21   128   126   ar
    22    28    29    1
    23    28    27    1
    24    28    31    1
    25    29    30    2
    26   125   124   ar
    27   126   124   ar
    28   124   123    1
    29    94    95    1
    30    36    37    1
    31   123   120    1
    32    97    96    2
    33    96    95    1
    34    95    98    1
    35    37    38    1
    36   120   119    1
    37   120   121    1
    38   105   104    2
    39   119   112   am
    40    11    12    2
    41    11    10    1
    42    38    39    1
    43    98    99    1
    44    98   100    1
    45    99   101    1
    46   102   103    1
    47     9    10    1
    48   121   130   am
    49   121   122    2
    50   104   103    1
    51   104   110   am
    52    16    18   ar
    53    16    14   ar
    54   130   131    1
    55   112   111    1
    56   112   113    2
    57    10    13    1
    58    18    19   ar
    59   133   132    2
    60   111   110    1
    61   111   114    1
    62   132   131    1
    63    13    14    1
    64   103   106    1
    65    39    40    1
    66    14    15   ar
    67    19    17   ar
    68   131   134    1
    69   115   114    1
    70   115   116    1
    71   109   107    1
    72   107   106    1
    73    15    17   ar
    74   106   108    1
    75   118   116   ar
    76   116   117   ar
    77   136   137    1
    78   134   135    1
    79   137   138    1
    80   204   202   ar
    81   204   205   ar
    82   202   200   ar
    83   205   203   ar
    84    56    54   ar
    85   138   139    2
    86   200   199    1
    87   200   201   ar
    88   172   171    1
    89    54    55   ar
    90    54    53    1
    91    71    70    1
    92   199   196    1
    93   203   201   ar
    94    53    52    1
    95   173   171    1
    96    52    49    1
    97   196   197    1
    98   196   195    1
    99   209   208    2
   100   171   170    1
   101   208   207    1
   102   170   167    1
   103   197   198    2
   104   197   206   am
   105    41    42    1
   106   206   207    1
   107    92    91    1
   108    91    93    1
   109    91    88    1
   110    50    49    1
   111    50    51    2
   112    70    69    1
   113    70    72    1
   114    69    66    1
   115    49    48    1
   116   190   189    2
   117    48    43   am
   118   167   168    1
   119   167   166    1
   120   195   189   am
   121    89    88    1
   122    89    90    2
   123    88    87    1
   124   168   169    2
   125   186   183    1
   126   189   188    1
   127    42    43    1
   128    42    45    1
   129    43    44    2
   130    66    67    1
   131    66    65    1
   132    67    68    2
   133   187   188    1
   134   187   184   am
   135    45    47    1
   136    45    46    1
   137   183   184    1
   138   183   182    1
   139    87    81   am
   140   188   191    1
   141    65    59   am
   142    82    81    2
   143   184   185    2
   144    81    80    1
   145   182   176   am
   146    57    58    1
   147   191   192    1
   148   193   192   ar
   149   177   176    2
   150   176   175    1
   151   192   194   ar
   152    59    58    1
   153    59    60    2
   154    58    61    1
   155   174   175    1
   156    61    63    1
   157    61    62    1
   158    80    79    1
   159    80    83    1
   160   175   178    1
   161    76    75    2
   162    85    83    1
   163    62    64    1
   164    75    74    1
   165    83    84    1
   166    73    74    1
   167   178   179    1
   168    77    74    1
   169    77    78    1
   170   165   164   ar
   171   165   163   ar
   172   164   162   ar
   173   179   180    1
   174   179   181    1
   175    84    86    1
   176   163   161   ar
   177   162   161   ar
   178   159   158    2
   179   161   160    1
   180   155   153    1
   181   158   157    1
   182   147   145    1
   183   157   160    1
   184   157   156    1
   185   154   152    1
   186   146   145    1
   187   153   152    1
   188   145   144    1
   189   152   149    1
   190   144   141    1
   191   149   150    1
   192   149   148    1
   193   150   151    2
   194   141   140    1
   195   141   142    1
   196   143   142    2
