@<TRIPOS>MOLECULE
tmp/6gtwA00.pdb
 123 117 0 0 0
SMALL
GASTEIGER

@<TRIPOS>ATOM
      1  N        101.6790  165.2980  -10.4890 N.3     1  PHE1       -0.1241
      2  CA       102.0690  164.4160   -9.3540 C.3     1  PHE1        0.1605
      3  C        101.2550  164.8090   -8.1300 C.2     1  PHE1        0.2264
      4  O        101.0860  165.9920   -7.8410 O.2     1  PHE1       -0.2867
      5  CB       103.5540  164.5140   -9.0510 C.3     1  PHE1        0.0534
      6  CG       103.9790  163.7030   -7.8530 C.ar    1  PHE1       -0.0203
      7  CD1      103.9630  164.2570   -6.5810 C.ar    1  PHE1       -0.0042
      8  CD2      104.3830  162.3850   -7.9960 C.ar    1  PHE1       -0.0042
      9  CE1      104.3490  163.5190   -5.4850 C.ar    1  PHE1       -0.0003
     10  CE2      104.7690  161.6430   -6.8970 C.ar    1  PHE1       -0.0003
     11  CZ       104.7510  162.2150   -5.6380 C.ar    1  PHE1       -0.0000
     12  N         98.5030  168.5640   -6.7740 N.3    13  ILE13      -0.1231
     13  CA        99.6160  169.0450   -7.5830 C.3    13  ILE13       0.1692
     14  C        100.2040  170.2700   -6.9120 C.2    13  ILE13       0.2592
     15  O         99.4700  171.1760   -6.5080 O.2    13  ILE13      -0.2718
     16  CB        99.1190  169.3740   -9.0050 C.3    13  ILE13       0.0266
     17  CG1       98.8100  168.0890   -9.7770 C.3    13  ILE13       0.0019
     18  CG2      100.1210  170.2610   -9.7250 C.3    13  ILE13       0.0020
     19  CD1       97.6370  168.2410  -10.7380 C.3    13  ILE13       0.0001
     20  N        101.5300  170.3090   -6.7870 N.am   14  GLY14      -0.1957
     21  CA       102.1980  171.4430   -6.1830 C.3    14  GLY14       0.1869
     22  C        102.5590  171.2880   -4.7220 C.2    14  GLY14       0.2309
     23  O        103.2700  172.1470   -4.1880 O.2    14  GLY14      -0.2863
     24  N        101.9180  159.6340  -10.7510 N.3    46  ASN46      -0.1225
     25  CA       102.3830  160.5360  -11.7960 C.3    46  ASN46       0.1785
     26  C        101.2070  160.8480  -12.7100 C.2    46  ASN46       0.2597
     27  O        100.5330  159.9290  -13.1810 O.2    46  ASN46      -0.2718
     28  CB       103.5200  159.8490  -12.5600 C.3    46  ASN46       0.1169
     29  CG       104.1140  160.7040  -13.6480 C.2    46  ASN46       0.2627
     30  OD1      103.4420  161.5490  -14.2360 O.2    46  ASN46      -0.2716
     31  ND2      105.3790  160.4540  -13.9600 N.am   46  ASN46      -0.0877
     32  N        100.9510  162.1360  -12.9490 N.am   47  ASP47      -0.1960
     33  CA        99.7680  162.5140  -13.7130 C.3    47  ASP47       0.1840
     34  C         99.9770  162.4820  -15.2210 C.2    47  ASP47       0.2622
     35  O         98.9940  162.4970  -15.9680 O.2    47  ASP47      -0.2715
     36  CB        99.2970  163.9170  -13.3260 C.3    47  ASP47       0.1450
     37  CG        98.4980  163.9310  -12.0420 C.2    47  ASP47       0.3671
     38  OD1       97.4930  163.1890  -11.9620 O.co2  47  ASP47      -0.2456
     39  OD2       98.8730  164.6760  -11.1120 O.co2  47  ASP47      -0.2456
     40  N        101.2150  162.4400  -15.6880 N.am   48  TYR48      -0.1974
     41  CA       101.4950  162.4610  -17.1200 C.3    48  TYR48       0.1639
     42  C        102.7030  161.5720  -17.3930 C.2    48  TYR48       0.2290
     43  O        103.7370  162.0440  -17.8860 O.2    48  TYR48      -0.2864
     44  CB       101.7320  163.8980  -17.5810 C.3    48  TYR48       0.0560
     45  CG       100.5110  164.7970  -17.4330 C.ar   48  TYR48      -0.0198
     46  CD1       99.5760  164.9090  -18.4540 C.ar   48  TYR48      -0.0009
     47  CD2      100.2970  165.5280  -16.2720 C.ar   48  TYR48      -0.0009
     48  CE1       98.4600  165.7290  -18.3240 C.ar   48  TYR48       0.0417
     49  CE2       99.1860  166.3480  -16.1310 C.ar   48  TYR48       0.0417
     50  CZ        98.2730  166.4460  -17.1580 C.ar   48  TYR48       0.1957
     51  OH        97.1730  167.2600  -17.0110 O.3    48  TYR48      -0.2866
     52  N        106.5650  162.4560  -18.6620 N.3    52  ILE52      -0.1245
     53  CA       107.3020  162.9890  -17.5280 C.3    52  ILE52       0.1561
     54  C        107.6730  161.8780  -16.5610 C.2    52  ILE52       0.2260
     55  O        106.8790  160.9660  -16.3010 O.2    52  ILE52      -0.2867
     56  CB       106.4730  164.0870  -16.8320 C.3    52  ILE52       0.0252
     57  CG1      106.1650  165.1850  -17.8510 C.3    52  ILE52       0.0019
     58  CG2      107.2090  164.6460  -15.6400 C.3    52  ILE52       0.0019
     59  CD1      105.1550  166.1920  -17.3870 C.3    52  ILE52       0.0001
     60  N        108.7030  161.4910  -12.6190 N.3    54  ASP54      -0.1239
     61  CA       108.6800  162.1770  -11.3330 C.3    54  ASP54       0.1674
     62  C        109.6770  161.5440  -10.3700 C.2    54  ASP54       0.2266
     63  O        109.7760  160.3150  -10.2750 O.2    54  ASP54      -0.2867
     64  CB       107.2770  162.1510  -10.7270 C.3    54  ASP54       0.1410
     65  CG       106.3060  163.0340  -11.4850 C.2    54  ASP54       0.3668
     66  OD1      106.7290  164.1150  -11.9470 O.co2  54  ASP54      -0.2456
     67  OD2      105.1250  162.6530  -11.6130 O.co2  54  ASP54      -0.2456
     68  N        109.3020  166.3780   -4.2860 N.3   133  GLN133     -0.1245
     69  CA       109.0390  165.9010   -5.6350 C.3   133  GLN133      0.1566
     70  C        109.6130  166.8660   -6.6600 C.2   133  GLN133      0.2260
     71  O        109.3870  168.0780   -6.5800 O.2   133  GLN133     -0.2867
     72  CB       107.5340  165.7220   -5.8580 C.3   133  GLN133      0.0367
     73  CG       107.1680  165.2680   -7.2510 C.3   133  GLN133      0.0905
     74  CD       106.4590  166.3430   -8.0450 C.2   133  GLN133      0.2608
     75  OE1      105.6200  167.0670   -7.5140 O.2   133  GLN133     -0.2717
     76  NE2      106.8020  166.4600   -9.3210 N.am  133  GLN133     -0.0878
     77  N        110.9930  166.6450  -11.1710 N.3   135  ASN135     -0.1240
     78  CA       110.7550  165.8890  -12.3900 C.3   135  ASN135      0.1653
     79  C        111.8700  166.1520  -13.3930 C.2   135  ASN135      0.2266
     80  O        112.7990  166.9230  -13.1430 O.2   135  ASN135     -0.2867
     81  CB       109.3870  166.2420  -12.9970 C.3   135  ASN135      0.1155
     82  CG       109.2880  167.7070  -13.4020 C.2   135  ASN135      0.2627
     83  OD1      110.2520  168.2960  -13.8980 O.2   135  ASN135     -0.2716
     84  ND2      108.1130  168.2960  -13.2050 N.am  135  ASN135     -0.0877
     85  N        111.2280  167.4360  -16.3830 N.3   137  TYR137     -0.1227
     86  CA       110.5390  168.2350  -17.3900 C.3   137  TYR137      0.1736
     87  C        110.6460  169.7370  -17.1900 C.2   137  TYR137      0.2595
     88  O        110.8230  170.4620  -18.1730 O.2   137  TYR137     -0.2718
     89  CB       109.0490  167.8230  -17.3820 C.3   137  TYR137      0.0548
     90  CG       108.0970  168.7220  -18.1340 C.ar  137  TYR137     -0.0200
     91  CD1      107.9260  168.5830  -19.5010 C.ar  137  TYR137     -0.0009
     92  CD2      107.3470  169.6880  -17.4760 C.ar  137  TYR137     -0.0009
     93  CE1      107.0470  169.3920  -20.2020 C.ar  137  TYR137      0.0417
     94  CE2      106.4690  170.5060  -18.1670 C.ar  137  TYR137      0.0417
     95  CZ       106.3230  170.3520  -19.5280 C.ar  137  TYR137      0.1957
     96  OH       105.4460  171.1610  -20.2090 O.3   137  TYR137     -0.2866
     97  N        110.5640  170.2260  -15.9600 N.am  138  ASN138     -0.1974
     98  CA       110.6870  171.6540  -15.6980 C.3   138  ASN138      0.1688
     99  C        111.3060  171.8330  -14.3140 C.2   138  ASN138      0.2292
    100  O        111.9370  170.9170  -13.7770 O.2   138  ASN138     -0.2864
    101  CB       109.3240  172.3480  -15.8880 C.3   138  ASN138      0.1181
    102  CG       108.2830  171.9110  -14.8760 C.2   138  ASN138      0.2629
    103  OD1      108.5780  171.1790  -13.9330 O.2   138  ASN138     -0.2716
    104  ND2      107.0470  172.3460  -15.0850 N.am  138  ASN138     -0.0877
    105  N        109.8750  172.3690  -11.3960 N.3   140  ASP140     -0.1239
    106  CA       109.0290  172.0450  -10.2550 C.3   140  ASP140      0.1674
    107  C        109.8220  171.3960   -9.1300 C.2   140  ASP140      0.2266
    108  O        110.5800  170.4460   -9.3480 O.2   140  ASP140     -0.2867
    109  CB       107.8930  171.1230  -10.6940 C.3   140  ASP140      0.1410
    110  CG       106.8390  171.8460  -11.5060 C.2   140  ASP140      0.3668
    111  OD1      106.9520  173.0790  -11.6690 O.co2 140  ASP140     -0.2456
    112  OD2      105.8880  171.1850  -11.9710 O.co2 140  ASP140     -0.2456
    113  N        108.6270  170.6150   -5.2210 N.3   142  PHE142     -0.1241
    114  CA       107.5060  170.7210   -4.2990 C.3   142  PHE142      0.1605
    115  C        107.7210  169.8930   -3.0400 C.2   142  PHE142      0.2264
    116  O        108.3550  168.8330   -3.0720 O.2   142  PHE142     -0.2867
    117  CB       106.1870  170.2620   -4.9550 C.3   142  PHE142      0.0534
    118  CG       105.8220  171.0240   -6.1870 C.ar  142  PHE142     -0.0203
    119  CD1      105.8930  172.4050   -6.2100 C.ar  142  PHE142     -0.0042
    120  CD2      105.4150  170.3560   -7.3300 C.ar  142  PHE142     -0.0042
    121  CE1      105.5580  173.1080   -7.3500 C.ar  142  PHE142     -0.0003
    122  CE2      105.0810  171.0530   -8.4730 C.ar  142  PHE142     -0.0003
    123  CZ       105.1530  172.4320   -8.4820 C.ar  142  PHE142     -0.0000
@<TRIPOS>BOND
     1    96    95    1
     2    93    95   ar
     3    93    91   ar
     4    95    94   ar
     5    91    90   ar
     6    52    53    1
     7    46    48   ar
     8    46    45   ar
     9    48    50   ar
    10    88    87    2
    11    94    92   ar
    12    90    92   ar
    13    90    89    1
    14    43    42    2
    15    57    59    1
    16    57    56    1
    17    44    45    1
    18    44    41    1
    19    53    56    1
    20    53    54    1
    21    45    47   ar
    22    42    41    1
    23    86    89    1
    24    86    87    1
    25    86    85    1
    26    87    97   am
    27    50    51    1
    28    50    49   ar
    29    41    40    1
    30    56    58    1
    31    54    55    2
    32    47    49   ar
    33    35    34    2
    34    97    98    1
    35   101    98    1
    36   101   102    1
    37    98    99    1
    38    40    34   am
    39    34    33    1
    40   104   102   am
    41   102   103    2
    42    99   100    2
    43    30    29    2
    44    31    29   am
    45    83    82    2
    46    33    36    1
    47    33    32    1
    48    29    28    1
    49    82    84   am
    50    82    81    1
    51    79    80    2
    52    79    78    1
    53    36    37    1
    54    27    26    2
    55    81    78    1
    56    32    26   am
    57    26    25    1
    58    60    61    1
    59    28    25    1
    60    78    77    1
    61    37    38   ar
    62    37    39   ar
    63   112   110   ar
    64    66    65   ar
    65    25    24    1
    66   111   110   ar
    67    67    65   ar
    68   110   109    1
    69    65    64    1
    70   105   106    1
    71    61    64    1
    72    61    62    1
    73    19    17    1
    74   109   106    1
    75     1     2    1
    76    62    63    2
    77   106   107    1
    78    17    16    1
    79    18    16    1
    80     2     5    1
    81     2     3    1
    82   108   107    2
    83    76    74   am
    84     5     6    1
    85    16    13    1
    86   123   122   ar
    87   123   121   ar
    88   122   120   ar
    89     3     4    2
    90    74    75    2
    91    74    73    1
    92     8     6   ar
    93     8    10   ar
    94     6     7   ar
    95    13    14    1
    96    13    12    1
    97   121   119   ar
    98   120   118   ar
    99    73    72    1
   100    14    20   am
   101    14    15    2
   102    10    11   ar
   103    20    21    1
   104    70    71    2
   105    70    69    1
   106     7     9   ar
   107   119   118   ar
   108   118   117    1
   109    21    22    1
   110    72    69    1
   111    11     9   ar
   112    69    68    1
   113   113   114    1
   114   117   114    1
   115    22    23    2
   116   114   115    1
   117   116   115    2
