@<TRIPOS>MOLECULE
tmp/6gu6A00.pdb
 179 169 0 0 0
SMALL
GASTEIGER

@<TRIPOS>ATOM
      1  N         26.4310   22.5190  -13.4890 N.3     8  GLU8       -0.1245
      2  CA        27.5380   21.8290  -12.8360 C.3     8  GLU8        0.1567
      3  C         27.0640   21.0160  -11.6520 C.2     8  GLU8        0.2260
      4  O         25.9550   21.1920  -11.1930 O.2     8  GLU8       -0.2867
      5  CB        28.5760   22.8400  -12.3540 C.3     8  GLU8        0.0388
      6  CG        28.1180   23.6790  -11.1770 C.3     8  GLU8        0.1160
      7  CD        28.9870   24.8980  -10.9430 C.2     8  GLU8        0.3649
      8  OE1       29.6280   25.3640  -11.9120 O.co2   8  GLU8       -0.2457
      9  OE2       29.0280   25.3960   -9.7910 O.co2   8  GLU8       -0.2457
     10  N         27.1520   19.9030   -7.7950 N.3    10  ILE10      -0.1231
     11  CA        27.4900   20.5870   -6.5210 C.3    10  ILE10       0.1692
     12  C         27.7570   19.6960   -5.3220 C.2    10  ILE10       0.2593
     13  O         28.3950   20.1210   -4.3650 O.2    10  ILE10      -0.2718
     14  CB        26.4920   21.6940   -6.1590 C.3    10  ILE10       0.0266
     15  CG1       25.1170   21.1430   -5.7860 C.3    10  ILE10       0.0019
     16  CG2       26.4200   22.6840   -7.3140 C.3    10  ILE10       0.0020
     17  CD1       24.1290   22.2320   -5.4330 C.3    10  ILE10       0.0001
     18  N         27.2570   18.4730   -5.3740 N.am   11  GLY11      -0.1942
     19  CA        27.7460   17.4340   -4.5040 C.3    11  GLY11       0.2014
     20  C         26.9580   16.1570   -4.5690 C.2    11  GLY11       0.2639
     21  O         26.0630   15.9810   -5.3870 O.2    11  GLY11      -0.2714
     22  N         27.3150   15.2740   -3.6630 N.am   12  GLU12      -0.1963
     23  CA        26.6920   13.9850   -3.5350 C.3    12  GLU12       0.1733
     24  C         26.0670   14.0110   -2.1680 C.2    12  GLU12       0.2616
     25  O         26.7070   14.3930   -1.1870 O.2    12  GLU12      -0.2715
     26  CB        27.7320   12.8640   -3.6550 C.3    12  GLU12       0.0429
     27  CG        27.6380   12.0220   -4.9420 C.3    12  GLU12       0.1163
     28  CD        26.8380   10.7100   -4.7980 C.2    12  GLU12       0.3649
     29  OE1       27.0340    9.7850   -5.6560 O.co2  12  GLU12      -0.2457
     30  OE2       26.0210   10.5930   -3.8340 O.co2  12  GLU12      -0.2457
     31  N         24.7910   13.6740   -2.1190 N.am   13  GLY13      -0.1955
     32  CA        24.0700   13.5810   -0.8750 C.3    13  GLY13       0.1869
     33  C         23.5300   12.1790   -0.7460 C.2    13  GLY13       0.2309
     34  O         23.9340   11.2720   -1.4880 O.2    13  GLY13      -0.2863
     35  N         23.6600   16.0280   -6.8690 N.3    18  VAL18      -0.1245
     36  CA        22.8730   17.2200   -7.0020 C.3    18  VAL18       0.1561
     37  C         23.5600   18.1550   -7.9520 C.2    18  VAL18       0.2260
     38  O         24.7410   18.4460   -7.7820 O.2    18  VAL18      -0.2867
     39  CB        22.7820   17.9070   -5.6510 C.3    18  VAL18       0.0252
     40  CG1       21.9490   19.1670   -5.7550 C.3    18  VAL18       0.0019
     41  CG2       22.2200   16.9350   -4.6270 C.3    18  VAL18       0.0019
     42  N         23.7250   22.0180   -9.9470 N.3    20  LYS20      -0.1245
     43  CA        23.2870   23.3830  -10.2150 C.3    20  LYS20       0.1561
     44  C         22.7950   23.3570  -11.6210 C.2    20  LYS20       0.2260
     45  O         23.3890   22.6960  -12.4490 O.2    20  LYS20      -0.2867
     46  CB        24.4400   24.3800  -10.1100 C.3    20  LYS20       0.0271
     47  CG        24.0560   25.8410  -10.1690 C.3    20  LYS20       0.0035
     48  CD        25.1390   26.6670   -9.4890 C.3    20  LYS20       0.0206
     49  CE        24.9850   28.1620   -9.7040 C.3    20  LYS20       0.1093
     50  NZ        25.7180   28.6640  -10.9140 N.3    20  LYS20      -0.1314
     51  N         18.3970   23.9320   -8.0850 N.3    31  ALA31      -0.1245
     52  CA        19.1450   22.7780   -7.6540 C.3    31  ALA31       0.1562
     53  C         18.4130   21.5650   -8.1540 C.2    31  ALA31       0.2260
     54  O         17.2270   21.5040   -8.0030 O.2    31  ALA31      -0.2867
     55  CB        19.2590   22.7640   -6.1470 C.3    31  ALA31       0.0290
     56  N         18.2090   17.3550   -8.2850 N.3    33  LYS33      -0.1245
     57  CA        18.6410   16.2270   -7.4970 C.3    33  LYS33       0.1561
     58  C         18.2430   14.9980   -8.2330 C.2    33  LYS33       0.2260
     59  O         17.0830   14.7610   -8.4230 O.2    33  LYS33      -0.2867
     60  CB        17.9210   16.2910   -6.1850 C.3    33  LYS33       0.0271
     61  CG        18.3930   15.2940   -5.1800 C.3    33  LYS33       0.0035
     62  CD        17.7390   15.5610   -3.8300 C.3    33  LYS33       0.0206
     63  CE        18.7230   15.6490   -2.6710 C.3    33  LYS33       0.1093
     64  NZ        18.9390   17.0070   -2.0870 N.3    33  LYS33      -0.1314
     65  N         13.3040   23.9950    2.2620 N.3    64  VAL64      -0.1245
     66  CA        13.6360   24.1310    0.8430 C.3    64  VAL64       0.1561
     67  C         12.4560   23.6450   -0.0100 C.2    64  VAL64       0.2260
     68  O         12.0790   22.5040    0.0620 O.2    64  VAL64      -0.2867
     69  CB        14.8850   23.3130    0.4880 C.3    64  VAL64       0.0252
     70  CG1       15.2730   23.5700   -0.9380 C.3    64  VAL64       0.0019
     71  CG2       16.0550   23.7410    1.3600 C.3    64  VAL64       0.0019
     72  N         14.6150   22.1030   -6.9150 N.3    80  PHE80      -0.1227
     73  CA        14.5030   22.9350   -5.7320 C.3    80  PHE80       0.1736
     74  C         15.0650   24.2960   -6.0350 C.2    80  PHE80       0.2595
     75  O         15.8760   24.4750   -6.9510 O.2    80  PHE80      -0.2718
     76  CB        15.3590   22.3560   -4.5640 C.3    80  PHE80       0.0547
     77  CG        14.9770   20.9550   -4.1610 C.ar   80  PHE80      -0.0202
     78  CD1       15.5400   19.8690   -4.7890 C.ar   80  PHE80      -0.0042
     79  CD2       14.0530   20.7260   -3.1570 C.ar   80  PHE80      -0.0042
     80  CE1       15.2280   18.5880   -4.4110 C.ar   80  PHE80      -0.0003
     81  CE2       13.7030   19.4480   -2.7790 C.ar   80  PHE80      -0.0003
     82  CZ        14.2970   18.3760   -3.4070 C.ar   80  PHE80      -0.0000
     83  N         14.6590   25.2490   -5.2210 N.am   81  GLU81      -0.1965
     84  CA        15.3680   26.5000   -5.0850 C.3    81  GLU81       0.1733
     85  C         16.8250   26.2130   -4.7700 C.2    81  GLU81       0.2616
     86  O         17.1380   25.2330   -4.0890 O.2    81  GLU81      -0.2715
     87  CB        14.7310   27.3920   -3.9820 C.3    81  GLU81       0.0429
     88  CG        14.0750   26.6700   -2.7770 C.3    81  GLU81       0.1163
     89  CD        13.7240   27.5860   -1.5820 C.2    81  GLU81       0.3649
     90  OE1       14.3410   28.6830   -1.5040 O.co2  81  GLU81      -0.2457
     91  OE2       12.8340   27.2070   -0.7330 O.co2  81  GLU81      -0.2457
     92  N         17.7080   27.0610   -5.2840 N.am   82  PHE82      -0.1960
     93  CA        19.1380   26.9360   -5.0890 C.3    82  PHE82       0.1771
     94  C         19.5410   27.7620   -3.8750 C.2    82  PHE82       0.2619
     95  O         18.8770   28.7410   -3.5680 O.2    82  PHE82      -0.2715
     96  CB        19.8730   27.4120   -6.3480 C.3    82  PHE82       0.0574
     97  CG        21.3660   27.3980   -6.2170 C.ar   82  PHE82      -0.0200
     98  CD1       22.0810   26.2300   -6.4210 C.ar   82  PHE82      -0.0042
     99  CD2       22.0600   28.5470   -5.8460 C.ar   82  PHE82      -0.0042
    100  CE1       23.4710   26.2070   -6.2660 C.ar   82  PHE82      -0.0003
    101  CE2       23.4480   28.5320   -5.6830 C.ar   82  PHE82      -0.0003
    102  CZ        24.1580   27.3600   -5.8900 C.ar   82  PHE82      -0.0000
    103  N         20.6140   27.3700   -3.1790 N.am   83  LEU83      -0.1963
    104  CA        21.0900   28.1250   -2.0260 C.3    83  LEU83       0.1728
    105  C         22.5980   28.2030   -1.9360 C.2    83  LEU83       0.2617
    106  O         23.2820   27.2320   -2.1700 O.2    83  LEU83      -0.2715
    107  CB        20.5420   27.4880   -0.7540 C.3    83  LEU83       0.0311
    108  CG        19.0290   27.6180   -0.5800 C.3    83  LEU83       0.0022
    109  CD1       18.5140   26.5690    0.3530 C.3    83  LEU83       0.0001
    110  CD2       18.6540   28.9970   -0.0630 C.3    83  LEU83       0.0001
    111  N         23.1150   29.3510   -1.5240 N.am   84  SER84      -0.1936
    112  CA        24.5620   29.6160   -1.6190 C.3    84  SER84       0.2055
    113  C         25.4580   28.6220   -0.8550 C.2    84  SER84       0.2643
    114  O         26.4930   28.2530   -1.3560 O.2    84  SER84      -0.2714
    115  CB        24.8890   31.0570   -1.1930 C.3    84  SER84       0.2130
    116  OG        23.9810   31.5670   -0.2240 O.3    84  SER84      -0.2179
    117  N         25.0570   28.1800    0.3270 N.am   85  MET85      -0.1962
    118  CA        25.9360   27.3700    1.1610 C.3    85  MET85       0.1736
    119  C         25.1820   26.3100    1.9380 C.2    85  MET85       0.2616
    120  O         23.9800   26.4330    2.1100 O.2    85  MET85      -0.2715
    121  CB        26.6610   28.2970    2.1300 C.3    85  MET85       0.0427
    122  CG        27.9630   27.7380    2.6800 C.3    85  MET85       0.0599
    123  SD        29.0470   29.0470    3.2930 S.3    85  MET85      -0.1393
    124  CE        29.5630   29.8480    1.7650 C.3    85  MET85       0.0692
    125  N         25.8730   25.2590    2.3750 N.am   86  ASP86      -0.1971
    126  CA        25.3470   24.3310    3.3950 C.3    86  ASP86       0.1709
    127  C         26.0650   24.5050    4.7120 C.2    86  ASP86       0.2293
    128  O         27.1510   25.0650    4.7760 O.2    86  ASP86      -0.2864
    129  CB        25.2870   22.8620    2.9290 C.3    86  ASP86       0.1436
    130  CG        26.6710   22.1820    2.7620 C.2    86  ASP86       0.3671
    131  OD1       27.2880   21.7690    3.7760 O.co2  86  ASP86      -0.2456
    132  OD2       27.0960   21.9720    1.5920 O.co2  86  ASP86      -0.2456
    133  N         29.7010   22.8430    5.4290 N.3    89  LYS89      -0.1245
    134  CA        30.7270   23.6180    4.7420 C.3    89  LYS89       0.1561
    135  C         30.9550   24.9740    5.3640 C.2    89  LYS89       0.2260
    136  O         32.0570   25.4780    5.3410 O.2    89  LYS89      -0.2867
    137  CB        30.3080   23.7930    3.2780 C.3    89  LYS89       0.0271
    138  CG        31.3780   24.3350    2.3420 C.3    89  LYS89       0.0035
    139  CD        31.1620   23.8310    0.9120 C.3    89  LYS89       0.0206
    140  CE        31.7190   24.7760   -0.1510 C.3    89  LYS89       0.1093
    141  NZ        30.6650   25.6850   -0.6900 N.3    89  LYS89      -0.1314
    142  N         24.8570   18.8450    6.6290 N.3   132  GLN132     -0.1231
    143  CA        24.8680   18.7970    5.1680 C.3   132  GLN132      0.1698
    144  C         23.5040   19.1190    4.5470 C.2   132  GLN132      0.2592
    145  O         23.4500   19.7440    3.5050 O.2   132  GLN132     -0.2718
    146  CB        25.3080   17.4400    4.7010 C.3   132  GLN132      0.0381
    147  CG        25.4090   17.3600    3.1940 C.3   132  GLN132      0.0905
    148  CD        26.5400   16.4630    2.7720 C.2   132  GLN132      0.2608
    149  OE1       27.6960   16.9110    2.6430 O.2   132  GLN132     -0.2717
    150  NE2       26.2190   15.1840    2.5690 N.am  132  GLN132     -0.0878
    151  N         22.4430   18.7380    5.2610 N.am  133  ASN133     -0.1974
    152  CA        21.0260   18.9700    4.9250 C.3   133  ASN133      0.1688
    153  C         20.4060   20.2500    5.3060 C.2   133  ASN133      0.2292
    154  O         19.1870   20.3850    5.1520 O.2   133  ASN133     -0.2864
    155  CB        20.1570   17.9310    5.6830 C.3   133  ASN133      0.1181
    156  CG        20.2230   16.6280    5.0540 C.2   133  ASN133      0.2629
    157  OD1       20.4660   16.5580    3.8450 O.2   133  ASN133     -0.2716
    158  ND2       20.0640   15.5850    5.8370 N.am  133  ASN133     -0.0877
    159  N         20.6460   24.3350    4.7430 N.3   135  LEU135     -0.1245
    160  CA        21.2130   25.2020    3.7210 C.3   135  LEU135      0.1561
    161  C         20.9480   26.6360    4.0910 C.2   135  LEU135      0.2260
    162  O         19.8920   26.9480    4.6260 O.2   135  LEU135     -0.2867
    163  CB        20.5600   24.8780    2.3880 C.3   135  LEU135      0.0270
    164  CG        20.4850   23.3930    2.0510 C.3   135  LEU135      0.0019
    165  CD1       19.8980   23.1730    0.6670 C.3   135  LEU135      0.0001
    166  CD2       21.8340   22.7210    2.1320 C.3   135  LEU135      0.0001
    167  N         16.4830   20.6760    4.0360 N.3   145  ALA145     -0.1231
    168  CA        16.4130   19.9510    2.7920 C.3   145  ALA145      0.1694
    169  C         16.2000   18.4920    3.1140 C.2   145  ALA145      0.2592
    170  O         16.6150   18.0380    4.1800 O.2   145  ALA145     -0.2718
    171  CB        17.6970   20.1390    2.0300 C.3   145  ALA145      0.0304
    172  N         15.5330   17.7750    2.1970 N.am  146  ASP146     -0.1974
    173  CA        15.3300   16.3110    2.2010 C.3   146  ASP146      0.1709
    174  C         14.2750   15.8410    3.1810 C.2   146  ASP146      0.2293
    175  O         14.2150   14.6350    3.5340 O.2   146  ASP146     -0.2864
    176  CB        16.6440   15.5190    2.3740 C.3   146  ASP146      0.1436
    177  CG        17.6170   15.6690    1.1590 C.2   146  ASP146      0.3671
    178  OD1       17.1900   16.1780    0.0790 O.co2 146  ASP146     -0.2456
    179  OD2       18.8120   15.2910    1.3080 O.co2 146  ASP146     -0.2456
@<TRIPOS>BOND
     1     1     2    1
     2     2     5    1
     3     2     3    1
     4    45    44    2
     5     5     6    1
     6     8     7   ar
     7     3     4    2
     8    44    43    1
     9     6     7    1
    10     7     9   ar
    11    50    49    1
    12    43    46    1
    13    43    42    1
    14    47    46    1
    15    47    48    1
    16    49    48    1
    17    59    58    2
    18    56    57    1
    19    58    57    1
    20    53    54    2
    21    53    52    1
    22    51    52    1
    23    37    38    2
    24    37    36    1
    25    10    11    1
    26    52    55    1
    27    57    60    1
    28    16    14    1
    29    36    35    1
    30    36    39    1
    31    75    74    2
    32    72    73    1
    33    11    14    1
    34    11    12    1
    35    98   100   ar
    36    98    97   ar
    37    96    97    1
    38    96    93    1
    39   100   102   ar
    40    97    99   ar
    41    60    61    1
    42    14    15    1
    43    74    73    1
    44    74    83   am
    45   102   101   ar
    46    99   101   ar
    47    15    17    1
    48    40    39    1
    49    73    76    1
    50    29    28   ar
    51    39    41    1
    52    21    20    2
    53    18    12   am
    54    18    19    1
    55    12    13    2
    56    92    93    1
    57    92    85   am
    58    83    84    1
    59    61    62    1
    60    93    94    1
    61    84    85    1
    62    84    87    1
    63    27    28    1
    64    27    26    1
    65    28    30   ar
    66    78    80   ar
    67    78    77   ar
    68    85    86    2
    69    20    19    1
    70    20    22   am
    71    76    77    1
    72    80    82   ar
    73    77    79   ar
    74    87    88    1
    75    94    95    2
    76    94   103   am
    77    62    63    1
    78    22    23    1
    79    26    23    1
    80    23    24    1
    81    82    81   ar
    82   103   104    1
    83    79    81   ar
    84    88    89    1
    85    63    64    1
    86   106   105    2
    87    24    31   am
    88    24    25    2
    89    31    32    1
    90   104   105    1
    91   104   107    1
    92   105   111   am
    93   112   111    1
    94   112   115    1
    95   112   113    1
    96    89    90   ar
    97    89    91   ar
    98    34    33    2
    99   114   113    2
   100   115   116    1
   101    70    69    1
   102    32    33    1
   103   113   117   am
   104   107   108    1
   105   141   140    1
   106   108   110    1
   107   108   109    1
   108   140   139    1
   109    67    68    2
   110    67    66    1
   111   178   177   ar
   112   117   118    1
   113    69    66    1
   114    69    71    1
   115   165   164    1
   116    66    65    1
   117   139   138    1
   118   177   179   ar
   119   177   176    1
   120   118   119    1
   121   118   121    1
   122   132   130   ar
   123   124   123    1
   124   119   120    2
   125   119   125   am
   126   171   168    1
   127   164   166    1
   128   164   163    1
   129   121   122    1
   130   172   173    1
   131   172   169   am
   132   173   176    1
   133   173   174    1
   134   138   137    1
   135   125   126    1
   136   163   160    1
   137   150   148   am
   138   149   148    2
   139   122   123    1
   140   130   129    1
   141   130   131   ar
   142   148   147    1
   143   168   169    1
   144   168   167    1
   145   129   126    1
   146   169   170    2
   147   174   175    2
   148   147   146    1
   149   137   134    1
   150   126   127    1
   151   145   144    2
   152   160   161    1
   153   160   159    1
   154   157   156    2
   155   161   162    2
   156   144   143    1
   157   144   151   am
   158   146   143    1
   159   127   128    2
   160   134   135    1
   161   134   133    1
   162   152   151    1
   163   152   153    1
   164   152   155    1
   165   156   155    1
   166   156   158   am
   167   154   153    2
   168   143   142    1
   169   136   135    2
