@<TRIPOS>MOLECULE
tmp/6gu7A00.pdb
 161 153 0 0 0
SMALL
GASTEIGER

@<TRIPOS>ATOM
      1  N         36.8010   20.1260   16.7180 N.3    10  ILE10      -0.1231
      2  CA        36.4920   20.2230   15.2830 C.3    10  ILE10       0.1692
      3  C         35.0970   20.8210   15.0330 C.2    10  ILE10       0.2593
      4  O         34.8500   21.3670   13.9620 O.2    10  ILE10      -0.2718
      5  CB        36.6130   18.8750   14.4940 C.3    10  ILE10       0.0266
      6  CG1       37.4370   17.8110   15.2180 C.3    10  ILE10       0.0019
      7  CG2       37.2430   19.1510   13.1300 C.3    10  ILE10       0.0020
      8  CD1       37.1990   16.4050   14.6950 C.3    10  ILE10       0.0001
      9  N         34.1710   20.6830   15.9780 N.am   11  GLY11      -0.1942
     10  CA        32.8510   21.2720   15.8480 C.3    11  GLY11       0.2014
     11  C         31.8770   20.8490   16.9290 C.2    11  GLY11       0.2639
     12  O         32.2360   20.2110   17.9050 O.2    11  GLY11      -0.2714
     13  N         30.6330   21.2750   16.7520 N.am   12  GLU12      -0.1963
     14  CA        29.5220   20.8940   17.6230 C.3    12  GLU12       0.1733
     15  C         28.5820   20.1230   16.7060 C.2    12  GLU12       0.2616
     16  O         28.1560   20.6360   15.6560 O.2    12  GLU12      -0.2715
     17  CB        28.8350   22.1400   18.2380 C.3    12  GLU12       0.0429
     18  CG        29.8000   23.2480   18.6960 C.3    12  GLU12       0.1163
     19  CD        29.8630   23.4980   20.2040 C.2    12  GLU12       0.3649
     20  OE1       30.1800   24.6450   20.6140 O.co2  12  GLU12      -0.2457
     21  OE2       29.6090   22.5740   20.9960 O.co2  12  GLU12      -0.2457
     22  N         28.2550   18.8850   17.0940 N.am   13  GLY13      -0.1955
     23  CA        27.0960   18.1690   16.5150 C.3    13  GLY13       0.1869
     24  C         25.8710   18.4560   17.3740 C.2    13  GLY13       0.2309
     25  O         25.9550   19.1600   18.4020 O.2    13  GLY13      -0.2863
     26  N         32.5510   17.5570   19.4160 N.3    18  VAL18      -0.1245
     27  CA        33.3920   16.6270   18.6410 C.3    18  VAL18       0.1561
     28  C         34.8720   17.0540   18.5880 C.2    18  VAL18       0.2260
     29  O         35.2000   18.1490   18.1470 O.2    18  VAL18      -0.2867
     30  CB        32.8780   16.4370   17.2030 C.3    18  VAL18       0.0252
     31  CG1       33.6990   15.3600   16.4820 C.3    18  VAL18       0.0019
     32  CG2       31.4000   16.0710   17.2170 C.3    18  VAL18       0.0019
     33  N         38.2380   10.7050   15.5790 N.3    31  ALA31      -0.1245
     34  CA        37.2070   11.6610   15.9810 C.3    31  ALA31       0.1562
     35  C         36.5450   11.1310   17.2340 C.2    31  ALA31       0.2260
     36  O         36.2350    9.9740   17.2840 O.2    31  ALA31      -0.2867
     37  CB        36.1870   11.8670   14.8770 C.3    31  ALA31       0.0290
     38  N         33.3670   11.8720   19.8480 N.3    33  LYS33      -0.1245
     39  CA        32.1360   12.5800   20.1090 C.3    33  LYS33       0.1561
     40  C         31.7870   12.4080   21.5730 C.2    33  LYS33       0.2260
     41  O         31.4960   11.2920   22.0150 O.2    33  LYS33      -0.2867
     42  CB        31.0240   12.0540   19.1960 C.3    33  LYS33       0.0271
     43  CG        29.7480   12.8540   19.3140 C.3    33  LYS33       0.0035
     44  CD        28.8150   12.8050   18.0860 C.3    33  LYS33       0.0206
     45  CE        27.5990   13.6870   18.3250 C.3    33  LYS33       0.1093
     46  NZ        27.3460   14.7250   17.2850 N.3    33  LYS33      -0.1314
     47  N         30.8820    5.7580    8.0080 N.3    64  VAL64      -0.1245
     48  CA        31.9140    6.0830    8.9700 C.3    64  VAL64       0.1561
     49  C         31.8120    5.0950   10.1300 C.2    64  VAL64       0.2260
     50  O         30.9000    5.1650   10.9440 O.2    64  VAL64      -0.2867
     51  CB        31.8390    7.5490    9.4450 C.3    64  VAL64       0.0252
     52  CG1       32.9660    7.8550   10.4190 C.3    64  VAL64       0.0019
     53  CG2       32.0100    8.4850    8.2670 C.3    64  VAL64       0.0019
     54  N         35.4640    7.3790   16.2700 N.3    80  PHE80      -0.1227
     55  CA        35.3790    7.1020   14.8180 C.3    80  PHE80       0.1736
     56  C         36.7140    7.3190   14.1160 C.2    80  PHE80       0.2595
     57  O         37.5810    8.0390   14.6170 O.2    80  PHE80      -0.2718
     58  CB        34.3820    8.0350   14.1130 C.3    80  PHE80       0.0547
     59  CG        33.0170    8.1080   14.7520 C.ar   80  PHE80      -0.0202
     60  CD1       32.7610    9.0070   15.7640 C.ar   80  PHE80      -0.0042
     61  CD2       31.9570    7.3260   14.2820 C.ar   80  PHE80      -0.0042
     62  CE1       31.4920    9.1030   16.3400 C.ar   80  PHE80      -0.0003
     63  CE2       30.6810    7.4170   14.8260 C.ar   80  PHE80      -0.0003
     64  CZ        30.4440    8.3010   15.8720 C.ar   80  PHE80      -0.0000
     65  N         36.8760    6.7120   12.9580 N.am   81  GLU81      -0.1965
     66  CA        37.9350    7.0860   12.0180 C.3    81  GLU81       0.1733
     67  C         37.8640    8.5810   11.7240 C.2    81  GLU81       0.2616
     68  O         36.7950    9.1010   11.4510 O.2    81  GLU81      -0.2715
     69  CB        37.8650    6.2600   10.7140 C.3    81  GLU81       0.0429
     70  CG        36.5640    6.3730    9.9290 C.3    81  GLU81       0.1163
     71  CD        36.5740    5.5890    8.6390 C.2    81  GLU81       0.3649
     72  OE1       37.4030    5.9280    7.7690 O.co2  81  GLU81      -0.2457
     73  OE2       35.7380    4.6720    8.4880 O.co2  81  GLU81      -0.2457
     74  N         39.0000    9.2740   11.8250 N.am   82  PHE82      -0.1960
     75  CA        39.0610   10.6900   11.5140 C.3    82  PHE82       0.1771
     76  C         39.2060   10.9510   10.0280 C.2    82  PHE82       0.2619
     77  O         40.1620   10.5390    9.4200 O.2    82  PHE82      -0.2715
     78  CB        40.2100   11.3500   12.2290 C.3    82  PHE82       0.0574
     79  CG        40.3150   12.8260   11.9790 C.ar   82  PHE82      -0.0200
     80  CD1       39.6260   13.7330   12.7880 C.ar   82  PHE82      -0.0042
     81  CD2       41.1270   13.3230   10.9630 C.ar   82  PHE82      -0.0042
     82  CE1       39.7410   15.1020   12.5690 C.ar   82  PHE82      -0.0003
     83  CE2       41.2390   14.6860   10.7470 C.ar   82  PHE82      -0.0003
     84  CZ        40.5440   15.5770   11.5410 C.ar   82  PHE82      -0.0000
     85  N         38.2460   11.7010    9.4790 N.am   83  LEU83      -0.1963
     86  CA        38.3410   12.2830    8.1350 C.3    83  LEU83       0.1728
     87  C         38.2680   13.8040    8.2780 C.2    83  LEU83       0.2617
     88  O         37.4720   14.2980    9.0830 O.2    83  LEU83      -0.2715
     89  CB        37.1980   11.7660    7.3130 C.3    83  LEU83       0.0311
     90  CG        37.2470   10.2600    7.0690 C.3    83  LEU83       0.0022
     91  CD1       35.8440    9.6220    7.0240 C.3    83  LEU83       0.0001
     92  CD2       38.0460   10.0600    5.7740 C.3    83  LEU83       0.0001
     93  N         39.0930   14.5500    7.5430 N.am   84  SER84      -0.1936
     94  CA        39.2660   15.9920    7.8480 C.3    84  SER84       0.2055
     95  C         38.3790   16.9400    7.0360 C.2    84  SER84       0.2643
     96  O         38.4300   18.1380    7.1960 O.2    84  SER84      -0.2714
     97  CB        40.7320   16.4160    7.6960 C.3    84  SER84       0.2130
     98  OG        41.1400   16.3880    6.3420 O.3    84  SER84      -0.2179
     99  N         37.6170   16.3740    6.1110 N.am   85  MET85      -0.1962
    100  CA        36.7770   17.1960    5.2590 C.3    85  MET85       0.1736
    101  C         35.4120   16.5970    4.9660 C.2    85  MET85       0.2616
    102  O         35.2360   15.3800    4.9050 O.2    85  MET85      -0.2715
    103  CB        37.4990   17.5050    3.9440 C.3    85  MET85       0.0427
    104  CG        36.5680   17.7390    2.7650 C.3    85  MET85       0.0599
    105  SD        37.0320   19.1820    1.7880 S.3    85  MET85      -0.1393
    106  CE        38.6780   19.5010    2.4170 C.3    85  MET85       0.0692
    107  N         34.4540   17.4930    4.7860 N.am   86  ASP86      -0.1971
    108  CA        33.0580   17.1420    4.4680 C.3    86  ASP86       0.1709
    109  C         32.6460   17.7860    3.1560 C.2    86  ASP86       0.2293
    110  O         33.3640   18.6010    2.6140 O.2    86  ASP86      -0.2864
    111  CB        32.1050   17.5270    5.6020 C.3    86  ASP86       0.1436
    112  CG        32.2290   18.9980    6.0160 C.2    86  ASP86       0.3671
    113  OD1       33.3480   19.4310    6.3800 O.co2  86  ASP86      -0.2456
    114  OD2       31.1960   19.6910    6.0140 O.co2  86  ASP86      -0.2456
    115  N         32.2480   21.6910    2.7910 N.3    89  LYS89      -0.1245
    116  CA        33.5820   22.2670    2.7290 C.3    89  LYS89       0.1561
    117  C         34.2640   22.0060    1.3840 C.2    89  LYS89       0.2260
    118  O         34.9480   22.8760    0.8680 O.2    89  LYS89      -0.2867
    119  CB        34.4230   21.6860    3.8650 C.3    89  LYS89       0.0271
    120  CG        35.5710   22.5520    4.3140 C.3    89  LYS89       0.0035
    121  CD        36.0830   22.1430    5.6770 C.3    89  LYS89       0.0206
    122  CE        36.4710   23.3810    6.4670 C.3    89  LYS89       0.1093
    123  NZ        36.8110   23.1340    7.9010 N.3    89  LYS89      -0.1314
    124  N         27.0600   18.2580    5.2140 N.3   132  GLN132     -0.1231
    125  CA        27.8720   18.1530    6.4500 C.3   132  GLN132      0.1698
    126  C         28.0450   16.7350    7.0060 C.2   132  GLN132      0.2592
    127  O         28.9630   16.5080    7.7750 O.2   132  GLN132     -0.2718
    128  CB        27.2560   19.0130    7.5530 C.3   132  GLN132      0.0381
    129  CG        27.4500   20.5100    7.2580 C.3   132  GLN132      0.0905
    130  CD        26.3990   21.4150    7.8510 C.2   132  GLN132      0.2608
    131  OE1       25.2180   21.3660    7.4790 O.2   132  GLN132     -0.2717
    132  NE2       26.8300   22.2910    8.7520 N.am  132  GLN132     -0.0878
    133  N         27.1210   15.8370    6.6820 N.am  133  ASN133     -0.1974
    134  CA        27.1890   14.4170    7.0770 C.3   133  ASN133      0.1688
    135  C         27.8720   13.4950    6.0640 C.2   133  ASN133      0.2292
    136  O         27.8680   12.2750    6.2500 O.2   133  ASN133     -0.2864
    137  CB        25.7780   13.8740    7.2630 C.3   133  ASN133      0.1181
    138  CG        25.0340   14.5650    8.3480 C.2   133  ASN133      0.2629
    139  OD1       25.6010   14.9180    9.3760 O.2   133  ASN133     -0.2716
    140  ND2       23.7380   14.7380    8.1410 N.am  133  ASN133     -0.0877
    141  N         31.3920   12.7270    4.5890 N.3   135  LEU135     -0.1245
    142  CA        32.8330   13.0010    4.7720 C.3   135  LEU135      0.1561
    143  C         33.6990   12.4030    3.6470 C.2   135  LEU135      0.2260
    144  O         33.3120   11.4260    3.0080 O.2   135  LEU135     -0.2867
    145  CB        33.2950   12.4950    6.1340 C.3   135  LEU135      0.0270
    146  CG        32.4370   12.8060    7.3640 C.3   135  LEU135      0.0019
    147  CD1       33.1430   12.2790    8.6170 C.3   135  LEU135      0.0001
    148  CD2       32.1260   14.2940    7.4750 C.3   135  LEU135      0.0001
    149  N         28.2010    9.8550    7.7740 N.3   145  ALA145     -0.1231
    150  CA        28.3410    9.9460    9.2300 C.3   145  ALA145      0.1694
    151  C         26.9840   10.1990    9.8770 C.2   145  ALA145      0.2592
    152  O         26.0600   10.6550    9.2200 O.2   145  ALA145     -0.2718
    153  CB        29.2930   11.0610    9.5850 C.3   145  ALA145      0.0304
    154  N         26.8760    9.8610   11.1650 N.am  146  ASP146     -0.1974
    155  CA        25.6530   10.0190   11.9880 C.3   146  ASP146      0.1709
    156  C         24.4310    9.1490   11.6370 C.2   146  ASP146      0.2293
    157  O         23.3660    9.3610   12.2040 O.2   146  ASP146     -0.2864
    158  CB        25.2100   11.4900   12.0650 C.3   146  ASP146      0.1436
    159  CG        26.2370   12.3940   12.7220 C.2   146  ASP146      0.3671
    160  OD1       27.3140   11.9200   13.1700 O.co2 146  ASP146     -0.2456
    161  OD2       25.9140   13.5980   12.8560 O.co2 146  ASP146     -0.2456
@<TRIPOS>BOND
     1   118   117    2
     2   117   116    1
     3   105   106    1
     4   105   104    1
     5   110   109    2
     6   116   115    1
     7   116   119    1
     8   104   103    1
     9   144   143    2
    10   109   108    1
    11   143   142    1
    12   119   120    1
    13   103   100    1
    14   120   121    1
    15   108   107    1
    16   108   111    1
    17   141   142    1
    18   142   145    1
    19   107   101   am
    20   102   101    2
    21   101   100    1
    22   124   125    1
    23   100    99    1
    24   111   112    1
    25   121   122    1
    26    92    90    1
    27   114   112   ar
    28   112   113   ar
    29   135   136    2
    30   135   134    1
    31    99    95   am
    32   145   146    1
    33    98    97    1
    34   125   126    1
    35   125   128    1
    36   122   123    1
    37   133   126   am
    38   133   134    1
    39   126   127    2
    40    91    90    1
    41    95    96    2
    42    95    94    1
    43    90    89    1
    44   134   137    1
    45   129   128    1
    46   129   130    1
    47   137   138    1
    48    89    86    1
    49   146   148    1
    50   146   147    1
    51   131   130    2
    52    93    94    1
    53    93    87   am
    54    97    94    1
    55    72    71   ar
    56   149   150    1
    57   130   132   am
    58    47    48    1
    59    86    87    1
    60    86    85    1
    61   140   138   am
    62    53    51    1
    63    87    88    2
    64   138   139    2
    65    73    71   ar
    66    71    70    1
    67    48    51    1
    68    48    49    1
    69   152   151    2
    70   150   153    1
    71   150   151    1
    72    77    76    2
    73    51    52    1
    74    85    76   am
    75   151   154   am
    76    70    69    1
    77    76    75    1
    78    49    50    2
    79    69    66    1
    80    83    81   ar
    81    83    84   ar
    82    81    79   ar
    83   154   155    1
    84    68    67    2
    85    75    74    1
    86    75    78    1
    87    84    82   ar
    88   156   155    1
    89   156   157    2
    90    67    74   am
    91    67    66    1
    92    79    78    1
    93    79    80   ar
    94   155   158    1
    95    66    65    1
    96   158   159    1
    97    82    80   ar
    98   159   161   ar
    99   159   160   ar
   100    65    56   am
   101     7     5    1
   102     4     3    2
   103    58    59    1
   104    58    55    1
   105    56    57    2
   106    56    55    1
   107    61    59   ar
   108    61    63   ar
   109     5     6    1
   110     5     2    1
   111     8     6    1
   112    59    60   ar
   113    55    54    1
   114    63    64   ar
   115    37    34    1
   116     3     2    1
   117     3     9   am
   118     2     1    1
   119    33    34    1
   120    16    15    2
   121    60    62   ar
   122    10     9    1
   123    10    11    1
   124    64    62   ar
   125    34    35    1
   126    31    30    1
   127    23    22    1
   128    23    24    1
   129    15    22   am
   130    15    14    1
   131    13    11   am
   132    13    14    1
   133    11    12    2
   134    30    32    1
   135    30    27    1
   136    35    36    2
   137    46    45    1
   138    24    25    2
   139    14    17    1
   140    44    45    1
   141    44    43    1
   142    29    28    2
   143    17    18    1
   144    28    27    1
   145    27    26    1
   146    18    19    1
   147    42    43    1
   148    42    39    1
   149    38    39    1
   150    39    40    1
   151    19    20   ar
   152    19    21   ar
   153    40    41    2
