@<TRIPOS>MOLECULE
tmp/6gu8A01.pdb
 88 86 0 0 0
SMALL
GASTEIGER

@<TRIPOS>ATOM
      1  N          0.2030   32.0230  111.6000 N.3    47  SER47      -0.1203
      2  CA        -0.7910   32.6740  112.4270 C.3    47  SER47       0.2005
      3  C         -0.6050   34.1820  112.3540 C.2    47  SER47       0.2461
      4  O          0.4700   34.6780  111.9850 O.2    47  SER47      -0.2732
      5  CB        -0.6910   32.2590  113.9030 C.3    47  SER47       0.2103
      6  OG        -0.7310   30.8650  114.1040 O.3    47  SER47      -0.2182
      7  N         -1.6250   34.9380  112.7460 N.am   48  PRO48      -0.2717
      8  CA        -1.4820   36.3870  112.8430 C.3    48  PRO48       0.1535
      9  C         -0.4680   36.8130  113.8930 C.2    48  PRO48       0.2598
     10  O         -0.0520   36.0670  114.7830 O.2    48  PRO48      -0.2715
     11  CB        -2.8990   36.8640  113.2150 C.3    48  PRO48       0.0310
     12  CG        -3.6810   35.6290  113.4900 C.3    48  PRO48       0.0237
     13  CD        -3.0330   34.5100  112.8370 C.3    48  PRO48       0.0939
     14  N         -0.0700   38.0550  113.7650 N.am   49  ALA49      -0.1964
     15  CA         0.7840   38.6800  114.7420 C.3    49  ALA49       0.1728
     16  C          0.0450   38.8890  116.0590 C.2    49  ALA49       0.2616
     17  O         -1.1860   38.8990  116.1270 O.2    49  ALA49      -0.2715
     18  CB         1.2620   40.0190  114.2100 C.3    49  ALA49       0.0334
     19  N          0.8240   39.0560  117.1150 N.am   50  ARG50      -0.1977
     20  CA         0.2770   39.3990  118.4080 C.3    50  ARG50       0.1597
     21  C         -0.5280   40.6940  118.3220 C.2    50  ARG50       0.2287
     22  O         -0.0280   41.6920  117.7940 O.2    50  ARG50      -0.2864
     23  CB         1.4090   39.5610  119.4040 C.3    50  ARG50       0.0334
     24  CG         1.0050   40.2740  120.6560 C.3    50  ARG50       0.0492
     25  CD         2.1000   40.1580  121.6780 C.3    50  ARG50       0.2205
     26  NE         1.7500   40.8070  122.9290 N.pl3  50  ARG50      -0.0865
     27  CZ         2.5940   40.9400  123.9400 C.cat  50  ARG50       0.5346
     28  NH1        3.8390   40.4790  123.8390 N.pl3  50  ARG50       0.1354
     29  NH2        2.1870   41.5310  125.0490 N.pl3  50  ARG50       0.1354
     30  N         -2.3780   29.8250  119.4610 N.3   204  TRP204     -0.1241
     31  CA        -2.4580   31.2750  119.4230 C.3   204  TRP204      0.1605
     32  C         -3.3010   31.8070  120.5700 C.2   204  TRP204      0.2264
     33  O         -2.9210   32.7740  121.2180 O.2   204  TRP204     -0.2867
     34  CB        -3.0120   31.7420  118.0740 C.3   204  TRP204      0.0550
     35  CG        -2.7410   33.2040  117.7640 C.ar  204  TRP204      0.0003
     36  CD1       -1.5610   33.7580  117.3270 C.ar  204  TRP204      0.0946
     37  CD2       -3.6730   34.2830  117.8660 C.ar  204  TRP204      0.0152
     38  NE1       -1.7210   35.1160  117.1590 N.ar  204  TRP204     -0.2442
     39  CE2       -3.0060   35.4570  117.4820 C.ar  204  TRP204      0.0810
     40  CE3       -5.0190   34.3670  118.2490 C.ar  204  TRP204      0.0012
     41  CZ2       -3.6410   36.6950  117.4590 C.ar  204  TRP204      0.0191
     42  CZ3       -5.6390   35.5880  118.2360 C.ar  204  TRP204      0.0001
     43  CH2       -4.9660   36.7320  117.8400 C.ar  204  TRP204      0.0015
     44  N         -1.4200   32.0060  123.8170 N.3   207  SER207     -0.1202
     45  CA        -0.5390   33.1650  123.9310 C.3   207  SER207      0.2020
     46  C         -1.3320   34.4330  124.2400 C.2   207  SER207      0.2618
     47  O         -0.7990   35.3690  124.8330 O.2   207  SER207     -0.2717
     48  CB         0.2760   33.3450  122.6580 C.3   207  SER207      0.2103
     49  OG         1.4510   32.5120  122.6630 O.3   207  SER207     -0.2182
     50  N         -2.6010   34.4880  123.8730 N.am  208  ARG208     -0.1979
     51  CA        -3.3680   35.6550  124.3050 C.3   208  ARG208      0.1597
     52  C         -3.7360   35.5210  125.7690 C.2   208  ARG208      0.2287
     53  O         -3.8120   36.5100  126.4860 O.2   208  ARG208     -0.2864
     54  CB        -4.5930   35.8490  123.4400 C.3   208  ARG208      0.0334
     55  CG        -4.3540   35.6170  121.9730 C.3   208  ARG208      0.0492
     56  CD        -3.5640   36.6470  121.2600 C.3   208  ARG208      0.2205
     57  NE        -2.1760   36.8580  121.6850 N.pl3 208  ARG208     -0.0865
     58  CZ        -1.0940   36.3290  121.1090 C.cat 208  ARG208      0.5346
     59  NH1       -1.1990   35.4770  120.0910 N.pl3 208  ARG208      0.1354
     60  NH2        0.1100   36.6490  121.5760 N.pl3 208  ARG208      0.1354
     61  N          6.3840   29.1530  119.5560 N.3   241  GLN241     -0.1231
     62  CA         6.0790   30.5060  119.1390 C.3   241  GLN241      0.1698
     63  C          6.2890   31.5430  120.2250 C.2   241  GLN241      0.2592
     64  O          6.3260   32.7140  119.9020 O.2   241  GLN241     -0.2718
     65  CB         4.6090   30.5930  118.6830 C.3   241  GLN241      0.0381
     66  CG         4.3330   30.0290  117.3090 C.3   241  GLN241      0.0905
     67  CD         4.9800   30.8410  116.2250 C.2   241  GLN241      0.2608
     68  OE1        4.8730   32.0640  116.2050 O.2   241  GLN241     -0.2717
     69  NE2        5.6540   30.1700  115.3100 N.am  241  GLN241     -0.0878
     70  N          6.3830   31.1670  121.4930 N.am  242  ASP242     -0.1974
     71  CA         6.1610   32.1370  122.5630 C.3   242  ASP242      0.1709
     72  C          7.1590   31.8600  123.6710 C.2   242  ASP242      0.2293
     73  O          6.9100   31.0170  124.5360 O.2   242  ASP242     -0.2864
     74  CB         4.7040   32.0720  123.0770 C.3   242  ASP242      0.1436
     75  CG         4.3400   33.2230  124.0350 C.2   242  ASP242      0.3671
     76  OD1        5.2650   33.9560  124.4340 O.co2 242  ASP242     -0.2456
     77  OD2        3.1260   33.3900  124.3790 O.co2 242  ASP242     -0.2456
     78  N          7.8670   33.4450  126.2540 N.3   244  ARG244     -0.1245
     79  CA         7.4420   33.7110  127.6280 C.3   244  ARG244      0.1563
     80  C          7.0580   32.4410  128.3750 C.2   244  ARG244      0.2260
     81  O          7.1760   32.4020  129.6070 O.2   244  ARG244     -0.2867
     82  CB         6.2930   34.6960  127.6220 C.3   244  ARG244      0.0307
     83  CG         6.5730   36.0160  126.9180 C.3   244  ARG244      0.0489
     84  CD         5.3240   36.9040  126.8580 C.3   244  ARG244      0.2205
     85  NE         4.3200   36.3190  125.9480 N.pl3 244  ARG244     -0.0865
     86  CZ         3.1650   36.8820  125.5890 C.cat 244  ARG244      0.5346
     87  NH1        2.8100   38.0550  126.0600 N.pl3 244  ARG244      0.1354
     88  NH2        2.3460   36.2650  124.7430 N.pl3 244  ARG244      0.1354
@<TRIPOS>BOND
     1     1     2    1
     2     4     3    2
     3     3     2    1
     4     3     7   am
     5     2     5    1
     6     7    13    1
     7     7     8    1
     8    13    12    1
     9     8    11    1
    10     8     9    1
    11    11    12    1
    12    14     9   am
    13    14    15    1
    14     9    10    2
    15     5     6    1
    16    18    15    1
    17    15    16    1
    18    69    67   am
    19    16    17    2
    20    16    19   am
    21    68    67    2
    22    67    66    1
    23    19    20    1
    24    38    36   ar
    25    38    39   ar
    26    66    65    1
    27    36    35   ar
    28    41    39   ar
    29    41    43   ar
    30    39    37   ar
    31    35    37   ar
    32    35    34    1
    33    22    21    2
    34    43    42   ar
    35    37    40   ar
    36    34    31    1
    37    42    40   ar
    38    21    20    1
    39    20    23    1
    40    65    62    1
    41    62    61    1
    42    62    63    1
    43    23    24    1
    44    31    30    1
    45    31    32    1
    46    64    63    2
    47    59    58    1
    48    63    70   am
    49    32    33    2
    50    24    25    1
    51    58    60    1
    52    58    57    2
    53    56    57    1
    54    56    55    1
    55    70    71    1
    56    25    26    1
    57    55    54    1
    58    71    74    1
    59    71    72    1
    60    48    49    1
    61    48    45    1
    62    26    27    2
    63    74    75    1
    64    54    51    1
    65    72    73    2
    66    44    45    1
    67    28    27    1
    68    50    46   am
    69    50    51    1
    70    45    46    1
    71    27    29    1
    72    75    77   ar
    73    75    76   ar
    74    46    47    2
    75    51    52    1
    76    88    86    1
    77    86    85    2
    78    86    87    1
    79    52    53    2
    80    85    84    1
    81    78    79    1
    82    84    83    1
    83    83    82    1
    84    82    79    1
    85    79    80    1
    86    80    81    2
