@<TRIPOS>MOLECULE
tmp/6gubC00.pdb
 174 166 0 0 0
SMALL
GASTEIGER

@<TRIPOS>ATOM
      1  N        -27.1200   21.3370   34.9850 N.3    11  ILE11      -0.1231
      2  CA       -28.3790   22.0570   34.7430 C.3    11  ILE11       0.1692
      3  C        -29.5480   21.6400   35.6180 C.2    11  ILE11       0.2592
      4  O        -30.6360   22.2420   35.5670 O.2    11  ILE11      -0.2718
      5  CB       -28.8200   21.9890   33.2590 C.3    11  ILE11       0.0266
      6  CG1      -28.9580   20.5480   32.7440 C.3    11  ILE11       0.0019
      7  CG2      -27.8410   22.7720   32.3840 C.3    11  ILE11       0.0020
      8  CD1      -29.4100   20.5050   31.2900 C.3    11  ILE11       0.0001
      9  N        -29.3740   20.6160   36.4300 N.am   12  GLY12      -0.1957
     10  CA       -30.4710   20.1770   37.3080 C.3    12  GLY12       0.1869
     11  C        -30.0220   19.1910   38.3610 C.2    12  GLY12       0.2309
     12  O        -29.0320   18.4850   38.1680 O.2    12  GLY12      -0.2863
     13  N        -33.6600   12.2000   42.3140 N.3    16  TYR16      -0.1241
     14  CA       -33.2880   11.3010   41.1860 C.3    16  TYR16       0.1605
     15  C        -31.7820   11.0680   40.9290 C.2    16  TYR16       0.2264
     16  O        -31.3450    9.9320   40.6590 O.2    16  TYR16      -0.2867
     17  CB       -33.9650   11.7800   39.8890 C.3    16  TYR16       0.0534
     18  CG       -33.4890   13.1170   39.3570 C.ar   16  TYR16      -0.0201
     19  CD1      -32.3270   13.2120   38.5430 C.ar   16  TYR16      -0.0009
     20  CD2      -34.1830   14.2890   39.6440 C.ar   16  TYR16      -0.0009
     21  CE1      -31.8780   14.4330   38.0630 C.ar   16  TYR16       0.0417
     22  CE2      -33.7460   15.5210   39.1530 C.ar   16  TYR16       0.0417
     23  CZ       -32.5990   15.5850   38.3650 C.ar   16  TYR16       0.1957
     24  OH       -32.1880   16.7910   37.8760 O.3    16  TYR16      -0.2866
     25  N        -28.4550   16.1460   36.3430 N.3    19  VAL19      -0.1245
     26  CA       -28.4030   16.2140   34.8890 C.3    19  VAL19       0.1561
     27  C        -27.3640   17.2040   34.4710 C.2    19  VAL19       0.2260
     28  O        -27.2720   18.2440   35.0730 O.2    19  VAL19      -0.2867
     29  CB       -29.7530   16.6350   34.2840 C.3    19  VAL19       0.0252
     30  CG1      -29.7280   16.5740   32.7500 C.3    19  VAL19       0.0019
     31  CG2      -30.8640   15.7640   34.8350 C.3    19  VAL19       0.0019
     32  N        -27.9670   15.4040   26.8590 N.3    32  ALA32      -0.1245
     33  CA       -28.1350   15.4860   28.3240 C.3    32  ALA32       0.1562
     34  C        -27.6580   14.1690   28.9290 C.2    32  ALA32       0.2260
     35  O        -28.0050   13.1180   28.4040 O.2    32  ALA32      -0.2867
     36  CB       -29.5750   15.7380   28.6870 C.3    32  ALA32       0.0290
     37  N        -27.9590   12.0630   32.2920 N.3    34  LYS34      -0.1245
     38  CA       -28.6690   11.9390   33.5690 C.3    34  LYS34       0.1561
     39  C        -28.0010   10.8760   34.4230 C.2    34  LYS34       0.2260
     40  O        -28.1120    9.7010   34.1400 O.2    34  LYS34      -0.2867
     41  CB       -30.1120   11.5790   33.2990 C.3    34  LYS34       0.0271
     42  CG       -30.9730   11.3030   34.5210 C.3    34  LYS34       0.0035
     43  CD       -32.4590   11.4720   34.1970 C.3    34  LYS34       0.0206
     44  CE       -33.3650   11.1020   35.3660 C.3    34  LYS34       0.1093
     45  NZ       -34.8290   11.2680   35.0430 N.3    34  LYS34      -0.1314
     46  N        -37.8900    3.5450   34.1150 N.3    52  GLU52      -0.1245
     47  CA       -37.6060    4.6500   33.1890 C.3    52  GLU52       0.1567
     48  C        -36.8850    4.1600   31.9450 C.2    52  GLU52       0.2260
     49  O        -37.2460    4.5380   30.8450 O.2    52  GLU52      -0.2867
     50  CB       -36.7920    5.7480   33.8870 C.3    52  GLU52       0.0388
     51  CG       -36.3220    6.9390   33.0430 C.3    52  GLU52       0.1160
     52  CD       -35.7660    8.1060   33.9070 C.2    52  GLU52       0.3649
     53  OE1      -35.4580    7.9110   35.1420 O.co2  52  GLU52      -0.2457
     54  OE2      -35.6270    9.2410   33.3380 O.co2  52  GLU52      -0.2457
     55  N        -39.1270   12.2310   24.6490 N.3    65  VAL65      -0.1245
     56  CA       -37.6950   12.4350   24.7500 C.3    65  VAL65       0.1561
     57  C        -36.9570   11.1340   24.3080 C.2    65  VAL65       0.2260
     58  O        -37.4130   10.0490   24.5880 O.2    65  VAL65      -0.2867
     59  CB       -37.3950   12.9660   26.1930 C.3    65  VAL65       0.0252
     60  CG1      -37.0430   11.8480   27.1470 C.3    65  VAL65       0.0019
     61  CG2      -36.3380   14.0180   26.1760 C.3    65  VAL65       0.0019
     62  N        -29.2500   11.2860   26.6390 N.3    81  PHE81      -0.1227
     63  CA       -30.4720   11.7520   25.9100 C.3    81  PHE81       0.1736
     64  C        -30.1140   12.7970   24.8380 C.2    81  PHE81       0.2595
     65  O        -29.0870   13.5010   24.9260 O.2    81  PHE81      -0.2718
     66  CB       -31.4710   12.4570   26.8350 C.3    81  PHE81       0.0547
     67  CG       -32.2010   11.5720   27.8210 C.ar   81  PHE81      -0.0202
     68  CD1      -33.4250   11.0330   27.5200 C.ar   81  PHE81      -0.0042
     69  CD2      -31.7300   11.4050   29.0980 C.ar   81  PHE81      -0.0042
     70  CE1      -34.1230   10.2580   28.4390 C.ar   81  PHE81      -0.0003
     71  CE2      -32.4190   10.6440   30.0340 C.ar   81  PHE81      -0.0003
     72  CZ       -33.6120   10.0490   29.6990 C.ar   81  PHE81      -0.0000
     73  N        -30.9970   12.9130   23.8580 N.am   82  GLU82      -0.1965
     74  CA       -30.9820   14.0000   22.8940 C.3    82  GLU82       0.1733
     75  C        -31.3110   15.2440   23.7100 C.2    82  GLU82       0.2616
     76  O        -32.2480   15.2150   24.5120 O.2    82  GLU82      -0.2715
     77  CB       -32.0330   13.7240   21.7790 C.3    82  GLU82       0.0429
     78  CG       -31.6630   14.1550   20.3370 C.3    82  GLU82       0.1163
     79  CD       -31.9130   13.1070   19.1910 C.2    82  GLU82       0.3649
     80  OE1      -30.9210   12.4240   18.7540 O.co2  82  GLU82      -0.2457
     81  OE2      -33.0820   13.0010   18.7060 O.co2  82  GLU82      -0.2457
     82  N        -30.5370   16.3170   23.5300 N.am   83  PHE83      -0.1960
     83  CA       -30.6190   17.5250   24.4000 C.3    83  PHE83       0.1771
     84  C        -31.6870   18.5250   23.9950 C.2    83  PHE83       0.2619
     85  O        -31.7570   18.9020   22.8550 O.2    83  PHE83      -0.2715
     86  CB       -29.2830   18.2780   24.3990 C.3    83  PHE83       0.0574
     87  CG       -29.2610   19.5140   25.2600 C.ar   83  PHE83      -0.0200
     88  CD1      -29.2770   19.4240   26.6500 C.ar   83  PHE83      -0.0042
     89  CD2      -29.1960   20.7810   24.6780 C.ar   83  PHE83      -0.0042
     90  CE1      -29.2300   20.5460   27.4480 C.ar   83  PHE83      -0.0003
     91  CE2      -29.1300   21.9160   25.4760 C.ar   83  PHE83      -0.0003
     92  CZ       -29.1800   21.7920   26.8550 C.ar   83  PHE83      -0.0000
     93  N        -32.4750   18.9820   24.9630 N.am   84  LEU84      -0.1963
     94  CA       -33.4870   20.0030   24.7550 C.3    84  LEU84       0.1728
     95  C        -33.2060   21.1220   25.7580 C.2    84  LEU84       0.2616
     96  O        -33.0200   20.8430   26.9520 O.2    84  LEU84      -0.2715
     97  CB       -34.8320   19.3730   24.9760 C.3    84  LEU84       0.0311
     98  CG       -35.2550   18.5160   23.7620 C.3    84  LEU84       0.0022
     99  CD1      -35.7430   17.1550   24.1740 C.3    84  LEU84       0.0001
    100  CD2      -36.3420   19.2210   22.9480 C.3    84  LEU84       0.0001
    101  N        -33.1700   22.3770   25.2850 N.am   85  HIS85      -0.1959
    102  CA       -32.4210   23.4180   26.0320 C.3    85  HIS85       0.1787
    103  C        -33.1420   24.0330   27.2480 C.2    85  HIS85       0.2620
    104  O        -32.4710   24.4980   28.1570 O.2    85  HIS85      -0.2715
    105  CB       -31.8730   24.5060   25.0990 C.3    85  HIS85       0.0785
    106  CG       -32.8610   25.5840   24.8020 C.ar   85  HIS85       0.0821
    107  ND1      -34.0580   25.3330   24.1590 N.ar   85  HIS85      -0.2267
    108  CD2      -32.8660   26.9030   25.1070 C.ar   85  HIS85       0.1154
    109  CE1      -34.7480   26.4570   24.0530 C.ar   85  HIS85       0.1986
    110  NE2      -34.0490   27.4250   24.6230 N.ar   85  HIS85      -0.2212
    111  N        -34.4770   24.0070   27.2770 N.am   86  GLN86      -0.1963
    112  CA       -35.2430   24.6530   28.3590 C.3    86  GLN86       0.1733
    113  C        -36.5500   23.9000   28.7220 C.2    86  GLN86       0.2616
    114  O        -37.0990   23.1670   27.9030 O.2    86  GLN86      -0.2715
    115  CB       -35.6140   26.0390   27.8640 C.3    86  GLN86       0.0408
    116  CG       -35.9610   27.0830   28.9230 C.3    86  GLN86       0.0908
    117  CD       -36.2840   28.4110   28.2520 C.2    86  GLN86       0.2608
    118  OE1      -35.6510   29.4170   28.5140 O.2    86  GLN86      -0.2717
    119  NE2      -37.2470   28.3970   27.3340 N.am   86  GLN86      -0.0878
    120  N        -37.0570   24.0930   29.9430 N.am   87  ASP87      -0.1971
    121  CA       -38.3620   23.5240   30.2670 C.3    87  ASP87       0.1709
    122  C        -39.5030   24.5580   30.1920 C.2    87  ASP87       0.2293
    123  O        -39.2710   25.7550   30.2040 O.2    87  ASP87      -0.2864
    124  CB       -38.3390   22.7540   31.5770 C.3    87  ASP87       0.1436
    125  CG       -38.0060   23.6200   32.7660 C.2    87  ASP87       0.3671
    126  OD1      -38.8590   24.4410   33.0770 O.co2  87  ASP87      -0.2456
    127  OD2      -36.9790   23.4170   33.4410 O.co2  87  ASP87      -0.2456
    128  N        -39.6810   27.3880   32.9150 N.3    90  LYS90      -0.1245
    129  CA       -38.7740   28.5260   32.6920 C.3    90  LYS90       0.1561
    130  C        -39.2180   29.4100   31.5280 C.2    90  LYS90       0.2260
    131  O        -38.9970   30.6200   31.5510 O.2    90  LYS90      -0.2867
    132  CB       -37.3050   28.0780   32.4900 C.3    90  LYS90       0.0271
    133  CG       -36.4990   27.8900   33.7690 C.3    90  LYS90       0.0035
    134  CD       -37.1870   27.0160   34.8260 C.3    90  LYS90       0.0206
    135  CE       -36.2230   26.6010   35.9400 C.3    90  LYS90       0.1093
    136  NZ       -35.3210   25.4700   35.5410 N.3    90  LYS90      -0.1314
    137  N        -42.1510   21.4940   34.5750 N.3   132  GLN132     -0.1231
    138  CA       -40.7090   21.2370   34.7380 C.3   132  GLN132      0.1698
    139  C        -40.2360   19.9930   33.9640 C.2   132  GLN132      0.2592
    140  O        -39.0380   19.8530   33.6690 O.2   132  GLN132     -0.2718
    141  CB       -40.3670   21.0750   36.2280 C.3   132  GLN132      0.0381
    142  CG       -38.9430   21.5150   36.6190 C.3   132  GLN132      0.0905
    143  CD       -38.1780   20.5760   37.6040 C.2   132  GLN132      0.2608
    144  OE1      -38.7680   19.9270   38.4920 O.2   132  GLN132     -0.2717
    145  NE2      -36.8340   20.5230   37.4470 N.am  132  GLN132     -0.0878
    146  N        -41.1890   19.0920   33.6810 N.am  133  ASN133     -0.1974
    147  CA       -40.9650   17.8420   32.9850 C.3   133  ASN133      0.1688
    148  C        -41.3670   17.8840   31.5130 C.2   133  ASN133      0.2292
    149  O        -41.4390   16.8470   30.8870 O.2   133  ASN133     -0.2864
    150  CB       -41.7690   16.7070   33.6800 C.3   133  ASN133      0.1181
    151  CG       -41.2560   16.3660   35.0770 C.2   133  ASN133      0.2629
    152  OD1      -40.1340   16.7320   35.4830 O.2   133  ASN133     -0.2716
    153  ND2      -42.0780   15.6550   35.8210 N.am  133  ASN133     -0.0877
    154  N        -40.1790   19.6080   27.8940 N.3   135  LEU135     -0.1245
    155  CA       -39.0060   20.2820   27.3500 C.3   135  LEU135      0.1561
    156  C        -39.2210   20.8490   25.9390 C.2   135  LEU135      0.2260
    157  O        -39.9120   20.2560   25.1500 O.2   135  LEU135     -0.2867
    158  CB       -37.8500   19.2950   27.3560 C.3   135  LEU135      0.0270
    159  CG       -37.5550   18.6490   28.7130 C.3   135  LEU135      0.0019
    160  CD1      -36.4660   17.5930   28.5650 C.3   135  LEU135      0.0001
    161  CD2      -37.1600   19.6920   29.7380 C.3   135  LEU135      0.0001
    162  N        -41.0010   14.4920   29.0800 N.3   145  ALA145     -0.1231
    163  CA       -39.7690   13.9740   29.6840 C.3   145  ALA145      0.1694
    164  C        -39.9980   13.4970   31.1190 C.2   145  ALA145      0.2592
    165  O        -41.1260   13.4600   31.6000 O.2   145  ALA145     -0.2718
    166  CB       -38.6920   15.0400   29.6390 C.3   145  ALA145      0.0304
    167  N        -38.9140   13.1210   31.7870 N.am  146  ASP146     -0.1974
    168  CA       -38.9180   12.4790   33.1130 C.3   146  ASP146      0.1709
    169  C        -39.9060   11.3350   33.2600 C.2   146  ASP146      0.2293
    170  O        -41.0190   11.5130   33.7700 O.2   146  ASP146     -0.2864
    171  CB       -39.1090   13.4960   34.2410 C.3   146  ASP146      0.1436
    172  CG       -38.5690   12.9880   35.5930 C.2   146  ASP146      0.3671
    173  OD1      -38.8100   11.8070   35.9790 O.co2 146  ASP146     -0.2456
    174  OD2      -37.9050   13.7920   36.2940 O.co2 146  ASP146     -0.2456
@<TRIPOS>BOND
     1    81    79   ar
     2    80    79   ar
     3    79    78    1
     4    78    77    1
     5    77    74    1
     6    85    84    2
     7    74    75    1
     8    74    73    1
     9   100    98    1
    10    82    75   am
    11    82    83    1
    12    75    76    2
    13    98    99    1
    14    98    97    1
    15    73    64   am
    16    84    83    1
    17    84    93   am
    18   109   107   ar
    19   109   110   ar
    20   107   106   ar
    21    57    58    2
    22    57    56    1
    23    86    83    1
    24    86    87    1
    25   110   108   ar
    26    55    56    1
    27    89    87   ar
    28    89    91   ar
    29    56    59    1
    30    94    93    1
    31    94    97    1
    32    94    95    1
    33   106   105    1
    34   106   108   ar
    35    64    65    2
    36    64    63    1
    37   105   102    1
    38   157   156    2
    39    87    88   ar
    40   101    95   am
    41   101   102    1
    42    91    92   ar
    43    95    96    2
    44    63    62    1
    45    63    66    1
    46   156   155    1
    47   102   103    1
    48    61    59    1
    49    59    60    1
    50    88    90   ar
    51    66    67    1
    52    92    90   ar
    53    32    33    1
    54   103   111   am
    55   103   104    2
    56   111   112    1
    57   119   117   am
    58   155   158    1
    59   155   154    1
    60   158   159    1
    61    68    67   ar
    62    68    70   ar
    63    67    69   ar
    64   115   112    1
    65   115   116    1
    66   114   113    2
    67   117   118    2
    68   117   116    1
    69    33    36    1
    70    33    34    1
    71   112   113    1
    72    35    34    2
    73    70    72   ar
    74   160   159    1
    75   159   161    1
    76   113   120   am
    77   162   163    1
    78    69    71   ar
    79   166   163    1
    80   163   164    1
    81    72    71   ar
    82   120   121    1
    83   122   123    2
    84   122   121    1
    85   121   124    1
    86    49    48    2
    87   149   148    2
    88   164   165    2
    89   164   167   am
    90     8     6    1
    91   148   147    1
    92   130   131    2
    93   130   129    1
    94   124   125    1
    95   167   168    1
    96    48    47    1
    97    37    38    1
    98     7     5    1
    99   132   129    1
   100   132   133    1
   101   129   128    1
   102     6     5    1
   103    30    29    1
   104   125   126   ar
   105   125   127   ar
   106   147   150    1
   107   147   146    1
   108    51    50    1
   109    51    52    1
   110   168   169    1
   111   168   171    1
   112    47    50    1
   113    47    46    1
   114     5     2    1
   115   169   170    2
   116    41    38    1
   117    41    42    1
   118    54    52   ar
   119    38    39    1
   120   140   139    2
   121   150   151    1
   122   146   139   am
   123   133   134    1
   124    52    53   ar
   125   139   138    1
   126    40    39    2
   127    43    42    1
   128    43    44    1
   129   171   172    1
   130    29    31    1
   131    29    26    1
   132    27    26    1
   133    27    28    2
   134   137   138    1
   135   138   141    1
   136     2     1    1
   137     2     3    1
   138   134   135    1
   139    26    25    1
   140    45    44    1
   141   151   152    2
   142   151   153   am
   143   136   135    1
   144     4     3    2
   145   172   173   ar
   146   172   174   ar
   147     3     9   am
   148   141   142    1
   149     9    10    1
   150   142   143    1
   151    10    11    1
   152   145   143   am
   153   143   144    2
   154    24    23    1
   155    21    23   ar
   156    21    19   ar
   157    12    11    2
   158    23    22   ar
   159    19    18   ar
   160    22    20   ar
   161    18    20   ar
   162    18    17    1
   163    17    14    1
   164    16    15    2
   165    15    14    1
   166    14    13    1
