@<TRIPOS>MOLECULE
tmp/6gueC00.pdb
 166 159 0 0 0
SMALL
GASTEIGER

@<TRIPOS>ATOM
      1  N        -27.9120   20.3560   33.8720 N.3    11  ILE11      -0.1231
      2  CA       -29.2330   20.8670   33.5050 C.3    11  ILE11       0.1692
      3  C        -30.4010   20.4160   34.4090 C.2    11  ILE11       0.2593
      4  O        -31.5210   20.8960   34.2390 O.2    11  ILE11      -0.2718
      5  CB       -29.5830   20.6430   32.0070 C.3    11  ILE11       0.0266
      6  CG1      -29.5640   19.1730   31.6330 C.3    11  ILE11       0.0019
      7  CG2      -28.6490   21.4550   31.0950 C.3    11  ILE11       0.0020
      8  CD1      -29.6300   18.8810   30.1180 C.3    11  ILE11       0.0001
      9  N        -30.1410   19.5530   35.3980 N.am   12  GLY12      -0.1942
     10  CA       -31.2070   19.1070   36.2690 C.3    12  GLY12       0.2014
     11  C        -30.8910   17.8670   37.0380 C.2    12  GLY12       0.2639
     12  O        -29.7890   17.3390   36.9600 O.2    12  GLY12      -0.2714
     13  N        -31.9000   17.3930   37.7580 N.am   13  GLU13      -0.1963
     14  CA       -31.9180   16.0590   38.4220 C.3    13  GLU13       0.1733
     15  C        -32.8990   15.0250   37.7780 C.2    13  GLU13       0.2616
     16  O        -32.4980   13.9470   37.2730 O.2    13  GLU13      -0.2715
     17  CB       -32.3390   16.1670   39.9140 C.3    13  GLU13       0.0429
     18  CG       -31.2120   16.3410   40.8980 C.3    13  GLU13       0.1163
     19  CD       -30.3440   17.5250   40.5510 C.2    13  GLU13       0.3649
     20  OE1      -29.1380   17.4540   40.8240 O.co2  13  GLU13      -0.2457
     21  OE2      -30.8470   18.5280   39.9980 O.co2  13  GLU13      -0.2457
     22  N        -34.1830   15.3340   37.9050 N.am   14  GLY14      -0.1955
     23  CA       -35.2330   14.3590   37.6610 C.3    14  GLY14       0.1869
     24  C        -35.2510   13.2830   38.7440 C.2    14  GLY14       0.2309
     25  O        -34.5620   13.4000   39.7510 O.2    14  GLY14      -0.2863
     26  N        -28.4940   15.2440   35.4710 N.3    19  VAL19      -0.1245
     27  CA       -28.5220   15.3020   34.0260 C.3    19  VAL19       0.1561
     28  C        -27.6190   16.4350   33.5990 C.2    19  VAL19       0.2260
     29  O        -27.7320   17.5250   34.1480 O.2    19  VAL19      -0.2867
     30  CB       -29.9210   15.5990   33.5020 C.3    19  VAL19       0.0252
     31  CG1      -29.9560   15.5730   31.9690 C.3    19  VAL19       0.0019
     32  CG2      -30.9070   14.6200   34.0950 C.3    19  VAL19       0.0019
     33  N        -28.1950   14.8700   26.2300 N.3    32  ALA32      -0.1245
     34  CA       -28.3100   14.9020   27.6810 C.3    32  ALA32       0.1562
     35  C        -27.8350   13.5600   28.2810 C.2    32  ALA32       0.2260
     36  O        -28.2600   12.5010   27.8510 O.2    32  ALA32      -0.2867
     37  CB       -29.7170   15.2050   28.0570 C.3    32  ALA32       0.0290
     38  N        -27.6610   11.3860   31.6510 N.3    34  LYS34      -0.1245
     39  CA       -28.1710   11.1980   33.0120 C.3    34  LYS34       0.1561
     40  C        -27.3250   10.1370   33.6970 C.2    34  LYS34       0.2260
     41  O        -27.2260    9.0030   33.2290 O.2    34  LYS34      -0.2867
     42  CB       -29.6280   10.7810   33.0020 C.3    34  LYS34       0.0271
     43  CG       -30.2840   10.7120   34.3920 C.3    34  LYS34       0.0035
     44  CD       -31.6520   10.0540   34.3230 C.3    34  LYS34       0.0206
     45  CE       -32.7000   10.9660   33.9040 C.3    34  LYS34       0.1093
     46  NZ       -34.0040   10.3160   33.5620 N.3    34  LYS34      -0.1314
     47  N        -39.1710   11.5010   24.2970 N.3    65  VAL65      -0.1245
     48  CA       -37.7460   11.6400   24.3460 C.3    65  VAL65       0.1561
     49  C        -37.0180   10.3110   23.9900 C.2    65  VAL65       0.2260
     50  O        -37.3580    9.2530   24.4730 O.2    65  VAL65      -0.2867
     51  CB       -37.2920   12.1430   25.7260 C.3    65  VAL65       0.0252
     52  CG1      -37.5300   11.0620   26.7990 C.3    65  VAL65       0.0019
     53  CG2      -35.8540   12.5950   25.6610 C.3    65  VAL65       0.0019
     54  N        -29.4800   10.5850   26.1850 N.3    81  PHE81      -0.1227
     55  CA       -30.6830   10.9960   25.4460 C.3    81  PHE81       0.1736
     56  C        -30.3500   12.0420   24.3730 C.2    81  PHE81       0.2595
     57  O        -29.3600   12.8010   24.5070 O.2    81  PHE81      -0.2718
     58  CB       -31.6360   11.6870   26.4060 C.3    81  PHE81       0.0547
     59  CG       -32.1540   10.8230   27.5290 C.ar   81  PHE81      -0.0202
     60  CD1      -31.5030   10.7770   28.7560 C.ar   81  PHE81      -0.0042
     61  CD2      -33.3510   10.1430   27.3900 C.ar   81  PHE81      -0.0042
     62  CE1      -32.0460   10.0710   29.8250 C.ar   81  PHE81      -0.0003
     63  CE2      -33.8910    9.4320   28.4660 C.ar   81  PHE81      -0.0003
     64  CZ       -33.2220    9.3800   29.6570 C.ar   81  PHE81      -0.0000
     65  N        -31.2050   12.1260   23.3700 N.am   82  GLU82      -0.1965
     66  CA       -31.1850   13.2700   22.4670 C.3    82  GLU82       0.1733
     67  C        -31.3930   14.5310   23.3260 C.2    82  GLU82       0.2616
     68  O        -32.1530   14.4870   24.3240 O.2    82  GLU82      -0.2715
     69  CB       -32.2940   13.1900   21.4410 C.3    82  GLU82       0.0429
     70  CG       -33.7030   13.2420   22.0450 C.3    82  GLU82       0.1163
     71  CD       -34.8520   13.3870   21.0590 C.2    82  GLU82       0.3649
     72  OE1      -34.7730   14.1210   20.0490 O.co2  82  GLU82      -0.2457
     73  OE2      -35.8810   12.7870   21.3730 O.co2  82  GLU82      -0.2457
     74  N        -30.6660   15.6060   23.0030 N.am   83  PHE83      -0.1960
     75  CA       -30.7480   16.8360   23.7630 C.3    83  PHE83       0.1771
     76  C        -31.9850   17.6430   23.3330 C.2    83  PHE83       0.2619
     77  O        -32.1900   17.8600   22.1750 O.2    83  PHE83      -0.2715
     78  CB       -29.5100   17.6850   23.5890 C.3    83  PHE83       0.0574
     79  CG       -29.5540   18.9770   24.4000 C.ar   83  PHE83      -0.0200
     80  CD1      -29.4480   18.9420   25.7800 C.ar   83  PHE83      -0.0042
     81  CD2      -29.7550   20.2050   23.7780 C.ar   83  PHE83      -0.0042
     82  CE1      -29.4880   20.1130   26.5410 C.ar   83  PHE83      -0.0003
     83  CE2      -29.8030   21.4070   24.5270 C.ar   83  PHE83      -0.0003
     84  CZ       -29.6780   21.3430   25.9060 C.ar   83  PHE83      -0.0000
     85  N        -32.8140   18.0560   24.2590 N.am   84  LEU84      -0.1963
     86  CA       -33.8350   19.0640   23.9910 C.3    84  LEU84       0.1728
     87  C        -33.4830   20.3030   24.7970 C.2    84  LEU84       0.2616
     88  O        -32.8770   20.1990   25.8570 O.2    84  LEU84      -0.2715
     89  CB       -35.2180   18.5130   24.3200 C.3    84  LEU84       0.0311
     90  CG       -35.5220   17.4150   23.2870 C.3    84  LEU84       0.0022
     91  CD1      -35.8760   16.1190   23.9270 C.3    84  LEU84       0.0001
     92  CD2      -36.6580   17.8750   22.4170 C.3    84  LEU84       0.0001
     93  N        -33.8940   21.4610   24.2870 N.am   85  HIS85      -0.1959
     94  CA       -33.3520   22.7530   24.7060 C.3    85  HIS85       0.1787
     95  C        -33.8530   23.2370   26.0560 C.2    85  HIS85       0.2620
     96  O        -33.0860   23.7560   26.8200 O.2    85  HIS85      -0.2715
     97  CB       -33.5330   23.7730   23.5690 C.3    85  HIS85       0.0785
     98  CG       -32.8270   23.3370   22.2890 C.ar   85  HIS85       0.0821
     99  ND1      -33.3630   22.3840   21.4220 N.ar   85  HIS85      -0.2267
    100  CD2      -31.5930   23.6520   21.7910 C.ar   85  HIS85       0.1154
    101  CE1      -32.5300   22.2020   20.4190 C.ar   85  HIS85       0.1986
    102  NE2      -31.4430   22.9380   20.6290 N.ar   85  HIS85      -0.2212
    103  N        -35.1130   23.0020   26.3870 N.am   86  GLN86      -0.1963
    104  CA       -35.6310   23.3930   27.7010 C.3    86  GLN86       0.1733
    105  C        -36.9540   22.7290   28.0030 C.2    86  GLN86       0.2616
    106  O        -37.5550   22.0950   27.1470 O.2    86  GLN86      -0.2715
    107  CB       -35.7380   24.9370   27.8590 C.3    86  GLN86       0.0408
    108  CG       -36.8570   25.6340   27.0870 C.3    86  GLN86       0.0908
    109  CD       -36.8280   27.1360   27.2790 C.2    86  GLN86       0.2608
    110  OE1      -35.8150   27.7000   27.6480 O.2    86  GLN86      -0.2717
    111  NE2      -37.9300   27.7770   27.0400 N.am   86  GLN86      -0.0878
    112  N        -37.3670   22.8220   29.2460 N.am   87  ASP87      -0.1971
    113  CA       -38.6560   22.3150   29.6790 C.3    87  ASP87       0.1709
    114  C        -39.7360   23.3630   29.5160 C.2    87  ASP87       0.2293
    115  O        -39.4260   24.5330   29.3690 O.2    87  ASP87      -0.2864
    116  CB       -38.5910   21.6830   31.0590 C.3    87  ASP87       0.1436
    117  CG       -38.3360   22.6900   32.2280 C.2    87  ASP87       0.3671
    118  OD1      -38.9450   23.7640   32.2510 O.co2  87  ASP87      -0.2456
    119  OD2      -37.5710   22.3180   33.1540 O.co2  87  ASP87      -0.2456
    120  N        -39.8830   26.3490   31.9970 N.3    90  LYS90      -0.1245
    121  CA       -39.0230   27.4820   31.6410 C.3    90  LYS90       0.1561
    122  C        -39.6180   28.3450   30.5780 C.2    90  LYS90       0.2260
    123  O        -39.5680   29.5770   30.6870 O.2    90  LYS90      -0.2867
    124  CB       -37.5990   27.1000   31.2740 C.3    90  LYS90       0.0271
    125  CG       -36.9490   26.4210   32.4690 C.3    90  LYS90       0.0035
    126  CD       -35.4740   26.6740   32.7890 C.3    90  LYS90       0.0206
    127  CE       -35.2830   26.0780   34.2070 C.3    90  LYS90       0.1093
    128  NZ       -33.8900   25.8200   34.6710 N.3    90  LYS90      -0.1314
    129  N        -42.1670   20.4240   33.9710 N.3   132  GLN132     -0.1231
    130  CA       -40.7390   20.1130   34.0430 C.3   132  GLN132      0.1698
    131  C        -40.3420   18.8500   33.2820 C.2   132  GLN132      0.2592
    132  O        -39.1550   18.7100   32.9640 O.2   132  GLN132     -0.2718
    133  CB       -40.2660   19.9660   35.5190 C.3   132  GLN132      0.0381
    134  CG       -40.4050   21.2560   36.3390 C.3   132  GLN132      0.0905
    135  CD       -41.8370   21.6370   36.8670 C.2   132  GLN132      0.2608
    136  OE1      -42.8830   20.9310   36.7370 O.2   132  GLN132     -0.2717
    137  NE2      -41.8750   22.8260   37.4530 N.am  132  GLN132     -0.0878
    138  N        -41.3110   17.9480   33.0030 N.am  133  ASN133     -0.1974
    139  CA       -41.0640   16.6780   32.2670 C.3   133  ASN133      0.1688
    140  C        -41.4370   16.7040   30.7840 C.2   133  ASN133      0.2292
    141  O        -41.3330   15.7120   30.1040 O.2   133  ASN133     -0.2864
    142  CB       -41.7630   15.5290   32.9960 C.3   133  ASN133      0.1181
    143  CG       -41.0920   15.2020   34.3170 C.2   133  ASN133      0.2629
    144  OD1      -39.9300   15.5750   34.5110 O.2   133  ASN133     -0.2716
    145  ND2      -41.8050   14.4960   35.2380 N.am  133  ASN133     -0.0877
    146  N        -40.4420   18.4450   27.3760 N.3   135  LEU135     -0.1245
    147  CA       -39.3190   19.1650   26.8070 C.3   135  LEU135      0.1561
    148  C        -39.5510   19.6700   25.3770 C.2   135  LEU135      0.2260
    149  O        -40.0750   18.9620   24.5440 O.2   135  LEU135     -0.2867
    150  CB       -38.1160   18.2610   26.8020 C.3   135  LEU135      0.0270
    151  CG       -37.8280   17.6290   28.1700 C.3   135  LEU135      0.0019
    152  CD1      -36.5580   16.8100   28.0320 C.3   135  LEU135      0.0001
    153  CD2      -37.7450   18.6520   29.3120 C.3   135  LEU135      0.0001
    154  N        -40.8360   13.4000   28.6660 N.3   145  ALA145     -0.1231
    155  CA       -39.5820   12.9240   29.2410 C.3   145  ALA145      0.1694
    156  C        -39.7440   12.4920   30.7050 C.2   145  ALA145      0.2592
    157  O        -40.8210   12.6060   31.3280 O.2   145  ALA145     -0.2718
    158  CB       -38.4820   13.9520   29.1130 C.3   145  ALA145      0.0304
    159  N        -38.6360   11.9750   31.2380 N.am  146  ASP146     -0.1974
    160  CA       -38.5610   11.3530   32.5680 C.3   146  ASP146      0.1709
    161  C        -39.5950   10.2890   32.8530 C.2   146  ASP146      0.2293
    162  O        -40.6120   10.5440   33.4890 O.2   146  ASP146     -0.2864
    163  CB       -38.5520   12.3710   33.6980 C.3   146  ASP146      0.1436
    164  CG       -37.9230   11.7720   34.9850 C.2   146  ASP146      0.3671
    165  OD1      -37.8490   10.5190   35.1140 O.co2 146  ASP146     -0.2456
    166  OD2      -37.4590   12.5490   35.8640 O.co2 146  ASP146     -0.2456
@<TRIPOS>BOND
     1    72    71   ar
     2   101   102   ar
     3   101    99   ar
     4   102   100   ar
     5    71    73   ar
     6    71    70    1
     7    99    98   ar
     8    69    70    1
     9    69    66    1
    10   100    98   ar
    11    77    76    2
    12    98    97    1
    13    92    90    1
    14    66    67    1
    15    66    65    1
    16    74    67   am
    17    74    75    1
    18    90    91    1
    19    90    89    1
    20    67    68    2
    21    76    75    1
    22    76    85   am
    23    65    56   am
    24    97    94    1
    25    78    75    1
    26    78    79    1
    27    81    79   ar
    28    81    83   ar
    29    49    48    1
    30    49    50    2
    31    86    85    1
    32    86    89    1
    33    86    87    1
    34    93    94    1
    35    93    87   am
    36    47    48    1
    37    48    51    1
    38    56    57    2
    39    56    55    1
    40    79    80   ar
    41    83    84   ar
    42   149   148    2
    43    94    95    1
    44    87    88    2
    45   148   147    1
    46    55    54    1
    47    55    58    1
    48    53    51    1
    49    51    52    1
    50    80    82   ar
    51    84    82   ar
    52    95   103   am
    53    95    96    2
    54    33    34    1
    55   103   104    1
    56    58    59    1
    57   150   147    1
    58   150   151    1
    59   147   146    1
    60   111   109   am
    61   108   109    1
    62   108   107    1
    63   106   105    2
    64   109   110    2
    65    61    59   ar
    66    61    63   ar
    67    59    60   ar
    68    34    37    1
    69    34    35    1
    70   104   107    1
    71   104   105    1
    72    36    35    2
    73   105   112   am
    74   152   151    1
    75   151   153    1
    76    63    64   ar
    77   154   155    1
    78    60    62   ar
    79   158   155    1
    80   155   156    1
    81   112   113    1
    82   115   114    2
    83   114   113    1
    84    64    62   ar
    85   113   116    1
    86   141   140    2
    87     8     6    1
    88   122   123    2
    89   122   121    1
    90   156   159   am
    91   156   157    2
    92   140   139    1
    93   116   117    1
    94     7     5    1
    95   159   160    1
    96   124   121    1
    97   124   125    1
    98     6     5    1
    99   121   120    1
   100    38    39    1
   101    31    30    1
   102     5     2    1
   103   117   118   ar
   104   117   119   ar
   105   139   142    1
   106   139   138    1
   107   125   126    1
   108   160   161    1
   109   160   163    1
   110   126   127    1
   111   161   162    2
   112   132   131    2
   113   142   143    1
   114    42    39    1
   115    42    43    1
   116   138   131   am
   117    39    40    1
   118    41    40    2
   119   131   130    1
   120    30    27    1
   121    30    32    1
   122     2     1    1
   123     2     3    1
   124    46    45    1
   125    28    27    1
   126    28    29    2
   127   163   164    1
   128    45    44    1
   129   129   130    1
   130    27    26    1
   131   130   133    1
   132   127   128    1
   133     4     3    2
   134   143   144    2
   135   143   145   am
   136    44    43    1
   137     3     9   am
   138   164   165   ar
   139   164   166   ar
   140     9    10    1
   141   133   134    1
   142    10    11    1
   143   134   135    1
   144   136   135    2
   145   135   137   am
   146    12    11    2
   147    11    13   am
   148    16    15    2
   149    23    22    1
   150    23    24    1
   151    13    14    1
   152    15    22   am
   153    15    14    1
   154    14    17    1
   155    24    25    2
   156    17    18    1
   157    21    19   ar
   158    19    20   ar
   159    19    18    1
