@<TRIPOS>MOLECULE
tmp/6gukA00.pdb
 167 159 0 0 0
SMALL
GASTEIGER

@<TRIPOS>ATOM
      1  N         14.4460   14.8170   -6.2860 N.3    10  ILE10      -0.1231
      2  CA        13.2730   13.9470   -6.2950 C.3    10  ILE10       0.1692
      3  C         13.4560   12.9270   -5.2280 C.2    10  ILE10       0.2593
      4  O         12.5620   12.6830   -4.4350 O.2    10  ILE10      -0.2718
      5  CB        13.0410   13.2800   -7.6910 C.3    10  ILE10       0.0266
      6  CG1       13.0230   14.3230   -8.8240 C.3    10  ILE10       0.0019
      7  CG2       11.7190   12.5070   -7.6700 C.3    10  ILE10       0.0020
      8  CD1       13.0030   13.7210  -10.2160 C.3    10  ILE10       0.0001
      9  N         14.5740   12.2100   -5.2560 N.am   11  GLY11      -0.1942
     10  CA        14.8690   11.2480   -4.2000 C.3    11  GLY11       0.2014
     11  C         15.9340   10.3240   -4.6130 C.2    11  GLY11       0.2639
     12  O         16.6320   10.5920   -5.5790 O.2    11  GLY11      -0.2714
     13  N         16.0770    9.2360   -3.8530 N.am   12  GLU12      -0.1963
     14  CA        17.0510    8.1790   -4.1300 C.3    12  GLU12       0.1733
     15  C         16.5720    7.2020   -5.1830 C.2    12  GLU12       0.2616
     16  O         15.4770    6.5870   -5.0980 O.2    12  GLU12      -0.2715
     17  CB        17.3680    7.3630   -2.8570 C.3    12  GLU12       0.0429
     18  CG        18.1430    8.1430   -1.8220 C.3    12  GLU12       0.1163
     19  CD        19.5430    8.5330   -2.3000 C.2    12  GLU12       0.3649
     20  OE1       20.0240    9.5900   -1.8440 O.co2  12  GLU12      -0.2457
     21  OE2       20.1570    7.8130   -3.1440 O.co2  12  GLU12      -0.2457
     22  N         17.4000    7.0850   -6.2140 N.am   13  GLY13      -0.1955
     23  CA        17.3200    5.9970   -7.1330 C.3    13  GLY13       0.1869
     24  C         18.2490    4.9440   -6.5840 C.2    13  GLY13       0.2309
     25  O         18.9390    5.1440   -5.5510 O.2    13  GLY13      -0.2863
     26  N         18.3490   11.2460   -7.7280 N.3    18  VAL18      -0.1245
     27  CA        17.7490   11.7780   -8.9270 C.3    18  VAL18       0.1561
     28  C         17.2350   13.1570   -8.6000 C.2    18  VAL18       0.2260
     29  O         16.5210   13.3800   -7.6510 O.2    18  VAL18      -0.2867
     30  CB        16.6190   10.9000   -9.4830 C.3    18  VAL18       0.0252
     31  CG1       16.0720   11.4280  -10.7920 C.3    18  VAL18       0.0019
     32  CG2       17.1070    9.4680   -9.6510 C.3    18  VAL18       0.0019
     33  N         15.2940   16.7130  -10.4980 N.3    20  LYS20      -0.1245
     34  CA        14.5720   17.3630  -11.5900 C.3    20  LYS20       0.1561
     35  C         15.3030   18.6330  -11.9010 C.2    20  LYS20       0.2260
     36  O         15.5940   19.3830  -10.9500 O.2    20  LYS20      -0.2867
     37  CB        13.2090   17.6450  -11.1520 C.3    20  LYS20       0.0271
     38  CG        12.2830   18.2500  -12.2380 C.3    20  LYS20       0.0035
     39  CD        10.8580   18.4760  -11.7230 C.3    20  LYS20       0.0206
     40  CE         9.9180   18.8910  -12.9010 C.3    20  LYS20       0.1093
     41  NZ         8.5680   19.1190  -12.3620 N.3    20  LYS20      -0.1314
     42  N         15.5940   14.6430  -16.0040 N.3    31  ALA31      -0.1245
     43  CA        15.9600   13.9670  -14.7730 C.3    31  ALA31       0.1562
     44  C         17.4720   13.7780  -14.8020 C.2    31  ALA31       0.2260
     45  O         18.0320   13.2740  -15.7690 O.2    31  ALA31      -0.2867
     46  CB        15.2290   12.6280  -14.5510 C.3    31  ALA31       0.0290
     47  N         20.6000   12.1330  -12.8200 N.3    33  LYS33      -0.1245
     48  CA        20.9620   11.1060  -11.8220 C.3    33  LYS33       0.1561
     49  C         22.4890   11.1850  -11.5850 C.2    33  LYS33       0.2260
     50  O         23.2760   11.0100  -12.5420 O.2    33  LYS33      -0.2867
     51  CB        20.5810    9.7490  -12.2820 C.3    33  LYS33       0.0271
     52  CG        20.8740    8.6520  -11.2820 C.3    33  LYS33       0.0035
     53  CD        20.1970    7.3760  -11.6730 C.3    33  LYS33       0.0206
     54  CE        19.9670    6.5180  -10.4210 C.3    33  LYS33       0.1093
     55  NZ        19.3350    5.2410  -10.7900 N.3    33  LYS33      -0.1314
     56  N         12.8430    4.6310  -20.8870 N.3    54  VAL54      -0.1245
     57  CA        13.2480    5.9840  -20.5340 C.3    54  VAL54       0.1561
     58  C         14.5330    6.3610  -21.2720 C.2    54  VAL54       0.2260
     59  O         15.5350    5.7300  -21.1350 O.2    54  VAL54      -0.2867
     60  CB        13.4090    6.1650  -19.0100 C.3    54  VAL54       0.0252
     61  CG1       13.8790    7.5710  -18.6930 C.3    54  VAL54       0.0019
     62  CG2       12.1060    5.8900  -18.2500 C.3    54  VAL54       0.0019
     63  N         18.4830   11.9990  -18.1750 N.3    70  PHE70      -0.1227
     64  CA        17.3650   11.2290  -18.7560 C.3    70  PHE70       0.1736
     65  C         16.1770   12.1070  -19.0620 C.2    70  PHE70       0.2595
     66  O         15.9300   13.0640  -18.3990 O.2    70  PHE70      -0.2718
     67  CB        16.8700   10.1610  -17.6770 C.3    70  PHE70       0.0547
     68  CG        17.8250    9.0430  -17.4070 C.ar   70  PHE70      -0.0202
     69  CD1       17.8400    7.9830  -18.2630 C.ar   70  PHE70      -0.0042
     70  CD2       18.6590    9.0410  -16.3270 C.ar   70  PHE70      -0.0042
     71  CE1       18.7040    6.9140  -18.0540 C.ar   70  PHE70      -0.0003
     72  CE2       19.4830    7.9830  -16.0880 C.ar   70  PHE70      -0.0003
     73  CZ        19.4840    6.9230  -16.9520 C.ar   70  PHE70      -0.0000
     74  N         15.2890   11.5590  -19.8820 N.am   71  GLU71      -0.1965
     75  CA        14.0150   12.2030  -20.1300 C.3    71  GLU71       0.1733
     76  C         13.2860   12.1050  -18.7760 C.2    71  GLU71       0.2616
     77  O         13.4190   11.1150  -18.0550 O.2    71  GLU71      -0.2715
     78  CB        13.2350   11.4680  -21.2170 C.3    71  GLU71       0.0429
     79  CG        12.4070   10.3010  -20.7050 C.3    71  GLU71       0.1163
     80  CD        11.5370    9.6860  -21.7840 C.2    71  GLU71       0.3649
     81  OE1       10.4200   10.1960  -22.0110 O.co2  71  GLU71      -0.2457
     82  OE2       11.9710    8.6930  -22.4060 O.co2  71  GLU71      -0.2457
     83  N         12.5250   13.1410  -18.4520 N.am   72  PHE72      -0.1960
     84  CA        11.7880   13.3130  -17.2240 C.3    72  PHE72       0.1771
     85  C         10.3240   12.8000  -17.4080 C.2    72  PHE72       0.2619
     86  O          9.6400   13.1490  -18.3720 O.2    72  PHE72      -0.2715
     87  CB        11.7310   14.7930  -16.7740 C.3    72  PHE72       0.0574
     88  CG        10.9770   15.0370  -15.5760 C.ar   72  PHE72      -0.0200
     89  CD1       11.5320   14.8080  -14.2780 C.ar   72  PHE72      -0.0042
     90  CD2        9.6220   15.4330  -15.6230 C.ar   72  PHE72      -0.0042
     91  CE1       10.8180   15.0100  -13.1220 C.ar   72  PHE72      -0.0003
     92  CE2        8.9630   15.5920  -14.4890 C.ar   72  PHE72      -0.0003
     93  CZ         9.4900   15.4360  -13.2070 C.ar   72  PHE72      -0.0000
     94  N          9.8820   12.0110  -16.4230 N.am   73  LEU73      -0.1963
     95  CA         8.4440   11.6540  -16.2660 C.3    73  LEU73       0.1728
     96  C          7.9820   12.0230  -14.9170 C.2    73  LEU73       0.2616
     97  O          8.7010   12.1180  -13.9210 O.2    73  LEU73      -0.2715
     98  CB         8.1900   10.1680  -16.5180 C.3    73  LEU73       0.0311
     99  CG         8.3610    9.7840  -17.9700 C.3    73  LEU73       0.0022
    100  CD1        9.7580    9.3550  -18.2770 C.3    73  LEU73       0.0001
    101  CD2        7.3990    8.6280  -18.3470 C.3    73  LEU73       0.0001
    102  N          6.6820   12.2260  -14.7510 N.am   74  HIS74      -0.1959
    103  CA         6.1200   12.8260  -13.5850 C.3    74  HIS74       0.1787
    104  C          5.7720   11.9580  -12.4010 C.2    74  HIS74       0.2620
    105  O          5.5400   12.4200  -11.2840 O.2    74  HIS74      -0.2715
    106  CB         4.8690   13.6550  -13.9600 C.3    74  HIS74       0.0785
    107  CG         5.1910   14.9970  -14.5700 C.ar   74  HIS74       0.0821
    108  ND1        5.4630   15.1390  -15.8960 N.ar   74  HIS74      -0.2267
    109  CD2        5.3360   16.2130  -13.9830 C.ar   74  HIS74       0.1154
    110  CE1        5.7530   16.4280  -16.1290 C.ar   74  HIS74       0.1986
    111  NE2        5.6890   17.0890  -14.9970 N.ar   74  HIS74      -0.2212
    112  N          5.7150   10.6140  -12.6300 N.am   75  GLN75      -0.1963
    113  CA         5.3370    9.7360  -11.5260 C.3    75  GLN75       0.1733
    114  C          5.9250    8.3620  -11.7990 C.2    75  GLN75       0.2616
    115  O          6.1560    8.0090  -12.9120 O.2    75  GLN75      -0.2715
    116  CB         3.8180    9.6700  -11.4260 C.3    75  GLN75       0.0408
    117  CG         3.2630    9.0850  -10.1150 C.3    75  GLN75       0.0908
    118  CD         1.8950    9.5320   -9.7700 C.2    75  GLN75       0.2608
    119  OE1        1.5830   10.7370   -9.5000 O.2    75  GLN75      -0.2717
    120  NE2        1.0190    8.6450   -9.8450 N.am   75  GLN75      -0.0878
    121  N          6.1580    7.6030  -10.6970 N.am   76  ASP76      -0.1971
    122  CA         6.4970    6.1530  -10.8480 C.3    76  ASP76       0.1709
    123  C          5.2810    5.3130  -10.5130 C.2    76  ASP76       0.2293
    124  O          4.2420    5.7230   -9.9470 O.2    76  ASP76      -0.2864
    125  CB         7.7340    5.8160  -10.0480 C.3    76  ASP76       0.1436
    126  CG         7.5960    5.8670   -8.5190 C.2    76  ASP76       0.3671
    127  OD1        6.4930    5.9560   -7.9790 O.co2  76  ASP76      -0.2456
    128  OD2        8.6650    5.7270   -7.8970 O.co2  76  ASP76      -0.2456
    129  N          4.2500    5.0210   -6.6780 N.3    79  LYS79      -0.1245
    130  CA         3.3660    6.0910   -6.2540 C.3    79  LYS79       0.1561
    131  C          1.9410    5.8590   -6.7810 C.2    79  LYS79       0.2260
    132  O          0.9540    6.0570   -6.0760 O.2    79  LYS79      -0.2867
    133  CB         3.9350    7.4690   -6.7250 C.3    79  LYS79       0.0271
    134  CG         3.1550    8.6600   -6.1650 C.3    79  LYS79       0.0035
    135  CD         4.0470    9.9280   -6.1410 C.3    79  LYS79       0.0206
    136  CE         3.7610   10.8170   -4.9260 C.3    79  LYS79       0.1093
    137  NZ         2.5540   11.6430   -5.1090 N.3    79  LYS79      -0.1314
    138  N          9.4050    1.1950   -8.5160 N.3   121  GLN121     -0.1301
    139  CA        10.0230    2.5260   -8.4170 C.3   121  GLN121      0.1252
    140  C         10.8250    2.8040   -9.6420 C.3   121  GLN121      0.2009
    141  O         11.2220    4.0360   -9.8100 O.3   121  GLN121     -0.2188
    142  CB        10.9310    2.5690   -7.1710 C.3   121  GLN121      0.0314
    143  CG        10.2030    2.3420   -5.8290 C.3   121  GLN121      0.0901
    144  CD         9.8980    0.8460   -5.4200 C.2   121  GLN121      0.2608
    145  OE1       10.0900   -0.1480   -6.1450 O.2   121  GLN121     -0.2717
    146  NE2        9.3820    0.7200   -4.1700 N.am  121  GLN121     -0.0878
    147  N          8.1500    4.2240  -14.8820 N.3   124  LEU124     -0.1245
    148  CA         7.6580    5.6140  -14.8360 C.3   124  LEU124      0.1561
    149  C          6.5220    5.7560  -15.8080 C.2   124  LEU124      0.2260
    150  O          6.4400    5.1810  -16.9030 O.2   124  LEU124     -0.2867
    151  CB         8.8500    6.5250  -15.2160 C.3   124  LEU124      0.0270
    152  CG        10.1250    6.4650  -14.3690 C.3   124  LEU124      0.0019
    153  CD1       11.1980    7.3890  -14.7720 C.3   124  LEU124      0.0001
    154  CD2        9.8360    6.5540  -12.8920 C.3   124  LEU124      0.0001
    155  N         12.9480    2.4430  -16.5660 N.3   134  ALA134     -0.1231
    156  CA        14.1440    3.2920  -16.2220 C.3   134  ALA134      0.1694
    157  C         15.2190    2.3880  -15.7290 C.2   134  ALA134      0.2592
    158  O         14.9330    1.3280  -15.1340 O.2   134  ALA134     -0.2718
    159  CB        13.8470    4.2570  -15.1760 C.3   134  ALA134      0.0304
    160  N         16.4650    2.6820  -16.0830 N.am  135  ASP135     -0.1974
    161  CA        17.6950    1.9590  -15.5660 C.3   135  ASP135      0.1709
    162  C         18.1040    0.6920  -16.2960 C.2   135  ASP135      0.2293
    163  O         18.9780   -0.0330  -15.7530 O.2   135  ASP135     -0.2864
    164  CB        17.6180    1.7870  -14.0440 C.3   135  ASP135      0.1436
    165  CG        17.6200    3.1100  -13.3140 C.2   135  ASP135      0.3671
    166  OD1       17.8650    4.1820  -13.9680 O.co2 135  ASP135     -0.2456
    167  OD2       17.4410    3.1480  -12.0760 O.co2 135  ASP135     -0.2456
@<TRIPOS>BOND
     1    82    80   ar
     2    81    80   ar
     3    80    79    1
     4    58    59    2
     5    58    57    1
     6    78    79    1
     7    78    75    1
     8    56    57    1
     9    57    60    1
    10    75    74    1
    11    75    76    1
    12    74    65   am
    13    65    64    1
    14    65    66    2
    15    60    61    1
    16    60    62    1
    17    76    83   am
    18    76    77    2
    19    64    63    1
    20    64    67    1
    21    83    84    1
    22    86    85    2
    23   101    99    1
    24   100    99    1
    25    69    71   ar
    26    69    68   ar
    27    71    73   ar
    28    99    98    1
    29    67    68    1
    30    85    84    1
    31    85    94   am
    32    68    70   ar
    33    84    87    1
    34    73    72   ar
    35   150   149    2
    36    87    88    1
    37   155   156    1
    38    98    95    1
    39    94    95    1
    40    70    72   ar
    41   162   163    2
    42   162   161    1
    43    95    96    1
    44   156   157    1
    45   156   159    1
    46   110   108   ar
    47   110   111   ar
    48   160   157   am
    49   160   161    1
    50    42    43    1
    51   108   107   ar
    52   149   148    1
    53    45    44    2
    54   157   158    2
    55    90    88   ar
    56    90    92   ar
    57    88    89   ar
    58   161   164    1
    59   151   148    1
    60   151   152    1
    61   111   109   ar
    62    96   102   am
    63    96    97    2
    64   147   148    1
    65    44    43    1
    66    43    46    1
    67   153   152    1
    68   102   103    1
    69   107   109   ar
    70   107   106    1
    71    92    93   ar
    72   152   154    1
    73    89    91   ar
    74   164   165    1
    75   166   165   ar
    76   106   103    1
    77   103   104    1
    78   165   167   ar
    79    93    91   ar
    80   115   114    2
    81    40    41    1
    82    40    39    1
    83    47    48    1
    84   112   104   am
    85   112   113    1
    86    50    49    2
    87   104   105    2
    88    51    48    1
    89    51    52    1
    90    38    39    1
    91    38    37    1
    92    35    34    1
    93    35    36    2
    94    48    49    1
    95   114   113    1
    96   114   121   am
    97    53    52    1
    98    53    54    1
    99    34    37    1
   100    34    33    1
   101   113   116    1
   102   116   117    1
   103   122   121    1
   104   122   123    1
   105   122   125    1
   106    31    30    1
   107    55    54    1
   108   123   124    2
   109     8     6    1
   110   117   118    1
   111   125   126    1
   112   120   118   am
   113   141   140    1
   114   118   119    2
   115    32    30    1
   116   140   139    1
   117    30    27    1
   118    27    28    1
   119    27    26    1
   120     6     5    1
   121    28    29    2
   122   126   127   ar
   123   126   128   ar
   124   138   139    1
   125   139   142    1
   126     5     7    1
   127     5     2    1
   128   142   143    1
   129    23    24    1
   130    23    22    1
   131   131   130    1
   132   131   132    2
   133   133   130    1
   134   133   134    1
   135   129   130    1
   136    24    25    2
   137     2     1    1
   138     2     3    1
   139    22    15   am
   140   134   135    1
   141   145   144    2
   142   135   136    1
   143   143   144    1
   144    12    11    2
   145   144   146   am
   146     9     3   am
   147     9    10    1
   148     3     4    2
   149    15    16    2
   150    15    14    1
   151   137   136    1
   152    11    10    1
   153    11    13   am
   154    14    13    1
   155    14    17    1
   156    21    19   ar
   157    17    18    1
   158    19    20   ar
   159    19    18    1
