@<TRIPOS>MOLECULE
tmp/6guoD00.pdb
 87 86 0 0 0
SMALL
GASTEIGER

@<TRIPOS>ATOM
      1  N        -14.3930   36.0210   12.8960 N.3    17  MET17      -0.1230
      2  CA       -13.6660   34.9220   12.2980 C.3    17  MET17       0.1702
      3  C        -12.1700   35.1910   12.2800 C.2    17  MET17       0.2592
      4  O        -11.7090   36.3360   12.3710 O.2    17  MET17      -0.2718
      5  CB       -14.2080   34.5820   10.9000 C.3    17  MET17       0.0401
      6  CG       -14.3300   35.7410    9.9390 C.3    17  MET17       0.0596
      7  SD       -14.9430   35.2570    8.3110 S.3    17  MET17      -0.1393
      8  CE       -16.6820   34.9560    8.5980 C.3    17  MET17       0.0692
      9  N        -11.4170   34.1090   12.2010 N.am   18  ALA18      -0.1980
     10  CA        -9.9650   34.1650   12.2190 C.3    18  ALA18       0.1597
     11  C         -9.4260   32.9440   11.5160 C.2    18  ALA18       0.2287
     12  O        -10.1570   31.9760   11.2810 O.2    18  ALA18      -0.2864
     13  CB        -9.4570   34.2120   13.6520 C.3    18  ALA18       0.0319
     14  N         -5.5990   30.4730   10.9270 N.3    20  TRP20      -0.1241
     15  CA        -4.2370   30.1090   11.2700 C.3    20  TRP20       0.1605
     16  C         -3.6800   29.1760   10.2140 C.2    20  TRP20       0.2264
     17  O         -4.4090   28.3470    9.6650 O.2    20  TRP20      -0.2867
     18  CB        -4.1960   29.3750   12.6080 C.3    20  TRP20       0.0550
     19  CG        -4.4680   30.2250   13.7780 C.ar   20  TRP20       0.0003
     20  CD1       -3.5510   30.8270   14.5670 C.ar   20  TRP20       0.0946
     21  CD2       -5.7500   30.5560   14.3200 C.ar   20  TRP20       0.0152
     22  NE1       -4.1720   31.5260   15.5720 N.ar   20  TRP20      -0.2442
     23  CE2       -5.5260   31.3770   15.4400 C.ar   20  TRP20       0.0810
     24  CE3       -7.0680   30.2470   13.9610 C.ar   20  TRP20       0.0012
     25  CZ2       -6.5650   31.9000   16.2080 C.ar   20  TRP20       0.0191
     26  CZ3       -8.1060   30.7680   14.7280 C.ar   20  TRP20       0.0001
     27  CH2       -7.8440   31.5870   15.8420 C.ar   20  TRP20       0.0015
     28  N        -17.2790   32.1750   14.9550 N.3    36  TRP36      -0.1241
     29  CA       -18.0600   32.0330   16.1790 C.3    36  TRP36       0.1605
     30  C        -19.2720   32.9750   16.1870 C.2    36  TRP36       0.2264
     31  O        -19.3150   33.9310   15.3950 O.2    36  TRP36      -0.2867
     32  CB       -17.1610   32.2460   17.3990 C.3    36  TRP36       0.0550
     33  CG       -16.3800   33.5220   17.4090 C.ar   36  TRP36       0.0003
     34  CD1      -16.7530   34.7010   17.9950 C.ar   36  TRP36       0.0946
     35  CD2      -15.0870   33.7550   16.8330 C.ar   36  TRP36       0.0152
     36  NE1      -15.7820   35.6460   17.8150 N.ar   36  TRP36      -0.2442
     37  CE2      -14.7490   35.1000   17.1040 C.ar   36  TRP36       0.0810
     38  CE3      -14.1880   32.9680   16.1030 C.ar   36  TRP36       0.0012
     39  CZ2      -13.5460   35.6710   16.6770 C.ar   36  TRP36       0.0191
     40  CZ3      -12.9860   33.5360   15.6830 C.ar   36  TRP36       0.0001
     41  CH2      -12.6790   34.8750   15.9710 C.ar   36  TRP36       0.0015
     42  N        -15.4890   40.1550   19.4940 N.3    42  GLU42      -0.1231
     43  CA       -14.5300   40.0230   18.3870 C.3    42  GLU42       0.1699
     44  C        -13.2700   39.2230   18.7430 C.2    42  GLU42       0.2593
     45  O        -12.6000   38.7240   17.8470 O.2    42  GLU42      -0.2718
     46  CB       -14.1360   41.4020   17.8290 C.3    42  GLU42       0.0402
     47  CG       -15.2230   42.0390   16.9750 C.3    42  GLU42       0.1161
     48  CD       -14.7060   43.1510   16.0760 C.2    42  GLU42       0.3649
     49  OE1      -14.9250   43.0770   14.8440 O.co2  42  GLU42      -0.2457
     50  OE2      -14.0760   44.0920   16.6020 O.co2  42  GLU42      -0.2457
     51  N        -12.9540   39.1040   20.0350 N.am   43  SER43      -0.1938
     52  CA       -11.8490   38.2600   20.5050 C.3    43  SER43       0.2055
     53  C        -12.2620   36.8130   20.8490 C.2    43  SER43       0.2643
     54  O        -11.4290   36.0300   21.3180 O.2    43  SER43      -0.2714
     55  CB       -11.1730   38.9170   21.7140 C.3    43  SER43       0.2130
     56  OG       -12.1110   39.1920   22.7360 O.3    43  SER43      -0.2179
     57  N        -13.5260   36.4550   20.6110 N.am   44  GLY44      -0.1954
     58  CA       -14.0190   35.1010   20.8670 C.3    44  GLY44       0.1869
     59  C        -14.5410   34.8440   22.2710 C.2    44  GLY44       0.2309
     60  O        -14.7570   33.6880   22.6390 O.2    44  GLY44      -0.2863
     61  N         -6.2860   22.7910   20.0220 N.3   144  PHE144     -0.1241
     62  CA        -5.9420   24.2000   19.8100 C.3   144  PHE144      0.1605
     63  C         -7.1960   25.0790   19.9190 C.2   144  PHE144      0.2264
     64  O         -7.2120   26.0790   20.6450 O.2   144  PHE144     -0.2867
     65  CB        -5.2600   24.4020   18.4500 C.3   144  PHE144      0.0534
     66  CG        -4.9460   25.8430   18.1370 C.ar  144  PHE144     -0.0203
     67  CD1       -3.8350   26.4650   18.7030 C.ar  144  PHE144     -0.0042
     68  CD2       -5.7580   26.5770   17.2720 C.ar  144  PHE144     -0.0042
     69  CE1       -3.5440   27.7950   18.4200 C.ar  144  PHE144     -0.0003
     70  CE2       -5.4690   27.9060   16.9850 C.ar  144  PHE144     -0.0003
     71  CZ        -4.3610   28.5140   17.5570 C.ar  144  PHE144     -0.0000
     72  N         -6.8860   26.7980   23.4180 N.3   148  LYS148     -0.1231
     73  CA        -6.2510   28.0970   23.1340 C.3   148  LYS148      0.1693
     74  C         -7.2250   29.1730   22.6540 C.2   148  LYS148      0.2591
     75  O         -7.1650   30.3070   23.1340 O.2   148  LYS148     -0.2718
     76  CB        -5.0900   27.9560   22.1350 C.3   148  LYS148      0.0285
     77  CG        -3.9930   26.9820   22.5560 C.3   148  LYS148      0.0035
     78  CD        -3.4350   27.3080   23.9350 C.3   148  LYS148      0.0206
     79  CE        -2.0700   26.6810   24.1710 C.3   148  LYS148      0.1093
     80  NZ        -0.9650   27.5670   23.7140 N.3   148  LYS148     -0.1314
     81  N         -8.1110   28.8370   21.7200 N.am  149  VAL149     -0.1980
     82  CA        -9.0140   29.8410   21.1320 C.3   149  VAL149      0.1595
     83  C        -10.2150   30.1170   22.0420 C.2   149  VAL149      0.2287
     84  O        -10.5370   31.2870   22.2920 O.2   149  VAL149     -0.2864
     85  CB        -9.4830   29.4560   19.7080 C.3   149  VAL149      0.0276
     86  CG1      -10.3350   30.5580   19.0920 C.3   149  VAL149      0.0022
     87  CG2       -8.2850   29.1940   18.8100 C.3   149  VAL149      0.0022
@<TRIPOS>BOND
     1     7     8    1
     2     7     6    1
     3    17    16    2
     4     6     5    1
     5    16    15    1
     6     5     2    1
     7    14    15    1
     8    15    18    1
     9    12    11    2
    10    11    10    1
    11     9    10    1
    12     9     3   am
    13    10    13    1
    14     3     2    1
    15     3     4    2
    16     2     1    1
    17    18    19    1
    18    19    21   ar
    19    19    20   ar
    20    24    21   ar
    21    24    26   ar
    22    21    23   ar
    23    20    22   ar
    24    26    27   ar
    25    49    48   ar
    26    28    29    1
    27    31    30    2
    28    23    22   ar
    29    23    25   ar
    30    40    41   ar
    31    40    38   ar
    32    27    25   ar
    33    41    39   ar
    34    48    50   ar
    35    48    47    1
    36    38    35   ar
    37    29    30    1
    38    29    32    1
    39    39    37   ar
    40    35    37   ar
    41    35    33   ar
    42    47    46    1
    43    70    68   ar
    44    70    71   ar
    45    37    36   ar
    46    68    66   ar
    47    32    33    1
    48    33    34   ar
    49    71    69   ar
    50    36    34   ar
    51    46    43    1
    52    45    44    2
    53    66    65    1
    54    66    67   ar
    55    43    44    1
    56    43    42    1
    57    69    67   ar
    58    65    62    1
    59    44    51   am
    60    87    85    1
    61    86    85    1
    62    85    82    1
    63    62    63    1
    64    62    61    1
    65    63    64    2
    66    51    52    1
    67    52    53    1
    68    52    55    1
    69    57    53   am
    70    57    58    1
    71    53    54    2
    72    58    59    1
    73    82    81    1
    74    82    83    1
    75    55    56    1
    76    81    74   am
    77    83    84    2
    78    76    77    1
    79    76    73    1
    80    59    60    2
    81    77    78    1
    82    74    75    2
    83    74    73    1
    84    73    72    1
    85    80    79    1
    86    78    79    1
