@<TRIPOS>MOLECULE
tmp/6gurB00.pdb
 133 127 0 0 0
SMALL
GASTEIGER

@<TRIPOS>ATOM
      1  N         83.0510   84.4370   36.4560 N.3    87  LYS87      -0.1245
      2  CA        82.4740   85.7320   36.0780 C.3    87  LYS87       0.1561
      3  C         81.0500   85.5220   35.5450 C.2    87  LYS87       0.2260
      4  O         80.6620   84.3980   35.2170 O.2    87  LYS87      -0.2867
      5  CB        83.3620   86.4420   35.0510 C.3    87  LYS87       0.0271
      6  CG        83.7790   85.6050   33.8480 C.3    87  LYS87       0.0035
      7  CD        84.4260   86.4220   32.7500 C.3    87  LYS87       0.0206
      8  CE        84.8690   85.5870   31.5670 C.3    87  LYS87       0.1093
      9  NZ        84.9980   86.4040   30.3370 N.3    87  LYS87      -0.1314
     10  N         79.5710   87.5370   33.0170 N.3    89  TYR89      -0.1241
     11  CA        79.3790   88.1690   31.7110 C.3    89  TYR89       0.1605
     12  C         80.4180   87.6590   30.7090 C.2    89  TYR89       0.2264
     13  O         81.5630   87.3860   31.0710 O.2    89  TYR89      -0.2867
     14  CB        79.4690   89.6930   31.8250 C.3    89  TYR89       0.0534
     15  CG        78.4420   90.3130   32.7360 C.ar   89  TYR89      -0.0201
     16  CD1       77.1570   90.5790   32.2900 C.ar   89  TYR89      -0.0009
     17  CD2       78.7500   90.6220   34.0510 C.ar   89  TYR89      -0.0009
     18  CE1       76.2050   91.1400   33.1260 C.ar   89  TYR89       0.0417
     19  CE2       77.8120   91.1870   34.8990 C.ar   89  TYR89       0.0417
     20  CZ        76.5340   91.4430   34.4360 C.ar   89  TYR89       0.1957
     21  OH        75.6090   92.0060   35.2660 O.3    89  TYR89      -0.2866
     22  N         81.7310   89.4590   27.5360 N.3    91  ALA91      -0.1245
     23  CA        81.7380   90.7560   26.8560 C.3    91  ALA91       0.1562
     24  C         81.6810   90.5710   25.3330 C.2    91  ALA91       0.2260
     25  O         80.9790   91.3130   24.6460 O.2    91  ALA91      -0.2867
     26  CB        82.9620   91.5380   27.2660 C.3    91  ALA91       0.0290
     27  N         78.1050   88.8670   24.2180 N.3    94  ARG94      -0.1245
     28  CA        76.9640   89.7470   24.4940 C.3    94  ARG94       0.1563
     29  C         77.0140   90.9850   23.5860 C.2    94  ARG94       0.2260
     30  O         75.9700   91.5180   23.2150 O.2    94  ARG94      -0.2867
     31  CB        76.9210   90.1260   25.9800 C.3    94  ARG94       0.0307
     32  CG        77.9050   91.2100   26.3980 C.3    94  ARG94       0.0489
     33  CD        77.9300   91.4000   27.9030 C.3    94  ARG94       0.2205
     34  NE        76.6540   91.8810   28.4160 N.pl3  94  ARG94      -0.0865
     35  CZ        76.2930   93.1600   28.4810 C.cat  94  ARG94       0.5346
     36  NH1       77.1290   94.1080   28.0920 N.pl3  94  ARG94       0.1354
     37  NH2       75.0950   93.4880   28.9310 N.pl3  94  ARG94       0.1354
     38  N         69.2880   94.0410   30.5880 N.3   144  HIS144     -0.1226
     39  CA        69.9460   95.1740   31.2410 C.3   144  HIS144      0.1752
     40  C         71.2400   95.5460   30.5020 C.2   144  HIS144      0.2597
     41  O         72.1380   94.7050   30.3450 O.2   144  HIS144     -0.2718
     42  CB        70.2150   94.8720   32.7220 C.3   144  HIS144      0.0759
     43  CG        70.9560   95.9600   33.4270 C.ar  144  HIS144      0.0818
     44  ND1       70.3120   96.9990   34.0690 N.ar  144  HIS144     -0.2268
     45  CD2       72.2800   96.1800   33.5840 C.ar  144  HIS144      0.1154
     46  CE1       71.2070   97.8100   34.5950 C.ar  144  HIS144      0.1986
     47  NE2       72.4220   97.3300   34.3110 N.ar  144  HIS144     -0.2212
     48  N         71.2610   96.8030   30.0050 N.am  145  SER145     -0.1938
     49  CA        72.3510   97.6510   29.4760 C.3   145  SER145      0.2055
     50  C         72.1700   97.4770   27.9640 C.2   145  SER145      0.2643
     51  O         71.2280   98.0210   27.3850 O.2   145  SER145     -0.2714
     52  CB        73.7510   97.3520   30.0120 C.3   145  SER145      0.2130
     53  OG        74.6910   98.1600   29.2680 O.3   145  SER145     -0.2179
     54  N         73.0480   96.6800   27.3480 N.am  146  TYR146     -0.1973
     55  CA        72.8500   96.1940   25.9910 C.3   146  TYR146      0.1639
     56  C         71.5880   95.3220   25.9310 C.2   146  TYR146      0.2290
     57  O         70.8990   95.2980   24.9130 O.2   146  TYR146     -0.2864
     58  CB        74.0630   95.3900   25.5160 C.3   146  TYR146      0.0560
     59  CG        75.2760   96.1760   25.0810 C.ar  146  TYR146     -0.0198
     60  CD1       75.2090   97.5230   24.7510 C.ar  146  TYR146     -0.0009
     61  CD2       76.5020   95.5430   24.9480 C.ar  146  TYR146     -0.0009
     62  CE1       76.3310   98.2230   24.3370 C.ar  146  TYR146      0.0417
     63  CE2       77.6330   96.2270   24.5320 C.ar  146  TYR146      0.0417
     64  CZ        77.5460   97.5720   24.2210 C.ar  146  TYR146      0.1957
     65  OH        78.6560   98.2530   23.8130 O.3   146  TYR146     -0.2866
     66  N         70.9570  100.7780   26.9300 N.3   171  SER171     -0.1217
     67  CA        72.1110  101.4660   26.3500 C.3   171  SER171      0.1889
     68  C         71.6950  102.1820   25.0590 C.2   171  SER171      0.2288
     69  O         72.1280  101.8150   23.9650 O.2   171  SER171     -0.2866
     70  CB        73.2450  100.5020   26.1060 C.3   171  SER171      0.2089
     71  OG        73.6730   99.9030   27.3200 O.3   171  SER171     -0.2183
     72  N         72.4240  105.1560   24.1470 N.3   173  TRP173     -0.1241
     73  CA        73.5980  105.8950   23.6510 C.3   173  TRP173      0.1605
     74  C         74.3070  105.1510   22.5080 C.2   173  TRP173      0.2264
     75  O         74.8550  105.7930   21.6130 O.2   173  TRP173     -0.2867
     76  CB        74.5740  106.1820   24.8010 C.3   173  TRP173      0.0550
     77  CG        75.0660  104.9590   25.5130 C.ar  173  TRP173      0.0003
     78  CD1       74.5290  104.3900   26.6320 C.ar  173  TRP173      0.0946
     79  CD2       76.1990  104.1440   25.1570 C.ar  173  TRP173      0.0152
     80  NE1       75.2450  103.2820   26.9940 N.ar  173  TRP173     -0.2442
     81  CE2       76.2750  103.1040   26.1090 C.ar  173  TRP173      0.0810
     82  CE3       77.1540  104.1920   24.1340 C.ar  173  TRP173      0.0012
     83  CZ2       77.2670  102.1250   26.0640 C.ar  173  TRP173      0.0191
     84  CZ3       78.1310  103.2210   24.0880 C.ar  173  TRP173      0.0001
     85  CH2       78.1850  102.2030   25.0420 C.ar  173  TRP173      0.0015
     86  N         81.8200  110.5760   31.4850 N.3   222  THR222     -0.1218
     87  CA        81.2180  109.3570   30.9430 C.3   222  THR222      0.1862
     88  C         79.6970  109.4060   31.1390 C.2   222  THR222      0.2287
     89  O         78.9410  109.2180   30.1880 O.2   222  THR222     -0.2866
     90  CB        81.8290  108.1050   31.5860 C.3   222  THR222      0.1770
     91  OG1       83.2460  108.1660   31.4220 O.3   222  THR222     -0.2211
     92  CG2       81.3080  106.8140   30.9930 C.3   222  THR222      0.0375
     93  N         76.8470  109.2170   28.1660 N.3   226  LEU226     -0.1245
     94  CA        75.9560  108.0540   28.0810 C.3   226  LEU226      0.1561
     95  C         74.4970  108.4990   28.2580 C.2   226  LEU226      0.2260
     96  O         73.6040  107.9660   27.5970 O.2   226  LEU226     -0.2867
     97  CB        76.3580  107.0220   29.1400 C.3   226  LEU226      0.0270
     98  CG        77.7780  106.4640   29.0260 C.3   226  LEU226      0.0019
     99  CD1       78.0000  105.3550   30.0410 C.3   226  LEU226      0.0001
    100  CD2       78.0710  105.9590   27.6210 C.3   226  LEU226      0.0001
    101  N         72.0240  108.3380   30.5340 N.3   228  MET228     -0.1245
    102  CA        71.1610  107.1750   30.7710 C.3   228  MET228      0.1570
    103  C         69.7100  107.6170   31.0130 C.2   228  MET228      0.2261
    104  O         68.8050  107.1910   30.2970 O.2   228  MET228     -0.2867
    105  CB        71.6550  106.3700   31.9780 C.3   228  MET228      0.0387
    106  CG        70.7740  105.1820   32.3380 C.3   228  MET228      0.0595
    107  SD        70.4430  104.0680   30.9470 S.3   228  MET228     -0.1393
    108  CE        72.1040  103.5340   30.5370 C.3   228  MET228      0.0692
    109  N         74.5310  101.6450   38.0410 N.3   258  HIS258     -0.1226
    110  CA        74.2830  100.8220   36.8540 C.3   258  HIS258      0.1752
    111  C         74.2220   99.3280   37.2070 C.2   258  HIS258      0.2596
    112  O         73.4420   98.5910   36.6100 O.2   258  HIS258     -0.2718
    113  CB        75.3470  101.1160   35.7870 C.3   258  HIS258      0.0759
    114  CG        75.0970  100.4480   34.4770 C.ar  258  HIS258      0.0818
    115  ND1       74.1690  100.9210   33.5710 N.ar  258  HIS258     -0.2268
    116  CD2       75.6540   99.3540   33.9140 C.ar  258  HIS258      0.1154
    117  CE1       74.1610  100.1440   32.5070 C.ar  258  HIS258      0.1986
    118  NE2       75.0640   99.1750   32.6940 N.ar  258  HIS258     -0.2212
    119  N         75.0470   98.8890   38.1650 N.am  259  THR259     -0.1953
    120  CA        75.1500   97.4730   38.5400 C.3   259  THR259      0.1897
    121  C         74.0890   97.1160   39.5920 C.2   259  THR259      0.2313
    122  O         73.4370   96.0780   39.4850 O.2   259  THR259     -0.2863
    123  CB        76.5640   97.1350   39.0300 C.3   259  THR259      0.1794
    124  OG1       77.4680   97.3890   37.9550 O.3   259  THR259     -0.2208
    125  CG2       76.7170   95.6990   39.4820 C.3   259  THR259      0.0378
    126  N         70.1260   96.5640   38.8900 N.3   262  MET262     -0.1245
    127  CA        69.7570   95.2890   38.2620 C.3   262  MET262      0.1570
    128  C         68.9000   94.4450   39.2170 C.2   262  MET262      0.2261
    129  O         67.9320   93.8160   38.7890 O.2   262  MET262     -0.2867
    130  CB        71.0070   94.4920   37.8740 C.3   262  MET262      0.0387
    131  CG        71.8280   95.1490   36.7800 C.3   262  MET262      0.0595
    132  SD        73.2960   94.1930   36.3210 S.3   262  MET262     -0.1393
    133  CE        72.5290   92.7480   35.5910 C.3   262  MET262      0.0692
@<TRIPOS>BOND
     1    75    74    2
     2    74    73    1
     3    30    29    2
     4    29    28    1
     5    73    72    1
     6    73    76    1
     7    65    64    1
     8    69    68    2
     9    84    82   ar
    10    84    85   ar
    11    82    79   ar
    12    27    28    1
    13    64    62   ar
    14    64    63   ar
    15    62    60   ar
    16    28    31    1
    17    63    61   ar
    18    25    24    2
    19    60    59   ar
    20    76    77    1
    21    57    56    2
    22    61    59   ar
    23    85    83   ar
    24    68    67    1
    25    59    58    1
    26    79    77   ar
    27    79    81   ar
    28    24    23    1
    29    77    78   ar
    30    58    55    1
    31    56    55    1
    32    31    32    1
    33    55    54    1
    34    83    81   ar
    35    70    67    1
    36    70    71    1
    37    81    80   ar
    38    67    66    1
    39    32    33    1
    40    78    80   ar
    41    23    26    1
    42    23    22    1
    43    54    50   am
    44    51    50    2
    45    96    95    2
    46   100    98    1
    47    33    34    1
    48    50    49    1
    49    94    93    1
    50    94    95    1
    51    94    97    1
    52    36    35    1
    53    34    35    2
    54    35    37    1
    55    98    97    1
    56    98    99    1
    57    53    52    1
    58    49    48    1
    59    49    52    1
    60    48    40   am
    61    89    88    2
    62   104   103    2
    63     9     8    1
    64    41    40    2
    65    40    39    1
    66   101   102    1
    67   108   107    1
    68    38    39    1
    69    12    13    2
    70    12    11    1
    71   102   103    1
    72   102   105    1
    73    87    88    1
    74    87    86    1
    75    87    90    1
    76   107   106    1
    77    92    90    1
    78    39    42    1
    79    91    90    1
    80     8     7    1
    81    11    14    1
    82    11    10    1
    83    14    15    1
    84   105   106    1
    85    16    15   ar
    86    16    18   ar
    87   117   118   ar
    88   117   115   ar
    89   118   116   ar
    90    42    43    1
    91    15    17   ar
    92     7     6    1
    93    18    20   ar
    94    43    45   ar
    95    43    44   ar
    96   115   114   ar
    97    45    47   ar
    98     6     5    1
    99   116   114   ar
   100    17    19   ar
   101    44    46   ar
   102    47    46   ar
   103    20    19   ar
   104    20    21    1
   105   114   113    1
   106     5     2    1
   107     4     3    2
   108     3     2    1
   109   133   132    1
   110   113   110    1
   111     2     1    1
   112   132   131    1
   113   112   111    2
   114   131   130    1
   115   110   111    1
   116   110   109    1
   117   111   119   am
   118   130   127    1
   119   124   123    1
   120   119   120    1
   121   127   126    1
   122   127   128    1
   123   120   123    1
   124   120   121    1
   125   129   128    2
   126   123   125    1
   127   122   121    2
