@<TRIPOS>MOLECULE
tmp/6gvsD00.pdb
 193 185 0 0 0
SMALL
GASTEIGER

@<TRIPOS>ATOM
      1  N         -7.5690  116.7340  108.0520 N.3    62  MET62      -0.1245
      2  CA        -7.6830  116.7000  106.6020 C.3    62  MET62       0.1570
      3  C         -8.0670  115.2980  106.1590 C.2    62  MET62       0.2261
      4  O         -7.5970  114.3080  106.7260 O.2    62  MET62      -0.2867
      5  CB        -6.3680  117.1200  105.9390 C.3    62  MET62       0.0387
      6  CG        -5.9870  118.5650  106.2000 C.3    62  MET62       0.0595
      7  SD        -4.2530  118.9120  105.8600 S.3    62  MET62      -0.1393
      8  CE        -4.2430  120.6960  106.0210 C.3    62  MET62       0.0692
      9  N          4.2770  114.6910  103.3060 N.3   112  PRO112     -0.2102
     10  CA         3.2820  115.7510  103.4890 C.3   112  PRO112      0.1504
     11  C          2.2380  115.4110  104.5400 C.2   112  PRO112      0.2576
     12  O          1.9390  114.2480  104.8160 O.2   112  PRO112     -0.2718
     13  CB         2.6370  115.8440  102.0980 C.3   112  PRO112      0.0282
     14  CG         2.6550  114.4230  101.6160 C.3   112  PRO112      0.0208
     15  CD         3.9110  113.7850  102.1980 C.3   112  PRO112      0.0893
     16  N          1.6730  116.4680  105.1280 N.am  113  THR113     -0.1939
     17  CA         0.5890  116.2860  106.0860 C.3   113  THR113      0.2028
     18  C         -0.6600  115.7290  105.4180 C.2   113  THR113      0.2643
     19  O         -1.4730  115.0700  106.0740 O.2   113  THR113     -0.2714
     20  CB         0.2610  117.6110  106.7730 C.3   113  THR113      0.1808
     21  OG1        0.4040  118.6900  105.8410 O.3   113  THR113     -0.2208
     22  CG2        1.1850  117.8310  107.9540 C.3   113  THR113      0.0379
     23  N         -0.8310  115.9930  104.1230 N.am  114  THR114     -0.1936
     24  CA        -1.9660  115.4530  103.3860 C.3   114  THR114      0.2028
     25  C         -2.0060  113.9320  103.4750 C.2   114  THR114      0.2642
     26  O         -3.0110  113.3460  103.8930 O.2   114  THR114     -0.2714
     27  CB        -1.8850  115.9150  101.9290 C.3   114  THR114      0.1808
     28  OG1       -2.2190  117.3070  101.8520 O.3   114  THR114     -0.2208
     29  CG2       -2.8210  115.1100  101.0520 C.3   114  THR114      0.0379
     30  N         -0.9150  113.2750  103.0810 N.am  115  ASN115     -0.1971
     31  CA        -0.8220  111.8170  103.0480 C.3   115  ASN115      0.1688
     32  C          0.3260  111.3770  103.9510 C.2   115  ASN115      0.2292
     33  O          1.3630  110.8980  103.4710 O.2   115  ASN115     -0.2864
     34  CB        -0.6130  111.3140  101.6200 C.3   115  ASN115      0.1181
     35  CG        -1.6820  111.8110  100.6600 C.2   115  ASN115      0.2629
     36  OD1       -2.8590  111.8840  101.0100 O.2   115  ASN115     -0.2716
     37  ND2       -1.2740  112.1620   99.4450 N.am  115  ASN115     -0.0877
     38  N          6.1380  116.5070  108.8580 N.3   139  HIS139     -0.1226
     39  CA         5.7560  117.8560  109.1790 C.3   139  HIS139      0.1752
     40  C          5.2380  117.8590  110.6030 C.2   139  HIS139      0.2597
     41  O          4.8680  116.8570  111.1280 O.2   139  HIS139     -0.2718
     42  CB         4.6900  118.3400  108.2210 C.3   139  HIS139      0.0759
     43  CG         5.2250  118.7420  106.8910 C.ar  139  HIS139      0.0818
     44  ND1        6.5050  119.2090  106.7180 N.ar  139  HIS139     -0.2268
     45  CD2        4.6570  118.7490  105.6670 C.ar  139  HIS139      0.1154
     46  CE1        6.6990  119.4950  105.4450 C.ar  139  HIS139      0.1986
     47  NE2        5.5940  119.2200  104.7850 N.ar  139  HIS139     -0.2212
     48  N          5.1900  119.0110  111.2280 N.am  140  GLY140     -0.1942
     49  CA         4.7640  119.0980  112.5950 C.3   140  GLY140      0.2014
     50  C          3.3680  118.6440  112.8180 C.2   140  GLY140      0.2638
     51  O          3.0670  117.9920  113.7640 O.2   140  GLY140     -0.2714
     52  N          2.5060  118.9410  111.8920 N.am  141  ARG141     -0.1977
     53  CA         1.1380  118.5750  112.0580 C.3   141  ARG141      0.1597
     54  C          0.8150  117.1050  112.1350 C.2   141  ARG141      0.2287
     55  O         -0.1910  116.7440  112.6750 O.2   141  ARG141     -0.2864
     56  CB         0.3090  119.2200  111.0030 C.3   141  ARG141      0.0334
     57  CG        -1.1480  118.9020  111.1840 C.3   141  ARG141      0.0492
     58  CD        -2.0110  120.1400  111.1300 C.3   141  ARG141      0.2205
     59  NE        -1.2970  121.2450  110.5330 N.pl3 141  ARG141     -0.0865
     60  CZ        -1.7770  121.9670  109.5470 C.cat 141  ARG141      0.5346
     61  NH1       -2.9690  121.7030  109.0670 N.pl3 141  ARG141      0.1354
     62  NH2       -1.0700  122.9580  109.0550 N.pl3 141  ARG141      0.1354
     63  N         10.3530  119.2050  112.9360 N.3   174  SER174     -0.1202
     64  CA        10.3180  120.6490  112.7860 C.3   174  SER174      0.2020
     65  C         10.9740  121.0290  111.4680 C.2   174  SER174      0.2618
     66  O         11.5290  120.1860  110.7590 O.2   174  SER174     -0.2717
     67  CB        11.0270  121.3460  113.9520 C.3   174  SER174      0.2103
     68  OG        12.4140  121.0550  113.9390 O.3   174  SER174     -0.2182
     69  N         10.9040  122.3230  111.1480 N.am  175  ARG175     -0.1979
     70  CA        11.5610  122.8290  109.9480 C.3   175  ARG175      0.1597
     71  C         13.0750  122.8490  110.1210 C.2   175  ARG175      0.2287
     72  O         13.8180  122.5750  109.1710 O.2   175  ARG175     -0.2864
     73  CB        11.0330  124.2260  109.6180 C.3   175  ARG175      0.0334
     74  CG        11.7480  124.9100  108.4650 C.3   175  ARG175      0.0492
     75  CD        10.7810  125.3190  107.3600 C.3   175  ARG175      0.2205
     76  NE        11.4870  125.8900  106.2140 N.pl3 175  ARG175     -0.0865
     77  CZ        11.8580  127.1640  106.1150 C.cat 175  ARG175      0.5346
     78  NH1       12.5000  127.5840  105.0330 N.pl3 175  ARG175      0.1354
     79  NH2       11.5920  128.0190  107.0950 N.pl3 175  ARG175      0.1354
     80  N          8.1670  115.1490   98.9830 N.3   193  THR193     -0.1203
     81  CA         6.7640  115.0610   98.5890 C.3   193  THR193      0.1994
     82  C          6.0370  116.2360   99.2390 C.2   193  THR193      0.2618
     83  O          5.7190  116.1970  100.4310 O.2   193  THR193     -0.2717
     84  CB         6.1620  113.7270   99.0160 C.3   193  THR193      0.1784
     85  OG1        7.0470  112.6610   98.6450 O.3   193  THR193     -0.2211
     86  CG2        4.8050  113.5170   98.3540 C.3   193  THR193      0.0376
     87  N          5.7800  117.2810   98.4550 N.am  194  GLY194     -0.1942
     88  CA         5.1440  118.4720   98.9800 C.3   194  GLY194      0.2014
     89  C          4.9160  119.5520   97.9440 C.2   194  GLY194      0.2639
     90  O          4.7550  119.2620   96.7560 O.2   194  GLY194     -0.2714
     91  N          4.9020  120.8060   98.3880 N.am  195  GLY195     -0.1940
     92  CA         4.6240  121.9220   97.5180 C.3   195  GLY195      0.1998
     93  C          5.8580  122.4250   96.8010 C.2   195  GLY195      0.2480
     94  O          6.9750  121.9500   97.0230 O.2   195  GLY195     -0.2729
     95  N          5.6730  123.4200   95.9300 N.am  196  PRO196     -0.2726
     96  CA         6.8020  123.8750   95.0980 C.3   196  PRO196      0.1402
     97  C          7.9750  124.4240   95.8930 C.2   196  PRO196      0.2269
     98  O          9.1300  124.2070   95.5070 O.2   196  PRO196     -0.2865
     99  CB         6.1650  124.9510   94.2020 C.3   196  PRO196      0.0296
    100  CG         4.9230  125.3730   94.9180 C.3   196  PRO196      0.0237
    101  CD         4.4300  124.1570   95.6450 C.3   196  PRO196      0.0939
    102  N          8.7120  115.8160   94.2450 N.3   212  ALA212     -0.1231
    103  CA         7.3060  115.5960   93.9090 C.3   212  ALA212      0.1694
    104  C          6.5660  116.9040   94.1700 C.2   212  ALA212      0.2593
    105  O          6.2800  117.2510   95.3200 O.2   212  ALA212     -0.2718
    106  CB         6.7260  114.4430   94.7190 C.3   212  ALA212      0.0304
    107  N          6.2570  117.6290   93.0950 N.am  213  GLY213     -0.1942
    108  CA         5.6950  118.9580   93.1930 C.3   213  GLY213      0.2014
    109  C          4.1840  118.9620   93.3220 C.2   213  GLY213      0.2639
    110  O          3.5360  117.9390   93.5500 O.2   213  GLY213     -0.2714
    111  N          3.6200  120.1530   93.1720 N.am  214  ALA214     -0.1963
    112  CA         2.1870  120.3550   93.3030 C.3   214  ALA214      0.1728
    113  C          1.5060  120.2880   91.9410 C.2   214  ALA214      0.2616
    114  O          2.1460  120.3770   90.8900 O.2   214  ALA214     -0.2715
    115  CB         1.8960  121.7010   93.9710 C.3   214  ALA214      0.0334
    116  N          0.1840  120.1300   91.9730 N.am  215  GLY215     -0.1955
    117  CA        -0.5910  120.0450   90.7560 C.3   215  GLY215      0.1869
    118  C         -1.9300  120.7370   90.9040 C.2   215  GLY215      0.2309
    119  O         -2.4390  120.9370   92.0090 O.2   215  GLY215     -0.2863
    120  N         -7.6810  116.0760   98.8380 N.3   244  ILE244     -0.1245
    121  CA        -6.3110  116.3810   99.2360 C.3   244  ILE244      0.1561
    122  C         -5.2760  115.5920   98.4390 C.2   244  ILE244      0.2260
    123  O         -4.1250  116.0400   98.3270 O.2   244  ILE244     -0.2867
    124  CB        -6.0960  116.1380  100.7430 C.3   244  ILE244      0.0252
    125  CG1       -6.3210  114.6680  101.1010 C.3   244  ILE244      0.0019
    126  CG2       -7.0130  117.0410  101.5540 C.3   244  ILE244      0.0019
    127  CD1       -6.1630  114.3680  102.5830 C.3   244  ILE244      0.0001
    128  N         -2.9180  114.6400   95.6980 N.3   246  CYS246     -0.1235
    129  CA        -2.3320  115.6070   94.7770 C.3   246  CYS246      0.1677
    130  C         -2.8800  115.4870   93.3600 C.2   246  CYS246      0.2270
    131  O         -2.8060  116.4580   92.5980 O.2   246  CYS246     -0.2867
    132  CB        -0.8050  115.4520   94.7640 C.3   246  CYS246      0.0956
    133  SG        -0.1940  113.8060   94.3120 S.3   246  CYS246     -0.0801
    134  N         -5.7020  127.3190  105.1710 N.3   296  THR296     -0.1218
    135  CA        -5.2490  126.0340  105.6890 C.3   296  THR296      0.1862
    136  C         -6.2730  125.3640  106.5960 C.2   296  THR296      0.2287
    137  O         -6.2480  124.1360  106.7340 O.2   296  THR296     -0.2866
    138  CB        -3.9330  126.2200  106.4510 C.3   296  THR296      0.1770
    139  OG1       -2.9840  126.8970  105.6160 O.3   296  THR296     -0.2211
    140  CG2       -3.3680  124.8750  106.8710 C.3   296  THR296      0.0375
    141  N         -4.8310  125.6990   93.7360 N.3   335  GLU335     -0.1245
    142  CA        -4.9150  124.3100   94.1860 C.3   335  GLU335      0.1567
    143  C         -5.5980  124.3080   95.5520 C.2   335  GLU335      0.2260
    144  O         -4.9620  124.2590   96.6090 O.2   335  GLU335     -0.2867
    145  CB        -3.5340  123.6720   94.2410 C.3   335  GLU335      0.0388
    146  CG        -3.5470  122.1860   94.5850 C.3   335  GLU335      0.1160
    147  CD        -2.1610  121.6320   94.8850 C.2   335  GLU335      0.3649
    148  OE1       -1.2390  122.4320   95.1480 O.co2 335  GLU335     -0.2457
    149  OE2       -1.9940  120.3930   94.8600 O.co2 335  GLU335     -0.2457
    150  N         -7.4810  122.0860   97.1360 N.3   337  MET337     -0.1245
    151  CA        -7.4370  120.8690   97.9460 C.3   337  MET337      0.1570
    152  C         -8.6610  120.7830   98.8540 C.2   337  MET337      0.2261
    153  O         -8.5610  120.4560  100.0390 O.2   337  MET337     -0.2867
    154  CB        -6.1460  120.7910   98.7640 C.3   337  MET337      0.0387
    155  CG        -4.8810  120.7580   97.9210 C.3   337  MET337      0.0595
    156  SD        -3.3850  120.5050   98.8930 S.3   337  MET337     -0.1393
    157  CE        -3.6890  118.8660   99.5450 C.3   337  MET337      0.0692
    158  N          1.6560  117.7450   86.2500 N.3   365  HIS365     -0.1241
    159  CA         1.3730  116.7510   87.2780 C.3   365  HIS365      0.1621
    160  C          0.3010  115.7780   86.8010 C.2   365  HIS365      0.2264
    161  O          0.6140  114.6380   86.4410 O.2   365  HIS365     -0.2867
    162  CB         0.9440  117.4410   88.5770 C.3   365  HIS365      0.0745
    163  CG         0.9420  116.5410   89.7760 C.ar  365  HIS365      0.0817
    164  ND1        0.6780  115.1910   89.6960 N.ar  365  HIS365     -0.2268
    165  CD2        1.1720  116.8020   91.0850 C.ar  365  HIS365      0.1154
    166  CE1        0.7430  114.6590   90.9040 C.ar  365  HIS365      0.1986
    167  NE2        1.0410  115.6150   91.7650 N.ar  365  HIS365     -0.2212
    168  N          2.6410  107.2390   96.1010 N.3   409  PHE409     -0.1227
    169  CA         2.1850  108.5200   96.6290 C.3   409  PHE409      0.1736
    170  C          3.2760  109.5820   96.5530 C.2   409  PHE409      0.2596
    171  O          3.1640  110.6320   97.1920 O.2   409  PHE409     -0.2718
    172  CB         1.6710  108.3510   98.0580 C.3   409  PHE409      0.0547
    173  CG         0.3390  107.6590   98.1290 C.ar  409  PHE409     -0.0202
    174  CD1       -0.8170  108.3230   97.7450 C.ar  409  PHE409     -0.0042
    175  CD2        0.2420  106.3480   98.5610 C.ar  409  PHE409     -0.0042
    176  CE1       -2.0450  107.6960   97.7970 C.ar  409  PHE409     -0.0003
    177  CE2       -0.9850  105.7160   98.6180 C.ar  409  PHE409     -0.0003
    178  CZ        -2.1300  106.3920   98.2340 C.ar  409  PHE409     -0.0000
    179  N          4.3210  109.3270   95.7690 N.am  410  THR410     -0.1939
    180  CA         5.3290  110.3260   95.4260 C.3   410  THR410      0.2028
    181  C          5.4130  110.3870   93.9050 C.2   410  THR410      0.2642
    182  O          5.9580  109.4730   93.2760 O.2   410  THR410     -0.2714
    183  CB         6.6860  109.9820   96.0420 C.3   410  THR410      0.1808
    184  OG1        6.5530  109.8860   97.4660 O.3   410  THR410     -0.2208
    185  CG2        7.7170  111.0450   95.6970 C.3   410  THR410      0.0379
    186  N          4.8710  111.4510   93.3170 N.am  411  ILE411     -0.1977
    187  CA         4.7880  111.6060   91.8670 C.3   411  ILE411      0.1596
    188  C          5.6920  112.7650   91.4670 C.2   411  ILE411      0.2287
    189  O          5.4030  113.9280   91.7770 O.2   411  ILE411     -0.2864
    190  CB         3.3440  111.8380   91.4020 C.3   411  ILE411      0.0276
    191  CG1        2.4770  110.6380   91.7860 C.3   411  ILE411      0.0022
    192  CG2        3.2930  112.0750   89.9000 C.3   411  ILE411      0.0022
    193  CD1        1.0010  110.8600   91.5800 C.3   411  ILE411      0.0001
@<TRIPOS>BOND
     1   158   159    1
     2   161   160    2
     3   160   159    1
     4   159   162    1
     5   162   163    1
     6   164   163   ar
     7   164   166   ar
     8   163   165   ar
     9   192   190    1
    10   117   118    1
    11   117   116    1
    12   114   113    2
    13   118   119    2
    14   166   167   ar
    15   165   167   ar
    16   190   191    1
    17   190   187    1
    18   188   189    2
    19   188   187    1
    20   193   191    1
    21   187   186    1
    22   113   116   am
    23   113   112    1
    24   131   130    2
    25   107   108    1
    26   107   104   am
    27   111   112    1
    28   111   109   am
    29   108   109    1
    30   182   181    2
    31   112   115    1
    32   186   181   am
    33   109   110    2
    34   130   129    1
    35   141   142    1
    36   181   180    1
    37   103   104    1
    38   103   102    1
    39   103   106    1
    40   104   105    2
    41   142   145    1
    42   142   143    1
    43    99   100    1
    44    99    96    1
    45   145   146    1
    46   133   132    1
    47   146   147    1
    48   132   129    1
    49   129   128    1
    50   149   147   ar
    51   147   148   ar
    52   100   101    1
    53    96    97    1
    54    96    95    1
    55   180   179    1
    56   180   183    1
    57    98    97    2
    58   143   144    2
    59   101    95    1
    60   185   183    1
    61   179   170   am
    62    95    93   am
    63   183   184    1
    64   168   169    1
    65   170   169    1
    66   170   171    2
    67   169   172    1
    68    90    89    2
    69    93    94    2
    70    93    92    1
    71   150   151    1
    72    92    91    1
    73   174   176   ar
    74   174   173   ar
    75   176   178   ar
    76   155   154    1
    77   155   156    1
    78    89    91   am
    79    89    88    1
    80   151   154    1
    81   151   152    1
    82   172   173    1
    83   173   175   ar
    84   178   177   ar
    85   123   122    2
    86    86    84    1
    87   122   121    1
    88    87    88    1
    89    87    82   am
    90   175   177   ar
    91    81    80    1
    92    81    84    1
    93    81    82    1
    94    85    84    1
    95   120   121    1
    96   152   153    2
    97   156   157    1
    98   121   124    1
    99    82    83    2
   100    37    35   am
   101    35    36    2
   102    35    34    1
   103   124   125    1
   104   124   126    1
   105    29    27    1
   106   125   127    1
   107    14    13    1
   108    14    15    1
   109    34    31    1
   110    28    27    1
   111    27    24    1
   112    13    10    1
   113    15     9    1
   114    31    30    1
   115    31    32    1
   116    30    25   am
   117     9    10    1
   118    24    25    1
   119    24    23    1
   120    33    32    2
   121    25    26    2
   122    10    11    1
   123    23    18   am
   124    11    12    2
   125    11    16   am
   126    47    46   ar
   127    47    45   ar
   128    78    77    1
   129    16    17    1
   130   134   135    1
   131    18    19    2
   132    18    17    1
   133    46    44   ar
   134   139   138    1
   135    45    43   ar
   136   135   138    1
   137   135   136    1
   138    21    20    1
   139     7     8    1
   140     7     6    1
   141     5     6    1
   142     5     2    1
   143    17    20    1
   144    77    76    2
   145    77    79    1
   146     3     2    1
   147     3     4    2
   148    76    75    1
   149   138   140    1
   150   136   137    2
   151     2     1    1
   152    44    43   ar
   153    20    22    1
   154    43    42    1
   155    75    74    1
   156    42    39    1
   157    74    73    1
   158    38    39    1
   159    62    60    1
   160    61    60    1
   161    72    71    2
   162    39    40    1
   163    60    59    2
   164    73    70    1
   165    70    71    1
   166    70    69    1
   167    59    58    1
   168    40    41    2
   169    40    48   am
   170    66    65    2
   171    56    57    1
   172    56    53    1
   173    58    57    1
   174    69    65   am
   175    48    49    1
   176    65    64    1
   177    52    53    1
   178    52    50   am
   179    53    54    1
   180    54    55    2
   181    49    50    1
   182    64    63    1
   183    64    67    1
   184    50    51    2
   185    68    67    1
