@<TRIPOS>MOLECULE
tmp/6gvsJ00.pdb
 196 189 0 0 0
SMALL
GASTEIGER

@<TRIPOS>ATOM
      1  N         18.0530   23.2920  -27.4460 N.3    62  MET62      -0.1245
      2  CA        18.5470   24.4140  -26.6610 C.3    62  MET62       0.1570
      3  C         18.3420   24.1370  -25.1800 C.2    62  MET62       0.2261
      4  O         17.3280   23.5550  -24.7810 O.2    62  MET62      -0.2867
      5  CB        17.8320   25.7070  -27.0660 C.3    62  MET62       0.0387
      6  CG        17.9940   26.0460  -28.5390 C.3    62  MET62       0.0595
      7  SD        16.9240   27.3790  -29.1170 S.3    62  MET62      -0.1393
      8  CE        17.3040   27.3670  -30.8720 C.3    62  MET62       0.0692
      9  N          8.4070   31.7140  -26.7790 N.3   112  PRO112     -0.2102
     10  CA         9.7000   31.5290  -27.4460 C.3   112  PRO112      0.1504
     11  C         10.1780   30.0830  -27.4340 C.2   112  PRO112      0.2576
     12  O          9.8040   29.2750  -26.5810 O.2   112  PRO112     -0.2718
     13  CB        10.6400   32.4110  -26.6100 C.3   112  PRO112      0.0282
     14  CG        10.0770   32.2980  -25.2190 C.3   112  PRO112      0.0208
     15  CD         8.5680   32.1680  -25.3810 C.3   112  PRO112      0.0893
     16  N         11.0070   29.7610  -28.3910 N.am  113  THR113     -0.1939
     17  CA        11.5750   28.4490  -28.5260 C.3   113  THR113      0.2028
     18  C         12.4860   28.1540  -27.3800 C.2   113  THR113      0.2643
     19  O         12.6600   27.0510  -26.9810 O.2   113  THR113     -0.2714
     20  CB        12.3620   28.3330  -29.8030 C.3   113  THR113      0.1808
     21  OG1       13.3780   29.3110  -29.7820 O.3   113  THR113     -0.2208
     22  CG2       11.5190   28.6600  -30.9100 C.3   113  THR113      0.0379
     23  N         13.1070   29.1890  -26.8920 N.am  114  THR114     -0.1936
     24  CA        14.0210   29.1010  -25.8060 C.3   114  THR114      0.2028
     25  C         13.4350   28.5920  -24.5040 C.2   114  THR114      0.2642
     26  O         13.9990   27.7550  -23.8820 O.2   114  THR114     -0.2714
     27  CB        14.5270   30.5060  -25.6080 C.3   114  THR114      0.1808
     28  OG1       15.5600   30.7390  -26.5380 O.3   114  THR114     -0.2208
     29  CG2       15.0930   30.6610  -24.3430 C.3   114  THR114      0.0379
     30  N         12.2790   29.0790  -24.0970 N.am  115  ASN115     -0.1971
     31  CA        11.6470   28.6500  -22.8720 C.3   115  ASN115      0.1688
     32  C         10.2290   28.4050  -23.2310 C.2   115  ASN115      0.2292
     33  O          9.3760   29.1340  -22.8400 O.2   115  ASN115     -0.2864
     34  CB        11.7140   29.7310  -21.8160 C.3   115  ASN115      0.1181
     35  CG        13.0930   30.1950  -21.5400 C.2   115  ASN115      0.2629
     36  OD1       13.9110   29.4420  -21.1290 O.2   115  ASN115     -0.2716
     37  ND2       13.3380   31.4380  -21.7360 N.am  115  ASN115     -0.0877
     38  N          6.1210   28.4680  -31.4670 N.3   139  HIS139     -0.1226
     39  CA         6.9200   28.3320  -32.6490 C.3   139  HIS139      0.1752
     40  C          7.0100   26.8980  -33.0360 C.2   139  HIS139      0.2597
     41  O          6.8010   26.0480  -32.2480 O.2   139  HIS139     -0.2718
     42  CB         8.3160   28.8550  -32.4170 C.3   139  HIS139      0.0759
     43  CG         8.4190   30.3360  -32.4410 C.ar  139  HIS139      0.0818
     44  ND1        9.3610   31.0180  -31.7220 N.ar  139  HIS139     -0.2268
     45  CD2        7.6960   31.2700  -33.0870 C.ar  139  HIS139      0.1154
     46  CE1        9.2110   32.3110  -31.9130 C.ar  139  HIS139      0.1986
     47  NE2        8.2070   32.4910  -32.7400 N.ar  139  HIS139     -0.2212
     48  N          7.3690   26.6530  -34.2760 N.am  140  GLY140     -0.1942
     49  CA         7.4630   25.3300  -34.8330 C.3   140  GLY140      0.2014
     50  C          8.4530   24.4370  -34.1850 C.2   140  GLY140      0.2638
     51  O          8.2170   23.2910  -33.9510 O.2   140  GLY140     -0.2714
     52  N          9.5620   25.0030  -33.7790 N.am  141  ARG141     -0.1977
     53  CA        10.6320   24.2600  -33.1520 C.3   141  ARG141      0.1597
     54  C         10.2230   23.5610  -31.8810 C.2   141  ARG141      0.2287
     55  O         10.7800   22.5580  -31.5590 O.2   141  ARG141     -0.2864
     56  CB        11.8180   25.1660  -32.9180 C.3   141  ARG141      0.0334
     57  CG        13.1800   24.4940  -32.9380 C.3   141  ARG141      0.0492
     58  CD        13.8460   24.6110  -34.2850 C.3   141  ARG141      0.2205
     59  NE        14.9050   25.6050  -34.3610 N.pl3 141  ARG141     -0.0865
     60  CZ        14.9060   26.6120  -35.2290 C.cat 141  ARG141      0.5346
     61  NH1       15.8960   27.4650  -35.2600 N.pl3 141  ARG141      0.1354
     62  NH2       13.9050   26.7820  -36.0660 N.pl3 141  ARG141      0.1354
     63  N          1.6580   24.9220  -35.4240 N.3   173  PRO173     -0.2102
     64  CA         2.1190   26.2980  -35.1910 C.3   173  PRO173      0.1504
     65  C          2.9550   26.7920  -36.3600 C.2   173  PRO173      0.2576
     66  O          3.8910   26.1240  -36.8030 O.2   173  PRO173     -0.2718
     67  CB         2.9480   26.1860  -33.9050 C.3   173  PRO173      0.0282
     68  CG         2.4720   24.9290  -33.2450 C.3   173  PRO173      0.0208
     69  CD         2.1090   24.0000  -34.3640 C.3   173  PRO173      0.0893
     70  N          2.6030   27.9720  -36.8640 N.am  174  SER174     -0.1938
     71  CA         3.3080   28.5450  -37.9970 C.3   174  SER174      0.2055
     72  C          3.2980   30.0600  -37.8800 C.2   174  SER174      0.2642
     73  O          2.4540   30.6480  -37.1970 O.2   174  SER174     -0.2714
     74  CB         2.6800   28.1160  -39.3270 C.3   174  SER174      0.2130
     75  OG         1.4130   28.7240  -39.5070 O.3   174  SER174     -0.2179
     76  N          4.2600   30.6870  -38.5600 N.am  175  ARG175     -0.1977
     77  CA         4.3190   32.1430  -38.5950 C.3   175  ARG175      0.1597
     78  C          3.0100   32.7400  -39.0920 C.2   175  ARG175      0.2287
     79  O          2.6170   33.8260  -38.6520 O.2   175  ARG175     -0.2864
     80  CB         5.4810   32.5880  -39.4810 C.3   175  ARG175      0.0334
     81  CG         5.5530   34.0820  -39.7250 C.3   175  ARG175      0.0492
     82  CD         6.6450   34.4160  -40.7320 C.3   175  ARG175      0.2205
     83  NE         6.5830   35.8100  -41.1610 N.pl3 175  ARG175     -0.0865
     84  CZ         7.2050   36.8160  -40.5510 C.cat 175  ARG175      0.5346
     85  NH1        7.9480   36.5950  -39.4740 N.pl3 175  ARG175      0.1354
     86  NH2        7.0820   38.0490  -41.0230 N.pl3 175  ARG175      0.1354
     87  N          6.5300   37.2530  -26.0730 N.3   193  THR193     -0.1203
     88  CA         7.8080   36.9580  -25.4360 C.3   193  THR193      0.1994
     89  C          8.7540   36.4710  -26.5290 C.2   193  THR193      0.2618
     90  O          8.7220   35.2960  -26.9090 O.2   193  THR193     -0.2717
     91  CB         7.6490   35.9160  -24.3360 C.3   193  THR193      0.1784
     92  OG1        6.6950   36.3770  -23.3720 O.3   193  THR193     -0.2211
     93  CG2        8.9840   35.6680  -23.6520 C.3   193  THR193      0.0376
     94  N          9.5900   37.3770  -27.0350 N.am  194  GLY194     -0.1942
     95  CA        10.4910   37.0400  -28.1180 C.3   194  GLY194      0.2014
     96  C         11.4300   38.1570  -28.5220 C.2   194  GLY194      0.2639
     97  O         11.8470   38.9660  -27.6880 O.2   194  GLY194     -0.2714
     98  N         11.7650   38.2120  -29.8130 N.am  195  GLY195     -0.1940
     99  CA        12.7760   39.1220  -30.2920 C.3   195  GLY195      0.1998
    100  C         12.2310   40.5010  -30.5790 C.2   195  GLY195      0.2480
    101  O         11.0340   40.7810  -30.4560 O.2   195  GLY195     -0.2729
    102  N         13.1340   41.3960  -30.9850 N.am  196  PRO196     -0.2726
    103  CA        12.7160   42.7870  -31.2320 C.3   196  PRO196      0.1402
    104  C         11.7140   42.9400  -32.3630 C.2   196  PRO196      0.2269
    105  O         10.7910   43.7570  -32.2540 O.2   196  PRO196     -0.2865
    106  CB        14.0440   43.4980  -31.5440 C.3   196  PRO196      0.0296
    107  CG        14.9750   42.4110  -31.9560 C.3   196  PRO196      0.0237
    108  CD        14.5820   41.2060  -31.1620 C.3   196  PRO196      0.0939
    109  N          7.8590   41.8080  -24.7160 N.3   212  ALA212     -0.1231
    110  CA         8.9870   41.3580  -23.9010 C.3   212  ALA212      0.1694
    111  C         10.1750   41.1480  -24.8310 C.2   212  ALA212      0.2593
    112  O         10.3420   40.0870  -25.4290 O.2   212  ALA212     -0.2718
    113  CB         8.6310   40.0860  -23.1430 C.3   212  ALA212      0.0304
    114  N         11.0230   42.1790  -24.9380 N.am  213  GLY213     -0.1942
    115  CA        12.1340   42.1680  -25.8660 C.3   213  GLY213      0.2014
    116  C         13.3960   41.5320  -25.3020 C.2   213  GLY213      0.2638
    117  O         13.4530   41.0640  -24.1660 O.2   213  GLY213     -0.2714
    118  N         14.4320   41.5330  -26.1310 N.am  214  ALA214     -0.1977
    119  CA        15.6750   40.8500  -25.8170 C.3   214  ALA214      0.1597
    120  C         16.6190   41.7690  -25.0450 C.2   214  ALA214      0.2287
    121  O         16.4240   42.9830  -24.9610 O.2   214  ALA214     -0.2864
    122  CB        16.3460   40.3540  -27.0990 C.3   214  ALA214      0.0319
    123  N         20.3080   30.4670  -22.3980 N.3   244  ILE244     -0.1245
    124  CA        19.1370   30.8520  -23.1850 C.3   244  ILE244      0.1561
    125  C         18.0890   31.6000  -22.3690 C.2   244  ILE244      0.2260
    126  O         17.0870   32.0600  -22.9400 O.2   244  ILE244     -0.2867
    127  CB        18.4600   29.6350  -23.8540 C.3   244  ILE244      0.0252
    128  CG1       17.9080   28.6680  -22.8030 C.3   244  ILE244      0.0019
    129  CG2       19.4400   28.9330  -24.7870 C.3   244  ILE244      0.0019
    130  CD1       17.3600   27.3820  -23.3870 C.3   244  ILE244      0.0001
    131  N         16.6710   34.8340  -20.8790 N.3   246  CYS246     -0.1235
    132  CA        16.8800   36.1710  -21.4200 C.3   246  CYS246      0.1677
    133  C         17.6620   37.0750  -20.4740 C.2   246  CYS246      0.2270
    134  O         18.2430   38.0660  -20.9310 O.2   246  CYS246     -0.2867
    135  CB        15.5350   36.8190  -21.7620 C.3   246  CYS246      0.0956
    136  SG        14.3880   36.9480  -20.3760 S.3   246  CYS246     -0.0801
    137  N         21.9300   29.8530  -35.1310 N.3   296  THR296     -0.1218
    138  CA        20.8380   29.1220  -34.4990 C.3   296  THR296      0.1862
    139  C         21.2770   27.7280  -34.0660 C.2   296  THR296      0.2287
    140  O         20.8870   27.2530  -32.9930 O.2   296  THR296     -0.2866
    141  CB        19.6480   29.0280  -35.4540 C.3   296  THR296      0.1770
    142  OG1       19.1680   30.3440  -35.7540 O.3   296  THR296     -0.2211
    143  CG2       18.5270   28.2090  -34.8340 C.3   296  THR296      0.0375
    144  N         23.9530   39.1460  -28.8020 N.3   335  GLU335     -0.1245
    145  CA        23.3060   38.3430  -27.7650 C.3   335  GLU335      0.1567
    146  C         23.4110   36.8820  -28.1870 C.2   335  GLU335      0.2260
    147  O         22.5070   36.3240  -28.8080 O.2   335  GLU335     -0.2867
    148  CB        21.8560   38.7700  -27.5700 C.3   335  GLU335      0.0388
    149  CG        21.1530   38.0670  -26.4120 C.3   335  GLU335      0.1160
    150  CD        19.6410   38.2360  -26.4370 C.2   335  GLU335      0.3649
    151  OE1       19.0950   38.5930  -27.5040 O.co2 335  GLU335     -0.2457
    152  OE2       18.9970   38.0060  -25.3870 O.co2 335  GLU335     -0.2457
    153  N         23.3680   34.0200  -26.5760 N.3   337  MET337     -0.1245
    154  CA        22.5490   32.9960  -25.9280 C.3   337  MET337      0.1570
    155  C         23.2720   31.6510  -25.9580 C.2   337  MET337      0.2261
    156  O         22.7030   30.6130  -26.3070 O.2   337  MET337     -0.2867
    157  CB        21.1700   32.8920  -26.5810 C.3   337  MET337      0.0387
    158  CG        20.4270   34.2090  -26.6470 C.3   337  MET337      0.0595
    159  SD        18.6900   33.9960  -27.0620 S.3   337  MET337     -0.1393
    160  CE        18.0870   33.2570  -25.5430 C.3   337  MET337      0.0692
    161  N         16.8040   46.1270  -20.2380 N.3   365  HIS365     -0.1241
    162  CA        16.3200   44.8000  -19.8770 C.3   365  HIS365      0.1621
    163  C         16.9130   44.3460  -18.5470 C.2   365  HIS365      0.2264
    164  O         16.2390   44.3950  -17.5120 O.2   365  HIS365     -0.2867
    165  CB        16.6630   43.7970  -20.9850 C.3   365  HIS365      0.0745
    166  CG        16.0460   42.4440  -20.7980 C.ar  365  HIS365      0.0817
    167  ND1       16.1950   41.7100  -19.6410 N.ar  365  HIS365     -0.2268
    168  CD2       15.2920   41.6860  -21.6290 C.ar  365  HIS365      0.1154
    169  CE1       15.5480   40.5630  -19.7630 C.ar  365  HIS365      0.1986
    170  NE2       14.9930   40.5230  -20.9600 N.ar  365  HIS365     -0.2212
    171  N          8.5300   34.7280  -16.6360 N.3   409  PHE409     -0.1227
    172  CA         9.3260   34.4710  -17.8290 C.3   409  PHE409      0.1736
    173  C          8.9330   35.3880  -18.9760 C.2   409  PHE409      0.2596
    174  O          9.3290   35.1430  -20.1230 O.2   409  PHE409     -0.2718
    175  CB         9.2030   33.0050  -18.2410 C.3   409  PHE409      0.0547
    176  CG         9.8780   32.0700  -17.2870 C.ar  409  PHE409     -0.0202
    177  CD1       11.2440   31.8570  -17.3610 C.ar  409  PHE409     -0.0042
    178  CD2        9.1550   31.4270  -16.2960 C.ar  409  PHE409     -0.0042
    179  CE1       11.8760   31.0090  -16.4760 C.ar  409  PHE409     -0.0003
    180  CE2        9.7800   30.5750  -15.4070 C.ar  409  PHE409     -0.0003
    181  CZ        11.1440   30.3660  -15.4960 C.ar  409  PHE409     -0.0000
    182  N          8.1660   36.4370  -18.6910 N.am  410  THR410     -0.1939
    183  CA         7.8320   37.4790  -19.6600 C.3   410  THR410      0.2028
    184  C          8.2090   38.8030  -19.0010 C.2   410  THR410      0.2642
    185  O          7.4790   39.3020  -18.1400 O.2   410  THR410     -0.2714
    186  CB         6.3590   37.4340  -20.0490 C.3   410  THR410      0.1808
    187  OG1        6.0880   36.2120  -20.7510 O.3   410  THR410     -0.2208
    188  CG2        6.0010   38.6120  -20.9420 C.3   410  THR410      0.0379
    189  N          9.3510   39.3570  -19.3980 N.am  411  ILE411     -0.1977
    190  CA         9.8940   40.5800  -18.8150 C.3   411  ILE411      0.1596
    191  C          9.7390   41.6890  -19.8430 C.2   411  ILE411      0.2287
    192  O         10.3160   41.6190  -20.9360 O.2   411  ILE411     -0.2864
    193  CB        11.3640   40.4060  -18.4040 C.3   411  ILE411      0.0276
    194  CG1       11.4860   39.2720  -17.3830 C.3   411  ILE411      0.0022
    195  CG2       11.9230   41.7090  -17.8400 C.3   411  ILE411      0.0022
    196  CD1       12.9080   38.8390  -17.1140 C.3   411  ILE411      0.0001
@<TRIPOS>BOND
     1    83    82    1
     2    83    84    2
     3    86    84    1
     4    82    81    1
     5    84    85    1
     6    81    80    1
     7    75    74    1
     8    80    77    1
     9    74    71    1
    10    78    79    2
    11    78    77    1
    12    77    76    1
    13    76    72   am
    14    71    72    1
    15    71    70    1
    16    72    73    2
    17    70    65   am
    18    66    65    2
    19    65    64    1
    20    62    60    1
    21   142   141    1
    22   141   143    1
    23   141   138    1
    24    63    64    1
    25    63    69    1
    26    61    60    1
    27    60    59    2
    28    64    67    1
    29   137   138    1
    30    49    48    1
    31    49    50    1
    32   138   139    1
    33    69    68    1
    34    59    58    1
    35    58    57    1
    36    48    40   am
    37    50    51    2
    38    50    52   am
    39   139   140    2
    40    67    68    1
    41    52    53    1
    42    53    56    1
    43    53    54    1
    44    45    47   ar
    45    45    43   ar
    46    40    39    1
    47    40    41    2
    48    57    56    1
    49    47    46   ar
    50    39    42    1
    51    39    38    1
    52    43    42    1
    53    43    44   ar
    54   104   105    2
    55   104   103    1
    56   107   106    1
    57   107   108    1
    58    46    44   ar
    59    54    55    2
    60   106   103    1
    61   103   102    1
    62   108   102    1
    63   102   100   am
    64    22    20    1
    65     8     7    1
    66   100   101    2
    67   100    99    1
    68    99    98    1
    69    98    96   am
    70    20    21    1
    71    20    17    1
    72     7     6    1
    73   147   146    2
    74   144   145    1
    75     6     5    1
    76    17    16    1
    77    17    18    1
    78    96    95    1
    79    96    97    2
    80    16    11   am
    81   146   145    1
    82    95    94    1
    83   145   148    1
    84   148   149    1
    85   151   150   ar
    86     1     2    1
    87    10    11    1
    88    10     9    1
    89    10    13    1
    90    11    12    2
    91    18    19    2
    92    18    23   am
    93   122   119    1
    94     5     2    1
    95   159   158    1
    96   159   160    1
    97    94    89   am
    98    90    89    2
    99    23    24    1
   100     9    15    1
   101     2     3    1
   102   158   157    1
   103    13    14    1
   104   157   154    1
   105   153   154    1
   106    28    27    1
   107    89    88    1
   108   150   149    1
   109   150   152   ar
   110   156   155    2
   111   118   119    1
   112   118   116   am
   113    87    88    1
   114   155   154    1
   115   115   116    1
   116   115   114    1
   117   119   120    1
   118    24    27    1
   119    24    25    1
   120    27    29    1
   121    88    91    1
   122   112   111    2
   123    15    14    1
   124   116   117    2
   125     3     4    2
   126   120   121    2
   127   114   111   am
   128   111   110    1
   129   129   127    1
   130   109   110    1
   131    25    30   am
   132    25    26    2
   133    91    93    1
   134    91    92    1
   135    30    31    1
   136   110   113    1
   137   127   124    1
   138   127   128    1
   139   130   128    1
   140    32    31    1
   141    32    33    2
   142   124   123    1
   143   124   125    1
   144   126   125    2
   145    31    34    1
   146    34    35    1
   147   135   132    1
   148   135   136    1
   149    37    35   am
   150   168   170   ar
   151   168   166   ar
   152    35    36    2
   153   132   131    1
   154   132   133    1
   155   165   166    1
   156   165   162    1
   157   170   169   ar
   158   188   186    1
   159   192   191    2
   160   134   133    2
   161   166   167   ar
   162   187   186    1
   163   161   162    1
   164   174   173    2
   165   186   183    1
   166   162   163    1
   167   191   190    1
   168   169   167   ar
   169   183   184    1
   170   183   182    1
   171   189   184   am
   172   189   190    1
   173   184   185    2
   174   173   182   am
   175   173   172    1
   176   190   193    1
   177   163   164    2
   178   193   195    1
   179   193   194    1
   180   175   172    1
   181   175   176    1
   182   172   171    1
   183   194   196    1
   184   177   176   ar
   185   177   179   ar
   186   176   178   ar
   187   179   181   ar
   188   178   180   ar
   189   181   180   ar
