@<TRIPOS>MOLECULE
tmp/6gwcA01.pdb
 81 77 0 0 0
SMALL
GASTEIGER

@<TRIPOS>ATOM
      1  N         57.5600  -18.3880  -26.2720 N.3   168  ALA168     -0.1245
      2  CA        57.0980  -19.7710  -26.4330 C.3   168  ALA168      0.1562
      3  C         55.7580  -19.9110  -25.7130 C.2   168  ALA168      0.2260
      4  O         55.5750  -19.2610  -24.6710 O.2   168  ALA168     -0.2867
      5  CB        58.1050  -20.7310  -25.8260 C.3   168  ALA168      0.0290
      6  N         54.2660  -21.3100  -23.1660 N.3   170  GLN170     -0.1245
      7  CA        54.4730  -22.0770  -21.9350 C.3   170  GLN170      0.1566
      8  C         53.5570  -21.5460  -20.7820 C.2   170  GLN170      0.2260
      9  O         53.3040  -20.3390  -20.6940 O.2   170  GLN170     -0.2867
     10  CB        55.9800  -22.1430  -21.5750 C.3   170  GLN170      0.0367
     11  CG        56.4960  -20.9550  -20.7600 C.3   170  GLN170      0.0905
     12  CD        57.9520  -20.6400  -20.9220 C.2   170  GLN170      0.2608
     13  OE1       58.5230  -20.7190  -22.0040 O.2   170  GLN170     -0.2717
     14  NE2       58.5730  -20.2300  -19.8410 N.am  170  GLN170     -0.0878
     15  N         53.8490  -20.7820  -17.6880 N.3   172  SER172     -0.1217
     16  CA        54.3330  -19.7160  -16.7860 C.3   172  SER172      0.1889
     17  C         54.2270  -18.3220  -17.4690 C.2   172  SER172      0.2288
     18  O         53.7070  -17.3750  -16.8650 O.2   172  SER172     -0.2866
     19  CB        55.7420  -20.0220  -16.2540 C.3   172  SER172      0.2089
     20  OG        56.8220  -19.5510  -17.0510 O.3   172  SER172     -0.2183
     21  N         62.1650  -19.5440  -27.7660 N.3   200  ASN200     -0.1240
     22  CA        62.3500  -20.4320  -26.6180 C.3   200  ASN200      0.1653
     23  C         61.8810  -21.8930  -26.8780 C.2   200  ASN200      0.2266
     24  O         62.4410  -22.8390  -26.3140 O.2   200  ASN200     -0.2867
     25  CB        61.7170  -19.8280  -25.3530 C.3   200  ASN200      0.1155
     26  CG        62.6530  -18.9860  -24.4910 C.2   200  ASN200      0.2627
     27  OD1       63.8570  -18.8810  -24.7360 O.2   200  ASN200     -0.2716
     28  ND2       62.1310  -18.3680  -23.4430 N.am  200  ASN200     -0.0877
     29  N         64.4010  -25.0240  -26.3740 N.3   204  TYR204     -0.1241
     30  CA        63.7880  -26.0330  -25.5010 C.3   204  TYR204      0.1605
     31  C         63.8170  -27.3800  -26.2320 C.2   204  TYR204      0.2264
     32  O         64.3020  -28.3620  -25.6690 O.2   204  TYR204     -0.2867
     33  CB        62.3670  -25.5900  -25.1030 C.3   204  TYR204      0.0534
     34  CG        61.4560  -26.6480  -24.5190 C.ar  204  TYR204     -0.0201
     35  CD1       60.5970  -27.3840  -25.3340 C.ar  204  TYR204     -0.0009
     36  CD2       61.3590  -26.8290  -23.1400 C.ar  204  TYR204     -0.0009
     37  CE1       59.6990  -28.3060  -24.7970 C.ar  204  TYR204      0.0417
     38  CE2       60.4710  -27.7590  -22.5920 C.ar  204  TYR204      0.0417
     39  CZ        59.6320  -28.4850  -23.4240 C.ar  204  TYR204      0.1957
     40  OH        58.7620  -29.4190  -22.9040 O.3   204  TYR204     -0.2866
     41  N         64.1160  -28.6260  -19.5690 N.3   216  PRO216     -0.2102
     42  CA        65.2200  -27.6440  -19.5610 C.3   216  PRO216      0.1504
     43  C         64.8980  -26.3800  -18.7390 C.2   216  PRO216      0.2576
     44  O         63.7620  -25.9040  -18.7110 O.2   216  PRO216     -0.2718
     45  CB        65.4460  -27.3270  -21.0570 C.3   216  PRO216      0.0282
     46  CG        64.6970  -28.3860  -21.8160 C.3   216  PRO216      0.0208
     47  CD        63.5530  -28.7740  -20.9310 C.3   216  PRO216      0.0893
     48  N         65.9120  -25.8670  -18.0480 N.am  217  THR217     -0.1939
     49  CA        65.8660  -24.6810  -17.1990 C.3   217  THR217      0.2028
     50  C         66.3580  -23.4920  -18.0120 C.2   217  THR217      0.2642
     51  O         66.8850  -23.6900  -19.1220 O.2   217  THR217     -0.2714
     52  CB        66.7470  -24.9090  -15.9180 C.3   217  THR217      0.1808
     53  OG1       68.1500  -24.9090  -16.2310 O.3   217  THR217     -0.2208
     54  CG2       66.3770  -26.1790  -15.1600 C.3   217  THR217      0.0379
     55  N         66.2250  -22.2560  -17.4610 N.am  218  TYR218     -0.1959
     56  CA        66.7260  -21.0430  -18.1300 C.3   218  TYR218      0.1771
     57  C         68.2480  -21.0730  -18.2610 C.2   218  TYR218      0.2620
     58  O         68.7600  -20.5960  -19.2610 O.2   218  TYR218     -0.2715
     59  CB        66.2130  -19.7350  -17.4770 C.3   218  TYR218      0.0574
     60  CG        64.7600  -19.4180  -17.7820 C.ar  218  TYR218     -0.0198
     61  CD1       63.8750  -19.0650  -16.7690 C.ar  218  TYR218     -0.0009
     62  CD2       64.2700  -19.4740  -19.0870 C.ar  218  TYR218     -0.0009
     63  CE1       62.5400  -18.7730  -17.0430 C.ar  218  TYR218      0.0417
     64  CE2       62.9350  -19.1830  -19.3730 C.ar  218  TYR218      0.0417
     65  CZ        62.0740  -18.8360  -18.3470 C.ar  218  TYR218      0.1957
     66  OH        60.7540  -18.5580  -18.6250 O.3   218  TYR218     -0.2866
     67  N         68.9600  -21.7130  -17.2940 N.am  219  THR219     -0.1951
     68  CA        70.4180  -21.9240  -17.2890 C.3   219  THR219      0.1897
     69  C         70.8010  -22.8330  -18.4600 C.2   219  THR219      0.2313
     70  O         71.7440  -22.5020  -19.1710 O.2   219  THR219     -0.2863
     71  CB        70.8940  -22.4490  -15.9210 C.3   219  THR219      0.1794
     72  OG1       70.3770  -21.6040  -14.8810 O.3   219  THR219     -0.2208
     73  CG2       72.4260  -22.5570  -15.8140 C.3   219  THR219      0.0378
     74  N         69.0960  -23.2890  -21.4110 N.3   221  LEU221     -0.1245
     75  CA        68.8840  -22.4880  -22.6220 C.3   221  LEU221      0.1561
     76  C         69.8730  -21.3580  -22.7740 C.2   221  LEU221      0.2260
     77  O         70.3370  -21.1240  -23.8890 O.2   221  LEU221     -0.2867
     78  CB        67.4490  -21.9110  -22.7340 C.3   221  LEU221      0.0270
     79  CG        66.1920  -22.7260  -22.3340 C.3   221  LEU221      0.0019
     80  CD1       64.9460  -21.9870  -22.7770 C.3   221  LEU221      0.0001
     81  CD2       66.1720  -24.1170  -22.9480 C.3   221  LEU221      0.0001
@<TRIPOS>BOND
     1    21    22    1
     2    23    22    1
     3    23    24    2
     4    22    25    1
     5     2     1    1
     6     2     5    1
     7     2     3    1
     8    29    30    1
     9    31    32    2
    10    31    30    1
    11     3     4    2
    12    30    33    1
    13    25    26    1
    14    35    37   ar
    15    35    34   ar
    16    33    34    1
    17    37    39   ar
    18    27    26    2
    19    34    36   ar
    20    26    28   am
    21    77    76    2
    22    39    40    1
    23    39    38   ar
    24     6     7    1
    25    36    38   ar
    26    81    79    1
    27    80    79    1
    28    76    75    1
    29    78    75    1
    30    78    79    1
    31    75    74    1
    32    13    12    2
    33     7    10    1
    34     7     8    1
    35    46    45    1
    36    46    47    1
    37    10    11    1
    38    45    42    1
    39    47    41    1
    40    12    11    1
    41    12    14   am
    42     8     9    2
    43    41    42    1
    44    42    43    1
    45    64    62   ar
    46    64    65   ar
    47    58    57    2
    48    70    69    2
    49    51    50    2
    50    62    60   ar
    51    43    44    2
    52    43    48   am
    53    66    65    1
    54    69    68    1
    55    65    63   ar
    56    57    56    1
    57    57    67   am
    58    56    59    1
    59    56    55    1
    60    48    49    1
    61    50    55   am
    62    50    49    1
    63    60    59    1
    64    60    61   ar
    65    15    16    1
    66    17    18    2
    67    17    16    1
    68    67    68    1
    69    68    71    1
    70    49    52    1
    71    20    19    1
    72    63    61   ar
    73    16    19    1
    74    53    52    1
    75    71    73    1
    76    71    72    1
    77    52    54    1
