@<TRIPOS>MOLECULE
tmp/6gwfA00.pdb
 183 184 0 0 0
SMALL
GASTEIGER

@<TRIPOS>ATOM
      1  N          5.7760   -4.5810  -20.1420 N.3    75  TRP75      -0.1241
      2  CA         5.7680   -5.3470  -21.3930 C.3    75  TRP75       0.1605
      3  C          4.9160   -4.6870  -22.4760 C.2    75  TRP75       0.2264
      4  O          4.9580   -5.1090  -23.6360 O.2    75  TRP75      -0.2867
      5  CB         5.3020   -6.7900  -21.1410 C.3    75  TRP75       0.0550
      6  CG         6.0950   -7.4980  -20.0920 C.ar   75  TRP75       0.0003
      7  CD1        7.4330   -7.3970  -19.8580 C.ar   75  TRP75       0.0946
      8  CD2        5.5940   -8.4840  -19.1770 C.ar   75  TRP75       0.0152
      9  NE1        7.8020   -8.2330  -18.8420 N.ar   75  TRP75      -0.2442
     10  CE2        6.6910   -8.9280  -18.4170 C.ar   75  TRP75       0.0810
     11  CE3        4.3360   -9.0460  -18.9620 C.ar   75  TRP75       0.0012
     12  CZ2        6.5530   -9.8710  -17.4050 C.ar   75  TRP75       0.0191
     13  CZ3        4.1980   -9.9820  -17.9600 C.ar   75  TRP75       0.0001
     14  CH2        5.2930  -10.3990  -17.2080 C.ar   75  TRP75       0.0015
     15  N         -4.7580  -12.7250  -19.9370 N.3    95  TRP95      -0.1241
     16  CA        -3.7730  -11.6330  -19.7760 C.3    95  TRP95       0.1605
     17  C         -4.4430  -10.2540  -19.8300 C.2    95  TRP95       0.2264
     18  O         -3.7800   -9.3040  -20.2260 O.2    95  TRP95      -0.2867
     19  CB        -2.6990  -11.6990  -20.8600 C.3    95  TRP95       0.0550
     20  CG        -1.8810  -12.9400  -20.8770 C.ar   95  TRP95       0.0003
     21  CD1       -1.9800  -13.9630  -21.7710 C.ar   95  TRP95       0.0946
     22  CD2       -0.7210  -13.2080  -20.0850 C.ar   95  TRP95       0.0152
     23  NE1       -0.9940  -14.8730  -21.5530 N.ar   95  TRP95      -0.2442
     24  CE2       -0.2130  -14.4540  -20.5120 C.ar   95  TRP95       0.0810
     25  CE3       -0.1080  -12.5620  -19.0090 C.ar   95  TRP95       0.0012
     26  CZ2        0.9100  -15.0400  -19.9300 C.ar   95  TRP95       0.0191
     27  CZ3        0.9940  -13.1490  -18.4270 C.ar   95  TRP95       0.0001
     28  CH2        1.5000  -14.3700  -18.8850 C.ar   95  TRP95       0.0015
     29  N         17.7010  -16.7610  -18.3800 N.3   200  TRP200     -0.1227
     30  CA        16.3640  -17.0420  -18.9740 C.3   200  TRP200      0.1737
     31  C         16.4200  -17.2860  -20.4950 C.2   200  TRP200      0.2595
     32  O         15.8240  -18.2360  -20.9750 O.2   200  TRP200     -0.2718
     33  CB        15.3760  -15.9190  -18.6600 C.3   200  TRP200      0.0564
     34  CG        14.0350  -16.1670  -19.2790 C.ar  200  TRP200      0.0003
     35  CD1       13.4950  -15.5080  -20.3470 C.ar  200  TRP200      0.0946
     36  CD2       13.0810  -17.1710  -18.9050 C.ar  200  TRP200      0.0152
     37  NE1       12.2610  -16.0170  -20.6440 N.ar  200  TRP200     -0.2442
     38  CE2       11.9940  -17.0600  -19.8100 C.ar  200  TRP200      0.0810
     39  CE3       13.0480  -18.1830  -17.9350 C.ar  200  TRP200      0.0012
     40  CZ2       10.8830  -17.8940  -19.7470 C.ar  200  TRP200      0.0191
     41  CZ3       11.9620  -19.0420  -17.9070 C.ar  200  TRP200      0.0001
     42  CH2       10.8920  -18.8810  -18.7850 C.ar  200  TRP200      0.0015
     43  N         17.0920  -16.4030  -21.2410 N.am  201  TYR201     -0.1976
     44  CA        16.9260  -16.3300  -22.6900 C.3   201  TYR201      0.1639
     45  C         17.8210  -17.3410  -23.4250 C.2   201  TYR201      0.2290
     46  O         17.8950  -17.3190  -24.6540 O.2   201  TYR201     -0.2864
     47  CB        17.2190  -14.9140  -23.1820 C.3   201  TYR201      0.0560
     48  CG        16.2210  -13.9360  -22.6390 C.ar  201  TYR201     -0.0198
     49  CD1       14.9860  -13.7930  -23.2470 C.ar  201  TYR201     -0.0009
     50  CD2       16.4470  -13.2670  -21.4510 C.ar  201  TYR201     -0.0009
     51  CE1       14.0360  -12.9140  -22.7550 C.ar  201  TYR201      0.0417
     52  CE2       15.4740  -12.4310  -20.9070 C.ar  201  TYR201      0.0417
     53  CZ        14.2690  -12.2610  -21.5610 C.ar  201  TYR201      0.1957
     54  OH        13.2940  -11.4420  -21.0480 O.3   201  TYR201     -0.2866
     55  N         15.5460  -20.9030  -20.4330 N.3   204  PHE204     -0.1241
     56  CA        14.1160  -20.8240  -20.0990 C.3   204  PHE204      0.1605
     57  C         13.8610  -21.7300  -18.8790 C.2   204  PHE204      0.2264
     58  O         14.6800  -21.7530  -17.9650 O.2   204  PHE204     -0.2867
     59  CB        13.2680  -21.0690  -21.3530 C.3   204  PHE204      0.0534
     60  CG        13.5940  -20.1430  -22.5090 C.ar  204  PHE204     -0.0203
     61  CD1       12.9840  -18.9010  -22.6310 C.ar  204  PHE204     -0.0042
     62  CD2       14.5550  -20.4940  -23.4570 C.ar  204  PHE204     -0.0042
     63  CE1       13.3220  -18.0270  -23.6540 C.ar  204  PHE204     -0.0003
     64  CE2       14.8790  -19.6230  -24.4950 C.ar  204  PHE204     -0.0003
     65  CZ        14.2660  -18.3900  -24.5860 C.ar  204  PHE204     -0.0000
     66  N         17.1170  -17.1560  -13.0860 N.3   230  ASP230     -0.1225
     67  CA        15.7740  -16.7630  -13.4820 C.3   230  ASP230      0.1805
     68  C         14.8150  -17.9100  -13.1810 C.2   230  ASP230      0.2597
     69  O         15.1830  -18.8670  -12.4760 O.2   230  ASP230     -0.2718
     70  CB        15.7370  -16.3000  -14.9400 C.3   230  ASP230      0.1424
     71  CG        14.7410  -15.1780  -15.1750 C.2   230  ASP230      0.3668
     72  OD1       13.5570  -15.4910  -15.4220 O.co2 230  ASP230     -0.2456
     73  OD2       15.1560  -14.0030  -15.1110 O.co2 230  ASP230     -0.2456
     74  N         13.5790  -17.7770  -13.6670 N.am  231  ASP231     -0.1974
     75  CA        12.5080  -18.7380  -13.4900 C.3   231  ASP231      0.1709
     76  C         12.9990  -20.1130  -13.9680 C.2   231  ASP231      0.2293
     77  O         13.5960  -20.2110  -15.0540 O.2   231  ASP231     -0.2864
     78  CB        11.2610  -18.2230  -14.2030 C.3   231  ASP231      0.1436
     79  CG        10.0040  -19.0790  -14.1540 C.2   231  ASP231      0.3671
     80  OD1        9.9270  -19.9940  -13.2890 O.co2 231  ASP231     -0.2456
     81  OD2        9.1170  -18.8190  -14.9950 O.co2 231  ASP231     -0.2456
     82  N         15.3090  -14.3890   -9.4610 N.3   267  TRP267     -0.1241
     83  CA        14.0000  -14.0670   -9.9770 C.3   267  TRP267      0.1605
     84  C         12.9510  -14.6150   -9.0250 C.2   267  TRP267      0.2264
     85  O         13.0250  -15.7840   -8.6100 O.2   267  TRP267     -0.2867
     86  CB        13.8290  -14.6900  -11.3700 C.3   267  TRP267      0.0550
     87  CG        12.5000  -14.4700  -12.0150 C.ar  267  TRP267      0.0003
     88  CD1       12.2100  -13.5040  -12.9380 C.ar  267  TRP267      0.0946
     89  CD2       11.3290  -15.2900  -11.9170 C.ar  267  TRP267      0.0152
     90  NE1       10.9240  -13.6460  -13.3820 N.ar  267  TRP267     -0.2442
     91  CE2       10.3670  -14.7510  -12.7970 C.ar  267  TRP267      0.0810
     92  CE3       10.9880  -16.4320  -11.1890 C.ar  267  TRP267      0.0012
     93  CZ2        9.0920  -15.2970  -12.9360 C.ar  267  TRP267      0.0191
     94  CZ3        9.7280  -16.9710  -11.3360 C.ar  267  TRP267      0.0001
     95  CH2        8.7890  -16.4090  -12.1900 C.ar  267  TRP267      0.0015
     96  N         -0.5920  -18.4240  -16.5400 N.3   300  ASN300     -0.1225
     97  CA         0.7280  -18.6380  -17.1030 C.3   300  ASN300      0.1785
     98  C          1.2260  -19.9720  -16.5450 C.2   300  ASN300      0.2597
     99  O          0.6930  -20.4590  -15.5680 O.2   300  ASN300     -0.2718
    100  CB         1.6350  -17.4370  -16.8160 C.3   300  ASN300      0.1169
    101  CG         2.9820  -17.5010  -17.5080 C.2   300  ASN300      0.2627
    102  OD1        3.0880  -18.0290  -18.6200 O.2   300  ASN300     -0.2716
    103  ND2        4.0070  -16.9300  -16.8850 N.am  300  ASN300     -0.0877
    104  N          2.2630  -20.5360  -17.1520 N.am  301  TRP301     -0.1976
    105  CA         2.8050  -21.8460  -16.7620 C.3   301  TRP301      0.1640
    106  C          1.7020  -22.9240  -16.7780 C.2   301  TRP301      0.2290
    107  O          1.7890  -23.8900  -16.0180 O.2   301  TRP301     -0.2864
    108  CB         3.4650  -21.7750  -15.3810 C.3   301  TRP301      0.0576
    109  CG         4.5250  -20.7240  -15.2320 C.ar  301  TRP301      0.0006
    110  CD1        5.8470  -20.8270  -15.5730 C.ar  301  TRP301      0.0946
    111  CD2        4.3710  -19.4340  -14.6150 C.ar  301  TRP301      0.0152
    112  NE1        6.5120  -19.6720  -15.2410 N.ar  301  TRP301     -0.2442
    113  CE2        5.6250  -18.7910  -14.6840 C.ar  301  TRP301      0.0810
    114  CE3        3.2930  -18.7380  -14.0680 C.ar  301  TRP301      0.0012
    115  CZ2        5.8350  -17.5040  -14.1850 C.ar  301  TRP301      0.0191
    116  CZ3        3.5040  -17.4630  -13.5710 C.ar  301  TRP301      0.0001
    117  CH2        4.7550  -16.8640  -13.6230 C.ar  301  TRP301      0.0015
    118  N         15.2440   -9.6770   -9.2460 N.3   335  LYS335     -0.1245
    119  CA        14.3660   -9.4380  -10.3510 C.3   335  LYS335      0.1561
    120  C         12.9930   -9.8400   -9.8530 C.2   335  LYS335      0.2260
    121  O         12.7900  -11.0250   -9.5550 O.2   335  LYS335     -0.2867
    122  CB        14.8230  -10.2050  -11.6020 C.3   335  LYS335      0.0271
    123  CG        13.9310  -10.0850  -12.8300 C.3   335  LYS335      0.0035
    124  CD        14.5410  -10.6970  -14.0770 C.3   335  LYS335      0.0206
    125  CE        13.5570  -10.8280  -15.2190 C.3   335  LYS335      0.1093
    126  NZ        14.0560  -11.7210  -16.2910 N.3   335  LYS335     -0.1314
    127  N          9.0290   -9.8550  -10.5930 N.3   337  ASP337     -0.1225
    128  CA         8.3940   -9.9840  -11.8890 C.3   337  ASP337      0.1805
    129  C          6.8960  -10.2010  -11.7060 C.2   337  ASP337      0.2597
    130  O          6.3830  -10.5300  -10.6090 O.2   337  ASP337     -0.2718
    131  CB         9.0540  -11.1050  -12.7000 C.3   337  ASP337      0.1424
    132  CG         8.8350  -11.0150  -14.2080 C.2   337  ASP337      0.3668
    133  OD1        8.1110  -10.0800  -14.6760 O.co2 337  ASP337     -0.2456
    134  OD2        9.3800  -11.8850  -14.9070 O.co2 337  ASP337     -0.2456
    135  N          6.1710  -10.0100  -12.8050 N.am  338  PHE338     -0.1976
    136  CA         4.7120  -10.1490  -12.8470 C.3   338  PHE338      0.1639
    137  C          4.0630   -9.2450  -11.7850 C.2   338  PHE338      0.2290
    138  O          3.0080   -9.5770  -11.2280 O.2   338  PHE338     -0.2864
    139  CB         4.2990  -11.6210  -12.7240 C.3   338  PHE338      0.0560
    140  CG         4.6870  -12.4810  -13.8930 C.ar  338  PHE338     -0.0200
    141  CD1        5.9980  -12.8930  -14.0640 C.ar  338  PHE338     -0.0042
    142  CD2        3.7690  -12.7680  -14.8900 C.ar  338  PHE338     -0.0042
    143  CE1        6.3700  -13.6520  -15.1610 C.ar  338  PHE338     -0.0003
    144  CE2        4.1490  -13.5040  -16.0020 C.ar  338  PHE338     -0.0003
    145  CZ         5.4450  -13.9490  -16.1370 C.ar  338  PHE338     -0.0000
    146  N          9.8330   -5.9120  -13.1170 N.3   378  CYS378     -0.1235
    147  CA         9.4930   -6.5160  -14.3750 C.3   378  CYS378      0.1677
    148  C          8.0070   -6.8860  -14.3610 C.2   378  CYS378      0.2270
    149  O          7.4210   -7.0900  -13.2710 O.2   378  CYS378     -0.2867
    150  CB        10.3740   -7.7370  -14.6040 C.3   378  CYS378      0.0956
    151  SG        10.2640   -8.4510  -16.2700 S.3   378  CYS378     -0.0801
    152  N         12.5200   -3.1570  -16.1360 N.3   393  ARG393     -0.1245
    153  CA        12.2400   -3.6590  -17.4880 C.3   393  ARG393      0.1563
    154  C         11.1640   -2.7520  -18.1060 C.2   393  ARG393      0.2260
    155  O         10.0640   -2.5770  -17.5250 O.2   393  ARG393     -0.2867
    156  CB        11.8030   -5.1300  -17.4040 C.3   393  ARG393      0.0307
    157  CG        12.9380   -6.1510  -17.3150 C.3   393  ARG393      0.0489
    158  CD        13.6550   -6.3900  -18.6320 C.3   393  ARG393      0.2205
    159  NE        12.7240   -6.8380  -19.6570 N.pl3 393  ARG393     -0.0865
    160  CZ        12.0570   -7.9850  -19.6160 C.cat 393  ARG393      0.5346
    161  NH1       12.5220   -8.9810  -18.8750 N.pl3 393  ARG393      0.1354
    162  NH2       10.9410   -8.1200  -20.3200 N.pl3 393  ARG393      0.1354
    163  N          9.5410   -9.0690  -23.4080 N.3   397  ALA397     -0.1245
    164  CA        10.6530   -9.9770  -23.4480 C.3   397  ALA397      0.1562
    165  C         11.3230   -9.9250  -24.8270 C.2   397  ALA397      0.2260
    166  O         10.6630   -9.9210  -25.8680 O.2   397  ALA397     -0.2867
    167  CB        10.1820  -11.3750  -23.1240 C.3   397  ALA397      0.0290
    168  N          3.0090   -7.6580  -27.2290 N.3   410  GLY410     -0.1210
    169  CA         3.6330   -8.0180  -25.9400 C.3   410  GLY410      0.1956
    170  C          4.2310   -9.4250  -25.9170 C.2   410  GLY410      0.2612
    171  O          4.7540   -9.8700  -24.8680 O.2   410  GLY410     -0.2717
    172  N          4.1530  -10.1410  -27.0440 N.am  411  ALA411     -0.1966
    173  CA         4.7980  -11.4380  -27.2120 C.3   411  ALA411      0.1713
    174  C          6.3080  -11.2540  -27.3960 C.2   411  ALA411      0.2458
    175  O          6.7760  -10.2810  -28.0010 O.2   411  ALA411     -0.2730
    176  CB         4.2090  -12.1680  -28.3950 C.3   411  ALA411      0.0333
    177  N          7.1260  -12.2100  -26.9190 N.am  412  PRO412     -0.2727
    178  CA         8.5740  -12.0780  -27.0230 C.3   412  PRO412      0.1402
    179  C          9.0590  -11.9210  -28.4710 C.2   412  PRO412      0.2269
    180  O          8.6040  -12.6470  -29.3920 O.2   412  PRO412     -0.2865
    181  CB         9.1190  -13.3710  -26.3830 C.3   412  PRO412      0.0296
    182  CG         8.0040  -13.8350  -25.4650 C.3   412  PRO412      0.0237
    183  CD         6.7230  -13.3940  -26.1460 C.3   412  PRO412      0.0939
@<TRIPOS>BOND
     1   180   179    2
     2   179   178    1
     3   176   173    1
     4   175   174    2
     5   174   173    1
     6   174   177   am
     7   168   169    1
     8   173   172    1
     9   172   170   am
    10   178   177    1
    11   178   181    1
    12   177   183    1
    13   181   182    1
    14   183   182    1
    15   169   170    1
    16   170   171    2
    17   166   165    2
    18   165   164    1
    19    46    45    2
    20    65    64   ar
    21    65    63   ar
    22    64    62   ar
    23    63    61   ar
    24     4     3    2
    25    62    60   ar
    26   164   163    1
    27   164   167    1
    28    45    44    1
    29    49    51   ar
    30    49    48   ar
    31    47    44    1
    32    47    48    1
    33    51    53   ar
    34    44    43    1
    35    48    50   ar
    36    61    60   ar
    37    60    59    1
    38     3     2    1
    39    21    23   ar
    40    21    20   ar
    41    53    54    1
    42    53    52   ar
    43    23    24   ar
    44    50    52   ar
    45     2     5    1
    46     2     1    1
    47    59    56    1
    48    43    31   am
    49     5     6    1
    50    32    31    2
    51    20    19    1
    52    20    22   ar
    53    19    16    1
    54    37    35   ar
    55    37    38   ar
    56    24    22   ar
    57    24    26   ar
    58    31    30    1
    59    55    56    1
    60    35    34   ar
    61   162   160    1
    62    18    17    2
    63    56    57    1
    64     6     7   ar
    65     6     8   ar
    66    22    25   ar
    67    15    16    1
    68    26    28   ar
    69     7     9   ar
    70    17    16    1
    71    38    40   ar
    72    38    36   ar
    73    40    42   ar
    74   159   160    2
    75   159   158    1
    76   160   161    1
    77    34    36   ar
    78    34    33    1
    79     8    11   ar
    80     8    10   ar
    81    25    27   ar
    82    30    33    1
    83    30    29    1
    84    11    13   ar
    85    36    39   ar
    86    28    27   ar
    87    57    58    2
    88     9    10   ar
    89    42    41   ar
    90   158   157    1
    91   102   101    2
    92    10    12   ar
    93   154   155    2
    94   154   153    1
    95    13    14   ar
    96    39    41   ar
    97   101   103   am
    98   101   100    1
    99   153   156    1
   100   153   152    1
   101    12    14   ar
   102   156   157    1
   103   104   105    1
   104   104    98   am
   105    97   100    1
   106    97    98    1
   107    97    96    1
   108   106   105    1
   109   106   107    2
   110   105   108    1
   111    98    99    2
   112   126   125    1
   113   151   150    1
   114   145   144   ar
   115   145   143   ar
   116   144   142   ar
   117   110   112   ar
   118   110   109   ar
   119    72    71   ar
   120   108   109    1
   121   112   113   ar
   122   109   111   ar
   123   125   124    1
   124    71    73   ar
   125    71    70    1
   126   143   141   ar
   127    77    76    2
   128    81    79   ar
   129    70    67    1
   130   134   132   ar
   131   142   140   ar
   132   113   111   ar
   133   113   115   ar
   134   133   132   ar
   135   111   114   ar
   136   150   147    1
   137   147   148    1
   138   147   146    1
   139   148   149    2
   140   132   131    1
   141    78    79    1
   142    78    75    1
   143   115   117   ar
   144    79    80   ar
   145   124   123    1
   146   114   116   ar
   147   141   140   ar
   148    76    75    1
   149   140   139    1
   150    74    75    1
   151    74    68   am
   152   117   116   ar
   153    67    68    1
   154    67    66    1
   155    90    88   ar
   156    90    91   ar
   157    68    69    2
   158    88    87   ar
   159    93    91   ar
   160    93    95   ar
   161   136   135    1
   162   136   139    1
   163   136   137    1
   164   123   122    1
   165   135   129   am
   166    91    89   ar
   167   131   128    1
   168    95    94   ar
   169    87    89   ar
   170    87    86    1
   171    89    92   ar
   172   128   129    1
   173   128   127    1
   174   137   138    2
   175   129   130    2
   176   122   119    1
   177    86    83    1
   178    94    92   ar
   179   119   120    1
   180   119   118    1
   181    83    82    1
   182    83    84    1
   183   120   121    2
   184    84    85    2
