@<TRIPOS>MOLECULE
tmp/6gwrA00.pdb
 230 218 0 0 0
SMALL
GASTEIGER

@<TRIPOS>ATOM
      1  N        -10.3750    7.6730   10.6810 N.3    17  LEU17      -0.1245
      2  CA        -9.8430    8.8820   11.2940 C.3    17  LEU17       0.1561
      3  C        -10.8360   10.0350   11.2930 C.2    17  LEU17       0.2260
      4  O        -10.7650   10.9020   12.1730 O.2    17  LEU17      -0.2867
      5  CB        -8.5620    9.3160   10.5750 C.3    17  LEU17       0.0270
      6  CG        -7.3750    8.3580   10.6780 C.3    17  LEU17       0.0019
      7  CD1       -6.2190    8.8640    9.8350 C.3    17  LEU17       0.0001
      8  CD2       -6.9520    8.1820   12.1290 C.3    17  LEU17       0.0001
      9  N        -12.1890    9.4970    5.9690 N.3    25  VAL25      -0.1245
     10  CA       -10.7320    9.3810    6.0070 C.3    25  VAL25       0.1561
     11  C        -10.3780    8.1710    6.8580 C.2    25  VAL25       0.2260
     12  O        -10.8390    8.0520    7.9980 O.2    25  VAL25      -0.2867
     13  CB       -10.0580   10.6490    6.5650 C.3    25  VAL25       0.0252
     14  CG1       -8.5500   10.4430    6.6810 C.3    25  VAL25       0.0019
     15  CG2      -10.3550   11.8430    5.6820 C.3    25  VAL25       0.0019
     16  N         -2.5510    7.5680    5.2370 N.3    50  ALA50      -0.1231
     17  CA        -3.8760    8.1550    5.3490 C.3    50  ALA50       0.1694
     18  C         -4.5670    8.0950    3.9950 C.2    50  ALA50       0.2592
     19  O         -3.9470    8.3510    2.9590 O.2    50  ALA50      -0.2718
     20  CB        -3.7990    9.6010    5.8390 C.3    50  ALA50       0.0304
     21  N         -5.8510    7.7460    4.0070 N.am   51  VAL51      -0.1966
     22  CA        -6.6260    7.5570    2.7870 C.3    51  VAL51       0.1727
     23  C         -7.9060    8.3700    2.9030 C.2    51  VAL51       0.2616
     24  O         -8.7250    8.1170    3.7950 O.2    51  VAL51      -0.2715
     25  CB        -6.9510    6.0730    2.5380 C.3    51  VAL51       0.0290
     26  CG1       -7.6180    5.8930    1.1800 C.3    51  VAL51       0.0023
     27  CG2       -5.6960    5.2210    2.6360 C.3    51  VAL51       0.0023
     28  N         -8.0800    9.3420    2.0100 N.am   52  LYS52      -0.1977
     29  CA        -9.3440   10.0530    1.8750 C.3    52  LYS52       0.1596
     30  C        -10.1670    9.3500    0.8040 C.2    52  LYS52       0.2287
     31  O         -9.7310    9.2380   -0.3470 O.2    52  LYS52      -0.2864
     32  CB        -9.1330   11.5250    1.5200 C.3    52  LYS52       0.0298
     33  CG       -10.4250   12.3400    1.5480 C.3    52  LYS52       0.0038
     34  CD       -10.1660   13.8340    1.6590 C.3    52  LYS52       0.0206
     35  CE        -9.5820   14.4010    0.3790 C.3    52  LYS52       0.1093
     36  NZ        -9.5300   15.8900    0.4380 N.3    52  LYS52      -0.1314
     37  N        -13.0180   18.9370   -7.8390 N.3    65  ASP65      -0.1239
     38  CA       -12.1270   19.4570   -6.8060 C.3    65  ASP65       0.1674
     39  C        -11.1690   18.3820   -6.3140 C.2    65  ASP65       0.2266
     40  O        -10.0000   18.6650   -6.0210 O.2    65  ASP65      -0.2867
     41  CB       -12.9360   20.0180   -5.6380 C.3    65  ASP65       0.1410
     42  CG       -13.7950   21.1990   -6.0370 C.2    65  ASP65       0.3668
     43  OD1      -15.0240   21.1380   -5.8240 O.co2  65  ASP65      -0.2456
     44  OD2      -13.2400   22.1840   -6.5720 O.co2  65  ASP65      -0.2456
     45  N         -7.0930   18.7120   -6.5360 N.3    69  GLU69      -0.1245
     46  CA        -6.2250   18.5750   -5.3710 C.3    69  GLU69       0.1567
     47  C         -5.1170   17.5610   -5.6270 C.2    69  GLU69       0.2260
     48  O         -3.9600   17.7950   -5.2600 O.2    69  GLU69      -0.2867
     49  CB        -7.0450   18.1860   -4.1380 C.3    69  GLU69       0.0388
     50  CG        -6.2710   18.3180   -2.8330 C.3    69  GLU69       0.1160
     51  CD        -7.0860   17.9320   -1.6160 C.2    69  GLU69       0.3649
     52  OE1       -8.2730   17.5770   -1.7750 O.co2  69  GLU69      -0.2457
     53  OE2       -6.5370   17.9820   -0.4950 O.co2  69  GLU69      -0.2457
     54  N         -2.3950   19.2540   -7.7260 N.3    72  ILE72      -0.1231
     55  CA        -1.5540   20.1350   -6.9190 C.3    72  ILE72       0.1692
     56  C         -0.5810   19.3200   -6.0760 C.2    72  ILE72       0.2591
     57  O          0.6230   19.6020   -6.0320 O.2    72  ILE72      -0.2718
     58  CB        -2.4270   21.0480   -6.0400 C.3    72  ILE72       0.0266
     59  CG1       -3.2600   21.9820   -6.9150 C.3    72  ILE72       0.0019
     60  CG2       -1.5600   21.8370   -5.0750 C.3    72  ILE72       0.0020
     61  CD1       -4.3610   22.7010   -6.1640 C.3    72  ILE72       0.0001
     62  N         -1.0900   18.2850   -5.4060 N.am   73  MET73      -0.1979
     63  CA        -0.2610   17.5110   -4.4910 C.3    73  MET73       0.1605
     64  C          0.7960   16.6920   -5.2260 C.2    73  MET73       0.2287
     65  O          1.8680   16.4320   -4.6690 O.2    73  MET73      -0.2864
     66  CB        -1.1430   16.5940   -3.6440 C.3    73  MET73       0.0413
     67  CG        -2.1180   17.3310   -2.7420 C.3    73  MET73       0.0598
     68  SD        -3.1070   16.2100   -1.7320 S.3    73  MET73      -0.1393
     69  CE        -1.8630   15.5650   -0.6160 C.3    73  MET73       0.0692
     70  N          4.5710   17.8550   -5.2400 N.3    76  LEU76      -0.1245
     71  CA         5.2190   18.2060   -3.9810 C.3    76  LEU76       0.1561
     72  C          5.9690   16.9900   -3.4450 C.2    76  LEU76       0.2260
     73  O          5.3510   16.0120   -3.0110 O.2    76  LEU76      -0.2867
     74  CB         4.1860   18.7100   -2.9760 C.3    76  LEU76       0.0270
     75  CG         3.2650   19.8070   -3.5150 C.3    76  LEU76       0.0019
     76  CD1        2.3180   20.2890   -2.4300 C.3    76  LEU76       0.0001
     77  CD2        4.0640   20.9630   -4.0970 C.3    76  LEU76       0.0001
     78  N          7.1420   18.3580    3.5070 N.3    81  ILE81      -0.1231
     79  CA         5.8470   18.5580    2.8700 C.3    81  ILE81       0.1692
     80  C          5.1500   17.2050    2.8230 C.2    81  ILE81       0.2591
     81  O          5.8020   16.1730    2.6280 O.2    81  ILE81      -0.2718
     82  CB         6.0040   19.1420    1.4480 C.3    81  ILE81       0.0266
     83  CG1        6.8380   20.4240    1.4850 C.3    81  ILE81       0.0019
     84  CG2        4.6450   19.3880    0.8040 C.3    81  ILE81       0.0020
     85  CD1        6.1580   21.5880    2.1740 C.3    81  ILE81       0.0001
     86  N          3.8290   17.2030    3.0200 N.am   82  ILE82      -0.1980
     87  CA         3.0870   15.9550    2.9370 C.3    82  ILE82       0.1595
     88  C          3.1910   15.3980    1.5170 C.2    82  ILE82       0.2287
     89  O          3.2800   16.1440    0.5340 O.2    82  ILE82      -0.2864
     90  CB         1.6210   16.1490    3.3630 C.3    82  ILE82       0.0276
     91  CG1        0.9300   14.7930    3.5280 C.3    82  ILE82       0.0022
     92  CG2        0.8730   17.0300    2.3690 C.3    82  ILE82       0.0022
     93  CD1       -0.4600   14.8920    4.0650 C.3    82  ILE82       0.0001
     94  N         -7.4860    9.0760   -2.4510 N.3    96  MET96      -0.1245
     95  CA        -6.1370    9.6230   -2.4700 C.3    96  MET96       0.1570
     96  C         -5.4190    9.1880   -1.2010 C.2    96  MET96       0.2261
     97  O         -6.0420    8.9940   -0.1540 O.2    96  MET96      -0.2867
     98  CB        -6.1250   11.1600   -2.6180 C.3    96  MET96       0.0387
     99  CG        -6.4400   11.9470   -1.3680 C.3    96  MET96       0.0595
    100  SD        -6.1470   13.7080   -1.6090 S.3    96  MET96      -0.1393
    101  CE        -7.4390   14.1170   -2.7800 C.3    96  MET96       0.0692
    102  N         -1.8970    9.5640    1.2660 N.3    98  THR98      -0.1203
    103  CA        -0.7170   10.2820    1.7130 C.3    98  THR98       0.1994
    104  C         -0.0040    9.4820    2.7930 C.2    98  THR98       0.2618
    105  O         -0.5420    8.5150    3.3390 O.2    98  THR98      -0.2717
    106  CB        -1.0770   11.6640    2.2710 C.3    98  THR98       0.1784
    107  OG1       -1.8580   11.5070    3.4630 O.3    98  THR98      -0.2211
    108  CG2       -1.8690   12.4580    1.2570 C.3    98  THR98       0.0376
    109  N          1.2210    9.8980    3.0930 N.am   99  ASP99      -0.1959
    110  CA         1.9070    9.3780    4.2640 C.3    99  ASP99       0.1840
    111  C          1.1770    9.8140    5.5340 C.2    99  ASP99       0.2622
    112  O          0.3940   10.7680    5.5410 O.2    99  ASP99      -0.2715
    113  CB         3.3630    9.8460    4.2780 C.3    99  ASP99       0.1450
    114  CG         3.5170   11.2960    3.8560 C.2    99  ASP99       0.3671
    115  OD1        4.6470   11.8250    3.9360 O.co2  99  ASP99      -0.2456
    116  OD2        2.5060   11.9040    3.4420 O.co2  99  ASP99      -0.2456
    117  N          1.4370    9.0910    6.6170 N.am  100  TYR100     -0.1960
    118  CA         0.7360    9.2830    7.8780 C.3   100  TYR100      0.1771
    119  C          1.6720    9.8910    8.9140 C.2   100  TYR100      0.2619
    120  O          2.8240    9.4660    9.0500 O.2   100  TYR100     -0.2715
    121  CB         0.1710    7.9510    8.3840 C.3   100  TYR100      0.0574
    122  CG        -0.6510    8.0480    9.6500 C.ar  100  TYR100     -0.0198
    123  CD1       -1.8760    8.7030    9.6620 C.ar  100  TYR100     -0.0009
    124  CD2       -0.2130    7.4580   10.8280 C.ar  100  TYR100     -0.0009
    125  CE1       -2.6340    8.7850   10.8200 C.ar  100  TYR100      0.0417
    126  CE2       -0.9630    7.5320   11.9840 C.ar  100  TYR100      0.0417
    127  CZ        -2.1700    8.1940   11.9760 C.ar  100  TYR100      0.1957
    128  OH        -2.9050    8.2640   13.1370 O.3   100  TYR100     -0.2866
    129  N          1.1690   10.8890    9.6400 N.am  101  MET101     -0.1963
    130  CA         1.9000   11.5510   10.7170 C.3   101  MET101      0.1736
    131  C          1.1650   11.2570   12.0200 C.2   101  MET101      0.2616
    132  O          0.0740   11.7860   12.2590 O.2   101  MET101     -0.2715
    133  CB         2.0120   13.0530   10.4610 C.3   101  MET101      0.0427
    134  CG         2.3030   13.4090    9.0150 C.3   101  MET101      0.0599
    135  SD         3.7300   12.5580    8.3260 S.3   101  MET101     -0.1393
    136  CE         5.0160   13.0830    9.4520 C.3   101  MET101      0.0692
    137  N          1.7710   10.4160   12.8620 N.am  102  GLU102     -0.1977
    138  CA         1.0560    9.7940   13.9730 C.3   102  GLU102      0.1602
    139  C          0.5660   10.7810   15.0260 C.2   102  GLU102      0.2287
    140  O         -0.3790   10.4610   15.7540 O.2   102  GLU102     -0.2864
    141  CB         1.9410    8.7490   14.6510 C.3   102  GLU102      0.0415
    142  CG         1.8890    7.3750   14.0120 C.3   102  GLU102      0.1163
    143  CD         2.3430    6.2850   14.9530 C.2   102  GLU102      0.3649
    144  OE1        3.3670    6.4970   15.6440 O.co2 102  GLU102     -0.2457
    145  OE2        1.6700    5.2340   15.0100 O.co2 102  GLU102     -0.2457
    146  N         -0.7400   13.8620   14.6700 N.3   104  GLY104     -0.1210
    147  CA        -1.7700   14.8070   14.2800 C.3   104  GLY104      0.1956
    148  C         -1.2050   16.1730   13.9370 C.2   104  GLY104      0.2611
    149  O         -0.0050   16.3430   13.7020 O.2   104  GLY104     -0.2717
    150  N         -2.0880   17.1680   13.9130 N.am  105  ASP105     -0.1973
    151  CA        -1.6200   18.4810   13.5040 C.3   105  ASP105      0.1709
    152  C         -0.8360   19.1460   14.6320 C.2   105  ASP105      0.2293
    153  O         -0.9920   18.8240   15.8150 O.2   105  ASP105     -0.2864
    154  CB        -2.7790   19.3710   13.0220 C.3   105  ASP105      0.1436
    155  CG        -3.6480   19.9110   14.1500 C.2   105  ASP105      0.3671
    156  OD1       -3.1350   20.6190   15.0410 O.co2 105  ASP105     -0.2456
    157  OD2       -4.8750   19.6740   14.1110 O.co2 105  ASP105     -0.2456
    158  N          8.7950   24.9770   -1.1420 N.3   145  LEU145     -0.1245
    159  CA         7.6530   25.4910   -1.8890 C.3   145  LEU145      0.1561
    160  C          8.0230   26.7630   -2.6420 C.2   145  LEU145      0.2260
    161  O          7.5900   26.9690   -3.7820 O.2   145  LEU145     -0.2867
    162  CB         6.4740   25.7440   -0.9510 C.3   145  LEU145      0.0270
    163  CG         5.7940   24.5400   -0.2900 C.3   145  LEU145      0.0019
    164  CD1        4.5790   25.0030    0.5030 C.3   145  LEU145      0.0001
    165  CD2        5.3850   23.5010   -1.3180 C.3   145  LEU145      0.0001
    166  N          5.4040   28.1690   -5.4890 N.3   150  PHE150     -0.1241
    167  CA         4.1590   27.6880   -4.9100 C.3   150  PHE150      0.1605
    168  C          3.8510   28.5090   -3.6620 C.2   150  PHE150      0.2264
    169  O          4.6360   28.5090   -2.7040 O.2   150  PHE150     -0.2867
    170  CB         4.2600   26.2010   -4.5680 C.3   150  PHE150      0.0534
    171  CG         2.9500   25.5810   -4.1700 C.ar  150  PHE150     -0.0203
    172  CD1        2.5110   25.6420   -2.8600 C.ar  150  PHE150     -0.0042
    173  CD2        2.1600   24.9350   -5.1050 C.ar  150  PHE150     -0.0042
    174  CE1        1.3080   25.0780   -2.4860 C.ar  150  PHE150     -0.0003
    175  CE2        0.9540   24.3660   -4.7400 C.ar  150  PHE150     -0.0003
    176  CZ         0.5260   24.4370   -3.4280 C.ar  150  PHE150     -0.0000
    177  N          1.5460   28.9140   -0.5120 N.3   152  HIS152     -0.1241
    178  CA         0.6880   28.0250    0.2680 C.3   152  HIS152      0.1621
    179  C         -0.6710   28.6590    0.5430 C.2   152  HIS152      0.2264
    180  O         -1.7150   28.0300    0.3350 O.2   152  HIS152     -0.2867
    181  CB         1.3750   27.6440    1.5770 C.3   152  HIS152      0.0745
    182  CG         0.6440   26.5950    2.3520 C.ar  152  HIS152      0.0817
    183  ND1       -0.5350   26.8460    3.0190 N.ar  152  HIS152     -0.2268
    184  CD2        0.9210   25.2860    2.5560 C.ar  152  HIS152      0.1154
    185  CE1       -0.9490   25.7370    3.6060 C.ar  152  HIS152      0.1986
    186  NE2       -0.0860   24.7750    3.3370 N.ar  152  HIS152     -0.2212
    187  N          1.7080   18.9010   10.2470 N.3   161  LEU161     -0.1245
    188  CA         1.5110   17.5800   10.8170 C.3   161  LEU161      0.1561
    189  C          2.7910   17.1040   11.4930 C.2   161  LEU161      0.2260
    190  O          3.9010   17.4420   11.0700 O.2   161  LEU161     -0.2867
    191  CB         1.0800   16.5800    9.7420 C.3   161  LEU161      0.0270
    192  CG        -0.3100   16.7850    9.1380 C.3   161  LEU161      0.0019
    193  CD1       -0.5200   15.8500    7.9540 C.3   161  LEU161      0.0001
    194  CD2       -1.3760   16.5510   10.1940 C.3   161  LEU161      0.0001
    195  N          4.2790   19.9710    6.1990 N.3   170  ILE170     -0.1231
    196  CA         3.2690   20.9860    5.9240 C.3   170  ILE170      0.1692
    197  C          2.1660   20.3790    5.0680 C.2   170  ILE170      0.2592
    198  O          2.4330   19.6350    4.1180 O.2   170  ILE170     -0.2718
    199  CB         3.9150   22.2030    5.2340 C.3   170  ILE170      0.0266
    200  CG1        4.9490   22.8460    6.1580 C.3   170  ILE170      0.0019
    201  CG2        2.8640   23.2280    4.8290 C.3   170  ILE170      0.0020
    202  CD1        5.7700   23.9280    5.4910 C.3   170  ILE170      0.0001
    203  N          0.9160   20.6790    5.4140 N.am  171  ALA171     -0.1966
    204  CA        -0.2370   20.1780    4.6770 C.3   171  ALA171      0.1728
    205  C         -1.2050   21.3350    4.4460 C.2   171  ALA171      0.2616
    206  O         -0.8770   22.5010    4.6820 O.2   171  ALA171     -0.2715
    207  CB        -0.8930   19.0090    5.4270 C.3   171  ALA171      0.0334
    208  N         -2.4050   21.0060    3.9680 N.am  172  ASP172     -0.1957
    209  CA        -3.4650   21.9980    3.7980 C.3   172  ASP172      0.1840
    210  C         -4.7900   21.2520    3.8100 C.2   172  ASP172      0.2622
    211  O         -5.1370   20.5890    2.8280 O.2   172  ASP172     -0.2715
    212  CB        -3.2880   22.7870    2.5060 C.3   172  ASP172      0.1450
    213  CG        -4.2440   23.9680    2.4010 C.2   172  ASP172      0.3671
    214  OD1       -5.2080   24.0450    3.1970 O.co2 172  ASP172     -0.2456
    215  OD2       -4.0230   24.8270    1.5190 O.co2 172  ASP172     -0.2456
    216  N         -5.5300   21.3810    4.9050 N.am  173  PHE173     -0.1960
    217  CA        -6.7700   20.6450    5.0960 C.3   173  PHE173      0.1771
    218  C         -8.0050   21.4240    4.6620 C.2   173  PHE173      0.2620
    219  O         -9.1240   20.9410    4.8610 O.2   173  PHE173     -0.2715
    220  CB        -6.8990   20.2260    6.5600 C.3   173  PHE173      0.0574
    221  CG        -5.8990   19.1880    6.9780 C.ar  173  PHE173     -0.0200
    222  CD1       -4.6770   19.5540    7.5220 C.ar  173  PHE173     -0.0042
    223  CD2       -6.1770   17.8430    6.8120 C.ar  173  PHE173     -0.0042
    224  CE1       -3.7550   18.5930    7.8960 C.ar  173  PHE173     -0.0003
    225  CE2       -5.2630   16.8810    7.1870 C.ar  173  PHE173     -0.0003
    226  CZ        -4.0530   17.2540    7.7320 C.ar  173  PHE173     -0.0000
    227  N         -7.8310   22.6040    4.0650 N.am  174  GLY174     -0.1954
    228  CA        -8.9770   23.3680    3.5960 C.3   174  GLY174      0.1869
    229  C         -9.8710   23.7870    4.7490 C.2   174  GLY174      0.2309
    230  O         -9.4020   24.1920    5.8170 O.2   174  GLY174     -0.2863
@<TRIPOS>BOND
     1    37    38    1
     2    54    55    1
     3    55    56    1
     4    55    58    1
     5    59    61    1
     6    59    58    1
     7    38    39    1
     8    38    41    1
     9    44    42   ar
    10    45    46    1
    11    39    40    2
    12    56    57    2
    13    56    62   am
    14    58    60    1
    15    42    43   ar
    16    42    41    1
    17    47    46    1
    18    47    48    2
    19   166   167    1
    20    62    63    1
    21    46    49    1
    22    70    71    1
    23    64    65    2
    24    64    63    1
    25   173   175   ar
    26   173   171   ar
    27   167   170    1
    28   167   168    1
    29   175   176   ar
    30   170   171    1
    31    63    66    1
    32   171   172   ar
    33    49    50    1
    34    77    75    1
    35    71    72    1
    36    71    74    1
    37   161   160    2
    38   168   169    2
    39    66    67    1
    40    75    74    1
    41    75    76    1
    42    72    73    2
    43   176   174   ar
    44   172   174   ar
    45    50    51    1
    46   101   100    1
    47    67    68    1
    48   160   159    1
    49    98    95    1
    50    98    99    1
    51    95    94    1
    52    95    96    1
    53   159   158    1
    54   159   162    1
    55    52    51   ar
    56    68    69    1
    57    51    53   ar
    58   100    99    1
    59   165   163    1
    60    96    97    2
    61   162   163    1
    62   177   178    1
    63    31    30    2
    64   163   164    1
    65   178   179    1
    66   178   181    1
    67   180   179    2
    68    35    36    1
    69    35    34    1
    70    89    88    2
    71    84    82    1
    72    30    29    1
    73    26    25    1
    74   108   106    1
    75   102   103    1
    76    82    83    1
    77    82    79    1
    78    83    85    1
    79    88    87    1
    80   215   213   ar
    81    32    33    1
    82    32    29    1
    83    33    34    1
    84   181   182    1
    85   103   106    1
    86   103   104    1
    87    29    28    1
    88    28    23   am
    89   106   107    1
    90   182   184   ar
    91   182   183   ar
    92    92    90    1
    93   213   212    1
    94   213   214   ar
    95   212   209    1
    96    25    27    1
    97    25    22    1
    98   184   186   ar
    99    81    80    2
   100    22    23    1
   101    22    21    1
   102   104   109   am
   103   104   105    2
   104    80    79    1
   105    80    86   am
   106   211   210    2
   107    79    78    1
   108    23    24    2
   109    87    86    1
   110    87    90    1
   111    19    18    2
   112   183   185   ar
   113   109   110    1
   114   186   185   ar
   115    90    91    1
   116   116   114   ar
   117    91    93    1
   118   228   227    1
   119   228   229    1
   120   209   210    1
   121   209   208    1
   122   210   216   am
   123   114   115   ar
   124   114   113    1
   125   208   205   am
   126    18    21   am
   127    18    17    1
   128   227   218   am
   129   198   197    2
   130   110   113    1
   131   110   111    1
   132   205   204    1
   133   205   206    2
   134   218   219    2
   135   218   217    1
   136   204   203    1
   137   204   207    1
   138   229   230    2
   139   201   199    1
   140   216   217    1
   141   197   203   am
   142   197   196    1
   143   217   220    1
   144   199   196    1
   145   199   200    1
   146    16    17    1
   147    17    20    1
   148   202   200    1
   149   111   112    2
   150   111   117   am
   151    15    13    1
   152   196   195    1
   153     9    10    1
   154    10    13    1
   155    10    11    1
   156   220   221    1
   157    13    14    1
   158   117   118    1
   159   223   221   ar
   160   223   225   ar
   161    11    12    2
   162   221   222   ar
   163   225   226   ar
   164   222   224   ar
   165   226   224   ar
   166   118   121    1
   167   118   119    1
   168   193   192    1
   169   135   134    1
   170   135   136    1
   171   121   122    1
   172   119   120    2
   173   119   129   am
   174   134   133    1
   175   192   191    1
   176   192   194    1
   177   129   130    1
   178   122   123   ar
   179   122   124   ar
   180   123   125   ar
   181   191   188    1
   182     7     6    1
   183   187   188    1
   184   133   130    1
   185     5     6    1
   186     5     2    1
   187     6     8    1
   188     1     2    1
   189   130   131    1
   190   188   189    1
   191   125   127   ar
   192   124   126   ar
   193   190   189    2
   194     3     2    1
   195     3     4    2
   196   127   126   ar
   197   127   128    1
   198   131   132    2
   199   131   137   am
   200   137   138    1
   201   154   151    1
   202   154   155    1
   203   151   150    1
   204   151   152    1
   205   149   148    2
   206   150   148   am
   207   148   147    1
   208   138   141    1
   209   138   139    1
   210   142   141    1
   211   142   143    1
   212   157   155   ar
   213   155   156   ar
   214   147   146    1
   215   152   153    2
   216   143   145   ar
   217   143   144   ar
   218   139   140    2
