@<TRIPOS>MOLECULE
tmp/6gx3A00.pdb
 95 91 0 0 0
SMALL
GASTEIGER

@<TRIPOS>ATOM
      1  N         44.2060   41.1190   78.5360 N.3    98  ASP98      -0.1239
      2  CA        45.0120   40.4470   79.5650 C.3    98  ASP98       0.1674
      3  C         46.4800   40.2980   79.1720 C.2    98  ASP98       0.2266
      4  O         47.3430   40.1110   80.0260 O.2    98  ASP98      -0.2867
      5  CB        44.4430   39.0630   79.8880 C.3    98  ASP98       0.1410
      6  CG        43.2700   39.1240   80.8450 C.2    98  ASP98       0.3668
      7  OD1       43.1530   40.1290   81.5850 O.co2  98  ASP98      -0.2456
      8  OD2       42.4720   38.1620   80.8580 O.co2  98  ASP98      -0.2456
      9  N         52.0360   28.3170   81.1350 N.3   139  HIS139     -0.1226
     10  CA        51.3690   27.1850   80.5170 C.3   139  HIS139      0.1752
     11  C         50.1700   27.5290   79.6290 C.2   139  HIS139      0.2596
     12  O         49.6130   26.6470   78.9900 O.2   139  HIS139     -0.2718
     13  CB        50.9340   26.1780   81.5980 C.3   139  HIS139      0.0759
     14  CG        50.0110   26.7370   82.6430 C.ar  139  HIS139      0.0818
     15  ND1       49.3500   25.9430   83.5430 N.ar  139  HIS139     -0.2268
     16  CD2       49.6620   28.0170   82.9360 C.ar  139  HIS139      0.1154
     17  CE1       48.6220   26.6960   84.3520 C.ar  139  HIS139      0.1986
     18  NE2       48.7970   27.9580   84.0060 N.ar  139  HIS139     -0.2212
     19  N         49.7760   28.7910   79.5780 N.am  140  HIS140     -0.1975
     20  CA        48.5640   29.1560   78.8370 C.3   140  HIS140      0.1656
     21  C         48.8140   29.4800   77.3620 C.2   140  HIS140      0.2291
     22  O         47.8860   29.4520   76.5640 O.2   140  HIS140     -0.2864
     23  CB        47.8770   30.3550   79.5010 C.3   140  HIS140      0.0771
     24  CG        47.2360   30.0310   80.8110 C.ar  140  HIS140      0.0820
     25  ND1       46.3930   28.9500   80.9800 N.ar  140  HIS140     -0.2267
     26  CD2       47.3240   30.6320   82.0200 C.ar  140  HIS140      0.1154
     27  CE1       45.9840   28.9090   82.2320 C.ar  140  HIS140      0.1986
     28  NE2       46.5260   29.9210   82.8810 N.ar  140  HIS140     -0.2212
     29  N         46.3940   34.4060   79.2440 N.3   148  GLY148     -0.1225
     30  CA        46.6450   34.3240   80.6800 C.3   148  GLY148      0.1811
     31  C         48.0030   34.8410   81.1350 C.2   148  GLY148      0.2280
     32  O         48.6540   34.2120   81.9570 O.2   148  GLY148     -0.2866
     33  N         49.1420   24.2220   89.0700 N.3   175  ASP175     -0.1239
     34  CA        48.6210   25.5880   89.1110 C.3   175  ASP175      0.1674
     35  C         47.1080   25.5750   89.4210 C.2   175  ASP175      0.2266
     36  O         46.4200   24.5920   89.1650 O.2   175  ASP175     -0.2867
     37  CB        48.9100   26.2910   87.7730 C.3   175  ASP175      0.1410
     38  CG        48.6470   27.7780   87.8190 C.2   175  ASP175      0.3668
     39  OD1       47.4640   28.1810   87.7330 O.co2 175  ASP175     -0.2456
     40  OD2       49.6180   28.5490   87.9220 O.co2 175  ASP175     -0.2456
     41  N         44.9860   27.0970   87.7980 N.3   177  HIS177     -0.1241
     42  CA        44.3080   27.1520   86.4960 C.3   177  HIS177      0.1621
     43  C         44.6350   25.9330   85.6150 C.2   177  HIS177      0.2264
     44  O         45.6910   25.3190   85.7500 O.2   177  HIS177     -0.2867
     45  CB        44.6850   28.4480   85.7810 C.3   177  HIS177      0.0745
     46  CG        44.2240   29.6810   86.4970 C.ar  177  HIS177      0.0817
     47  ND1       44.9900   30.3220   87.4490 N.ar  177  HIS177     -0.2268
     48  CD2       43.0600   30.3670   86.4280 C.ar  177  HIS177      0.1154
     49  CE1       44.3260   31.3600   87.9200 C.ar  177  HIS177      0.1986
     50  NE2       43.1520   31.4120   87.3150 N.ar  177  HIS177     -0.2212
     51  N         38.5730   31.2060   84.3150 N.3   205  PHE205     -0.1241
     52  CA        39.6680   31.0470   83.3510 C.3   205  PHE205      0.1605
     53  C         40.4100   29.7220   83.4840 C.2   205  PHE205      0.2264
     54  O         40.6550   29.2750   84.6070 O.2   205  PHE205     -0.2867
     55  CB        40.6600   32.1950   83.5070 C.3   205  PHE205      0.0534
     56  CG        41.6070   32.3280   82.3600 C.ar  205  PHE205     -0.0203
     57  CD1       41.2630   33.0840   81.2530 C.ar  205  PHE205     -0.0042
     58  CD2       42.8330   31.6820   82.3740 C.ar  205  PHE205     -0.0042
     59  CE1       42.1330   33.2030   80.1740 C.ar  205  PHE205     -0.0003
     60  CE2       43.7100   31.7970   81.3030 C.ar  205  PHE205     -0.0003
     61  CZ        43.3600   32.5600   80.2010 C.ar  205  PHE205     -0.0000
     62  N         49.2610   29.8730   92.9770 N.3   268  ASP268     -0.1239
     63  CA        48.0000   30.5530   93.1870 C.3   268  ASP268      0.1674
     64  C         46.9700   29.6640   93.8750 C.2   268  ASP268      0.2266
     65  O         45.8440   30.0940   94.0910 O.2   268  ASP268     -0.2867
     66  CB        47.4290   31.1180   91.8790 C.3   268  ASP268      0.1410
     67  CG        47.6550   30.2130   90.6540 C.2   268  ASP268      0.3668
     68  OD1       48.1600   29.0800   90.7700 O.co2 268  ASP268     -0.2456
     69  OD2       47.2870   30.6640   89.5530 O.co2 268  ASP268     -0.2456
     70  N         43.3120   35.1980   94.6660 N.3   275  HIS275     -0.1241
     71  CA        42.2080   34.4470   94.0650 C.3   275  HIS275      0.1621
     72  C         41.2530   33.9340   95.1390 C.2   275  HIS275      0.2264
     73  O         40.0330   33.9760   94.9660 O.2   275  HIS275     -0.2867
     74  CB        42.7160   33.2640   93.2350 C.3   275  HIS275      0.0745
     75  CG        43.1420   33.6360   91.8500 C.ar  275  HIS275      0.0817
     76  ND1       44.4550   33.8860   91.5190 N.ar  275  HIS275     -0.2268
     77  CD2       42.4290   33.7930   90.7080 C.ar  275  HIS275      0.1154
     78  CE1       44.5320   34.1970   90.2370 C.ar  275  HIS275      0.1986
     79  NE2       43.3170   34.1470   89.7210 N.ar  275  HIS275     -0.2212
     80  N         51.6540   30.7630   88.1090 N.3   309  GLY309     -0.1225
     81  CA        50.8210   31.7280   88.8010 C.3   309  GLY309      0.1811
     82  C         51.2550   31.8980   90.2470 C.2   309  GLY309      0.2280
     83  O         52.0660   31.1310   90.7470 O.2   309  GLY309     -0.2866
     84  N         50.0330   35.2720   92.9990 N.3   311  TYR311     -0.1241
     85  CA        49.8890   36.7220   92.9710 C.3   311  TYR311      0.1605
     86  C         50.0830   37.3850   94.3360 C.2   311  TYR311      0.2264
     87  O         50.1030   38.6070   94.4400 O.2   311  TYR311     -0.2867
     88  CB        48.5410   37.0590   92.3320 C.3   311  TYR311      0.0534
     89  CG        48.5260   36.4380   90.9630 C.ar  311  TYR311     -0.0201
     90  CD1       49.1240   37.0830   89.8860 C.ar  311  TYR311     -0.0009
     91  CD2       48.0100   35.1560   90.7640 C.ar  311  TYR311     -0.0009
     92  CE1       49.1660   36.4820   88.6290 C.ar  311  TYR311      0.0417
     93  CE2       48.0510   34.5510   89.5140 C.ar  311  TYR311      0.0417
     94  CZ        48.6270   35.2190   88.4550 C.ar  311  TYR311      0.1957
     95  OH        48.6660   34.6130   87.2220 O.3   311  TYR311     -0.2866
@<TRIPOS>BOND
     1    22    21    2
     2    21    20    1
     3     1     2    1
     4    20    23    1
     5    20    19    1
     6    12    11    2
     7     3     2    1
     8     3     4    2
     9    29    30    1
    10    23    24    1
    11     2     5    1
    12    19    11   am
    13    11    10    1
    14     5     6    1
    15    59    61   ar
    16    59    57   ar
    17    61    60   ar
    18    10     9    1
    19    10    13    1
    20    30    31    1
    21    24    25   ar
    22    24    26   ar
    23     6     8   ar
    24     6     7   ar
    25    25    27   ar
    26    31    32    2
    27    57    56   ar
    28    60    58   ar
    29    13    14    1
    30    26    28   ar
    31    27    28   ar
    32    56    58   ar
    33    56    55    1
    34    14    16   ar
    35    14    15   ar
    36    16    18   ar
    37    52    53    1
    38    52    55    1
    39    52    51    1
    40    53    54    2
    41    15    17   ar
    42    18    17   ar
    43    43    44    2
    44    43    42    1
    45    45    42    1
    46    45    46    1
    47    48    46   ar
    48    48    50   ar
    49    42    41    1
    50    46    47   ar
    51    95    94    1
    52    50    49   ar
    53    47    49   ar
    54    39    38   ar
    55    37    38    1
    56    37    34    1
    57    38    40   ar
    58    80    81    1
    59    94    92   ar
    60    94    93   ar
    61    92    90   ar
    62    81    82    1
    63    33    34    1
    64    34    35    1
    65    36    35    2
    66    93    91   ar
    67    69    67   ar
    68    79    78   ar
    69    79    77   ar
    70    90    89   ar
    71    78    76   ar
    72    82    83    2
    73    67    68   ar
    74    67    66    1
    75    77    75   ar
    76    91    89   ar
    77    89    88    1
    78    76    75   ar
    79    75    74    1
    80    66    63    1
    81    88    85    1
    82    85    84    1
    83    85    86    1
    84    62    63    1
    85    63    64    1
    86    74    71    1
    87    64    65    2
    88    71    70    1
    89    71    72    1
    90    86    87    2
    91    73    72    2
