@<TRIPOS>MOLECULE
tmp/6gx8A00.pdb
 145 145 0 0 0
SMALL
GASTEIGER

@<TRIPOS>ATOM
      1  N         -4.5960   20.1720   -5.7600 N.3    74  TRP74      -0.1241
      2  CA        -5.3380   21.4170   -5.7660 C.3    74  TRP74       0.1605
      3  C         -4.6360   22.5070   -4.9490 C.2    74  TRP74       0.2264
      4  O         -5.0440   23.6690   -5.0050 O.2    74  TRP74      -0.2867
      5  CB        -6.7440   21.1880   -5.2100 C.3    74  TRP74       0.0550
      6  CG        -7.5240   20.1650   -5.9780 C.ar   74  TRP74       0.0003
      7  CD1       -7.5620   19.9840   -7.3260 C.ar   74  TRP74       0.0946
      8  CD2       -8.4420   19.2110   -5.4190 C.ar   74  TRP74       0.0152
      9  NE1       -8.4350   18.9730   -7.6480 N.ar   74  TRP74      -0.2442
     10  CE2       -9.0000   18.5010   -6.4940 C.ar   74  TRP74       0.0810
     11  CE3       -8.8190   18.9030   -4.1160 C.ar   74  TRP74       0.0012
     12  CZ2       -9.9410   17.4920   -6.3060 C.ar   74  TRP74       0.0191
     13  CZ3       -9.7080   17.8670   -3.9270 C.ar   74  TRP74       0.0001
     14  CH2      -10.2740   17.2000   -5.0090 C.ar   74  TRP74       0.0015
     15  N        -16.8240   18.4620  -17.5980 N.3   199  TRP199     -0.1227
     16  CA       -17.1040   19.0530  -16.2850 C.3   199  TRP199      0.1737
     17  C        -17.3280   20.5800  -16.3570 C.2   199  TRP199      0.2595
     18  O        -18.2450   21.0800  -15.7460 O.2   199  TRP199     -0.2718
     19  CB       -15.9540   18.7310  -15.3120 C.3   199  TRP199      0.0564
     20  CG       -16.1720   19.3520  -13.9720 C.ar  199  TRP199      0.0003
     21  CD1      -15.5290   20.4390  -13.4610 C.ar  199  TRP199      0.0946
     22  CD2      -17.1690   18.9980  -13.0100 C.ar  199  TRP199      0.0152
     23  NE1      -16.0410   20.7680  -12.2430 N.ar  199  TRP199     -0.2442
     24  CE2      -17.0700   19.9150  -11.9430 C.ar  199  TRP199      0.0810
     25  CE3      -18.1550   18.0080  -12.9520 C.ar  199  TRP199      0.0012
     26  CZ2      -17.8780   19.8380  -10.8150 C.ar  199  TRP199      0.0191
     27  CZ3      -18.9600   17.9340  -11.8330 C.ar  199  TRP199      0.0001
     28  CH2      -18.8700   18.8690  -10.8070 C.ar  199  TRP199      0.0015
     29  N        -16.4190   21.3140  -17.0020 N.am  200  TYR200     -0.1976
     30  CA       -16.3520   22.7560  -16.8370 C.3   200  TYR200      0.1639
     31  C        -17.3790   23.4950  -17.7010 C.2   200  TYR200      0.2290
     32  O        -17.3960   24.7240  -17.7160 O.2   200  TYR200     -0.2864
     33  CB       -14.9440   23.2480  -17.1360 C.3   200  TYR200      0.0560
     34  CG       -13.9460   22.7510  -16.1290 C.ar  200  TYR200     -0.0198
     35  CD1      -13.8260   23.3690  -14.8930 C.ar  200  TYR200     -0.0009
     36  CD2      -13.2390   21.5890  -16.3450 C.ar  200  TYR200     -0.0009
     37  CE1      -12.9770   22.8610  -13.9110 C.ar  200  TYR200      0.0417
     38  CE2      -12.4350   21.0370  -15.3430 C.ar  200  TYR200      0.0417
     39  CZ       -12.2770   21.6940  -14.1390 C.ar  200  TYR200      0.1957
     40  OH       -11.4970   21.1700  -13.1380 O.3   200  TYR200     -0.2866
     41  N        -17.2210   13.1400  -17.0420 N.3   229  ASP229     -0.1225
     42  CA       -16.8210   13.5210  -15.6920 C.3   229  ASP229      0.1805
     43  C        -17.9660   13.2160  -14.7380 C.2   229  ASP229      0.2597
     44  O        -18.8920   12.4870  -15.1150 O.2   229  ASP229     -0.2718
     45  CB       -16.3300   14.9740  -15.6680 C.3   229  ASP229      0.1424
     46  CG       -15.2120   15.2200  -14.6760 C.2   229  ASP229      0.3668
     47  OD1      -15.5390   15.4470  -13.4970 O.co2 229  ASP229     -0.2456
     48  OD2      -14.0270   15.1450  -15.0920 O.co2 229  ASP229     -0.2456
     49  N        -17.8520   13.6770  -13.4880 N.am  230  ASP230     -0.1974
     50  CA       -18.8150   13.4950  -12.4360 C.3   230  ASP230      0.1709
     51  C        -20.1740   13.9930  -12.9420 C.2   230  ASP230      0.2293
     52  O        -20.2570   15.1040  -13.4640 O.2   230  ASP230     -0.2864
     53  CB       -18.3140   14.2070  -11.1850 C.3   230  ASP230      0.1436
     54  CG       -19.1770   14.1640   -9.9370 C.2   230  ASP230      0.3671
     55  OD1      -20.0690   13.2720   -9.8330 O.co2 230  ASP230     -0.2456
     56  OD2      -18.8690   14.9430   -9.0350 O.co2 230  ASP230     -0.2456
     57  N        -14.4350    9.4620  -15.2850 N.3   266  TRP266     -0.1241
     58  CA       -14.1090    9.9640  -13.9690 C.3   266  TRP266      0.1605
     59  C        -14.6200    9.0090  -12.9070 C.2   266  TRP266      0.2264
     60  O        -15.7880    8.6160  -12.9540 O.2   266  TRP266     -0.2867
     61  CB       -14.7220   11.3500  -13.7960 C.3   266  TRP266      0.0550
     62  CG       -14.4880   11.9970  -12.4710 C.ar  266  TRP266      0.0003
     63  CD1      -13.5400   12.9430  -12.1750 C.ar  266  TRP266      0.0946
     64  CD2      -15.3260   11.9080  -11.3070 C.ar  266  TRP266      0.0152
     65  NE1      -13.6950   13.3810  -10.8950 N.ar  266  TRP266     -0.2442
     66  CE2      -14.7820   12.7680  -10.3290 C.ar  266  TRP266      0.0810
     67  CE3      -16.4750   11.1820  -10.9770 C.ar  266  TRP266      0.0012
     68  CZ2      -15.3310   12.9020   -9.0580 C.ar  266  TRP266      0.0191
     69  CZ3      -17.0060   11.3140   -9.7160 C.ar  266  TRP266      0.0001
     70  CH2      -16.4820   12.2140   -8.7900 C.ar  266  TRP266      0.0015
     71  N        -18.5060   16.5080    0.7520 N.3   299  ASN299     -0.1225
     72  CA       -18.7430   17.0580   -0.5690 C.3   299  ASN299      0.1785
     73  C        -20.0540   16.4720   -1.0840 C.2   299  ASN299      0.2597
     74  O        -20.5030   15.4790   -0.5530 O.2   299  ASN299     -0.2718
     75  CB       -17.5430   16.7690   -1.4900 C.3   299  ASN299      0.1169
     76  CG       -17.5540   17.4860   -2.8250 C.2   299  ASN299      0.2627
     77  OD1      -18.0450   18.6090   -2.9440 O.2   299  ASN299     -0.2716
     78  ND2      -16.9610   16.8890   -3.8500 N.am  299  ASN299     -0.0877
     79  N        -20.6020   17.0740   -2.1370 N.am  300  TRP300     -0.1976
     80  CA       -21.9070   16.6600   -2.7000 C.3   300  TRP300      0.1640
     81  C        -22.9800   16.6730   -1.5970 C.2   300  TRP300      0.2290
     82  O        -23.9310   15.9120   -1.6790 O.2   300  TRP300     -0.2864
     83  CB       -21.8150   15.2790   -3.3710 C.3   300  TRP300      0.0576
     84  CG       -20.7590   15.1540   -4.4270 C.ar  300  TRP300      0.0006
     85  CD1      -20.8630   15.4850   -5.7480 C.ar  300  TRP300      0.0946
     86  CD2      -19.4550   14.5670   -4.2640 C.ar  300  TRP300      0.0152
     87  NE1      -19.6980   15.1900   -6.4010 N.ar  300  TRP300     -0.2442
     88  CE2      -18.8210   14.6220   -5.5200 C.ar  300  TRP300      0.0810
     89  CE3      -18.7850   13.9850   -3.1910 C.ar  300  TRP300      0.0012
     90  CZ2      -17.5240   14.1450   -5.7260 C.ar  300  TRP300      0.0191
     91  CZ3      -17.5050   13.5070   -3.3920 C.ar  300  TRP300      0.0001
     92  CH2      -16.8920   13.6000   -4.6340 C.ar  300  TRP300      0.0015
     93  N         -9.7030    9.2460  -15.1950 N.3   334  LYS334     -0.1245
     94  CA        -9.4680   10.3680  -14.3160 C.3   334  LYS334      0.1561
     95  C         -9.8680    9.8910  -12.9320 C.2   334  LYS334      0.2260
     96  O        -11.0260    9.5950  -12.7100 O.2   334  LYS334     -0.2867
     97  CB       -10.2410   11.6070  -14.7700 C.3   334  LYS334      0.0271
     98  CG       -10.1020   12.8330  -13.8760 C.3   334  LYS334      0.0035
     99  CD       -10.7600   14.0570  -14.4590 C.3   334  LYS334      0.0206
    100  CE       -10.7930   15.2560  -13.5290 C.3   334  LYS334      0.1093
    101  NZ       -11.6160   16.3520  -14.0920 N.3   334  LYS334     -0.1314
    102  N         -9.9530   10.6480   -9.0010 N.3   336  ASP336     -0.1225
    103  CA       -10.0210   11.9200   -8.3100 C.3   336  ASP336      0.1805
    104  C        -10.2340   11.7370   -6.8170 C.2   336  ASP336      0.2597
    105  O        -10.5140   10.6560   -6.3140 O.2   336  ASP336     -0.2718
    106  CB       -11.1620   12.7560   -8.9030 C.3   336  ASP336      0.1424
    107  CG       -11.0960   14.2640   -8.7180 C.2   336  ASP336      0.3668
    108  OD1      -10.1820   14.7860   -8.0100 O.co2 336  ASP336     -0.2456
    109  OD2      -11.9530   14.9320   -9.3440 O.co2 336  ASP336     -0.2456
    110  N        -10.0690   12.8500   -6.0990 N.am  337  PHE337     -0.1976
    111  CA       -10.1430   12.8900   -4.6530 C.3   337  PHE337      0.1639
    112  C         -9.2270   11.8410   -4.0060 C.2   337  PHE337      0.2290
    113  O         -9.5770   11.2210   -3.0090 O.2   337  PHE337     -0.2864
    114  CB       -11.6010   12.7520   -4.1760 C.3   337  PHE337      0.0560
    115  CG       -12.4820   13.9160   -4.5680 C.ar  337  PHE337     -0.0200
    116  CD1      -12.9410   14.0450   -5.8620 C.ar  337  PHE337     -0.0042
    117  CD2      -12.7580   14.9300   -3.6660 C.ar  337  PHE337     -0.0042
    118  CE1      -13.7100   15.1320   -6.2400 C.ar  337  PHE337     -0.0003
    119  CE2      -13.5290   16.0150   -4.0490 C.ar  337  PHE337     -0.0003
    120  CZ       -13.9680   16.1400   -5.3440 C.ar  337  PHE337     -0.0000
    121  N         -5.9420   13.1120   -9.7970 N.3   377  CYS377     -0.1235
    122  CA        -6.5660   14.3950   -9.4500 C.3   377  CYS377      0.1677
    123  C         -6.8870   14.4140   -7.9530 C.2   377  CYS377      0.2270
    124  O         -7.1070   13.3530   -7.3660 O.2   377  CYS377     -0.2867
    125  CB        -7.8010   14.6260  -10.2960 C.3   377  CYS377      0.0956
    126  SG        -8.4410   16.3160  -10.1970 S.3   377  CYS377     -0.0801
    127  N         -3.1950   16.1750  -12.4380 N.3   392  ARG392     -0.1245
    128  CA        -3.6430   17.5390  -12.1610 C.3   392  ARG392      0.1563
    129  C         -2.7060   18.1480  -11.1190 C.2   392  ARG392      0.2260
    130  O         -2.5420   17.6050  -10.0180 O.2   392  ARG392     -0.2867
    131  CB        -5.0980   17.5200  -11.6770 C.3   392  ARG392      0.0307
    132  CG        -6.1390   17.4050  -12.7850 C.3   392  ARG392      0.0489
    133  CD        -6.3700   18.6930  -13.5560 C.3   392  ARG392      0.2205
    134  NE        -6.7750   19.7570  -12.6230 N.pl3 392  ARG392     -0.0865
    135  CZ        -7.9060   19.7880  -11.9390 C.cat 392  ARG392      0.5346
    136  NH1       -8.9370   19.0350  -12.3080 N.pl3 392  ARG392      0.1354
    137  NH2       -7.9920   20.5760  -10.8720 N.pl3 392  ARG392      0.1354
    138  N         -8.9430   23.6930   -9.5060 N.3   396  ASP396     -0.1239
    139  CA        -9.7860   23.7080  -10.6770 C.3   396  ASP396      0.1674
    140  C         -9.7580   25.0710  -11.3720 C.2   396  ASP396      0.2266
    141  O         -9.7890   26.1510  -10.7150 O.2   396  ASP396     -0.2867
    142  CB       -11.2350   23.4280  -10.3060 C.3   396  ASP396      0.1410
    143  CG       -11.4880   22.0020   -9.8640 C.2   396  ASP396      0.3668
    144  OD1      -10.5330   21.1870   -9.8300 O.co2 396  ASP396     -0.2456
    145  OD2      -12.6520   21.7190   -9.5620 O.co2 396  ASP396     -0.2456
@<TRIPOS>BOND
     1    32    31    2
     2    31    30    1
     3    15    16    1
     4    33    30    1
     5    33    34    1
     6    41    42    1
     7    29    30    1
     8    29    17   am
     9    17    16    1
    10    17    18    2
    11    36    34   ar
    12    36    38   ar
    13    16    19    1
    14    34    35   ar
    15    42    45    1
    16    42    43    1
    17    45    46    1
    18    38    39   ar
    19    19    20    1
    20    57    58    1
    21    93    94    1
    22    44    43    2
    23    48    46   ar
    24    35    37   ar
    25    97    94    1
    26    97    98    1
    27    43    49   am
    28    46    47   ar
    29    99    98    1
    30    99   100    1
    31    94    95    1
    32    39    37   ar
    33    39    40    1
    34   101   100    1
    35    20    21   ar
    36    20    22   ar
    37    58    61    1
    38    58    59    1
    39    61    62    1
    40   133   132    1
    41   133   134    1
    42    49    50    1
    43    52    51    2
    44    21    23   ar
    45    22    25   ar
    46    22    24   ar
    47    60    59    2
    48    25    27   ar
    49    51    50    1
    50    95    96    2
    51   132   131    1
    52   134   135    2
    53    62    63   ar
    54    62    64   ar
    55   127   128    1
    56    50    53    1
    57   136   135    1
    58    23    24   ar
    59    63    65   ar
    60   128   131    1
    61   128   129    1
    62    24    26   ar
    63   135   137    1
    64    27    28   ar
    65   140   141    2
    66   140   139    1
    67    64    67   ar
    68    64    66   ar
    69    53    54    1
    70   129   130    2
    71    67    69   ar
    72    65    66   ar
    73    26    28   ar
    74   139   142    1
    75   139   138    1
    76    66    68   ar
    77   142   143    1
    78   125   126    1
    79   125   122    1
    80    54    55   ar
    81    54    56   ar
    82   143   144   ar
    83   143   145   ar
    84   121   122    1
    85    69    70   ar
    86   122   123    1
    87   109   107   ar
    88    68    70   ar
    89   102   103    1
    90   106   107    1
    91   106   103    1
    92   107   108   ar
    93   103   104    1
    94   123   124    2
    95     9     7   ar
    96     9    10   ar
    97     7     6   ar
    98   104   105    2
    99   104   110   am
   100    10    12   ar
   101    10     8   ar
   102    87    85   ar
   103    87    88   ar
   104    12    14   ar
   105   118   116   ar
   106   118   120   ar
   107   110   111    1
   108     6     8   ar
   109     6     5    1
   110   116   115   ar
   111     2     1    1
   112     2     5    1
   113     2     3    1
   114    85    84   ar
   115    90    88   ar
   116    90    92   ar
   117    88    86   ar
   118     8    11   ar
   119   120   119   ar
   120    14    13   ar
   121     4     3    2
   122   111   114    1
   123   111   112    1
   124    92    91   ar
   125   115   114    1
   126   115   117   ar
   127    84    86   ar
   128    84    83    1
   129    86    89   ar
   130    11    13   ar
   131   119   117   ar
   132   112   113    2
   133    78    76   am
   134    91    89   ar
   135    83    80    1
   136    77    76    2
   137    76    75    1
   138    80    79    1
   139    80    81    1
   140    79    73   am
   141    82    81    2
   142    75    72    1
   143    73    72    1
   144    73    74    2
   145    72    71    1
