@<TRIPOS>MOLECULE
tmp/6gx9A00.pdb
 132 128 0 0 0
SMALL
GASTEIGER

@<TRIPOS>ATOM
      1  N        -11.2020  -93.8930   49.1360 N.3   115  ALA115     -0.1231
      2  CA        -9.9370  -94.6120   49.0410 C.3   115  ALA115      0.1694
      3  C         -8.7710  -93.6540   48.8170 C.2   115  ALA115      0.2591
      4  O         -7.7120  -93.8010   49.4360 O.2   115  ALA115     -0.2718
      5  CB       -10.0080  -95.6530   47.9220 C.3   115  ALA115      0.0304
      6  N         -8.9540  -92.6540   47.9500 N.am  116  LEU116     -0.1980
      7  CA        -7.8760  -91.7190   47.6450 C.3   116  LEU116      0.1596
      8  C         -7.4480  -90.9010   48.8570 C.2   116  LEU116      0.2287
      9  O         -6.3160  -90.4070   48.8870 O.2   116  LEU116     -0.2864
     10  CB        -8.2960  -90.7810   46.5130 C.3   116  LEU116      0.0297
     11  CG        -8.5470  -91.4690   45.1730 C.3   116  LEU116      0.0022
     12  CD1       -8.9150  -90.4510   44.1090 C.3   116  LEU116      0.0001
     13  CD2       -7.3350  -92.2910   44.7520 C.3   116  LEU116      0.0001
     14  N         -7.7400  -92.1780   52.0770 N.3   118  MET118     -0.1231
     15  CA        -7.5470  -93.1260   53.1730 C.3   118  MET118      0.1687
     16  C         -6.3310  -93.9860   52.8550 C.2   118  MET118      0.2434
     17  O         -6.4610  -95.0650   52.2540 O.2   118  MET118     -0.2733
     18  CB        -8.7980  -93.9790   53.3840 C.3   118  MET118      0.0400
     19  CG        -8.7050  -94.9600   54.5360 C.3   118  MET118      0.0596
     20  SD       -10.2880  -95.7270   54.9350 S.3   118  MET118     -0.1393
     21  CE       -10.9160  -96.0610   53.3000 C.3   118  MET118      0.0692
     22  N         -5.1250  -93.5430   53.2230 N.am  119  PRO119     -0.2729
     23  CA        -3.9300  -94.3580   52.9440 C.3   119  PRO119      0.1401
     24  C         -3.9070  -95.6770   53.6950 C.2   119  PRO119      0.2269
     25  O         -3.2070  -96.6020   53.2640 O.2   119  PRO119     -0.2865
     26  CB        -2.7700  -93.4490   53.3750 C.3   119  PRO119      0.0296
     27  CG        -3.3480  -92.0630   53.3930 C.3   119  PRO119      0.0237
     28  CD        -4.7790  -92.2340   53.8000 C.3   119  PRO119      0.0939
     29  N         -6.1660  -97.8210   53.7290 N.3   121  TRP121     -0.1227
     30  CA        -6.7620  -98.8140   52.8360 C.3   121  TRP121      0.1737
     31  C         -5.7390  -99.1680   51.7550 C.2   121  TRP121      0.2595
     32  O         -5.8340  -98.7710   50.5920 O.2   121  TRP121     -0.2718
     33  CB        -8.0640  -98.2930   52.2410 C.3   121  TRP121      0.0564
     34  CG        -8.8660  -99.3460   51.5250 C.ar  121  TRP121      0.0003
     35  CD1       -8.6040 -100.6850   51.4780 C.ar  121  TRP121      0.0946
     36  CD2      -10.0630  -99.1460   50.7620 C.ar  121  TRP121      0.0152
     37  NE1       -9.5600 -101.3290   50.7300 N.ar  121  TRP121     -0.2442
     38  CE2      -10.4690 -100.4070   50.2820 C.ar  121  TRP121      0.0810
     39  CE3      -10.8320  -98.0240   50.4390 C.ar  121  TRP121      0.0012
     40  CZ2      -11.6050 -100.5750   49.4930 C.ar  121  TRP121      0.0191
     41  CZ3      -11.9620  -98.1930   49.6580 C.ar  121  TRP121      0.0001
     42  CH2      -12.3360  -99.4590   49.1930 C.ar  121  TRP121      0.0015
     43  N         -4.7330  -99.9320   52.1740 N.am  122  LYS122     -0.1966
     44  CA        -3.6500 -100.3090   51.2780 C.3   122  LYS122      0.1728
     45  C         -4.1110 -101.3810   50.2970 C.2   122  LYS122      0.2617
     46  O         -4.7720 -102.3520   50.6770 O.2   122  LYS122     -0.2715
     47  CB        -2.4550 -100.8170   52.0850 C.3   122  LYS122      0.0311
     48  CG        -1.8700  -99.7930   53.0470 C.3   122  LYS122      0.0038
     49  CD        -0.6720 -100.3620   53.7910 C.3   122  LYS122      0.0206
     50  CE        -0.0600  -99.3350   54.7310 C.3   122  LYS122      0.1093
     51  NZ         1.1350  -99.8760   55.4380 N.3   122  LYS122     -0.1314
     52  N         -3.7530 -101.1990   49.0270 N.am  123  GLY123     -0.1940
     53  CA        -4.1340 -102.1370   47.9890 C.3   123  GLY123      0.2014
     54  C         -5.6350 -102.2670   47.8360 C.2   123  GLY123      0.2639
     55  O         -6.1650 -103.3810   47.7810 O.2   123  GLY123     -0.2714
     56  N         -6.3300 -101.1290   47.7630 N.am  124  CYS124     -0.1953
     57  CA        -7.7890 -101.1570   47.7150 C.3   124  CYS124      0.1843
     58  C         -8.2910 -101.8670   46.4640 C.2   124  CYS124      0.2625
     59  O         -9.3030 -102.5760   46.5110 O.2   124  CYS124     -0.2714
     60  CB        -8.3450  -99.7350   47.7850 C.3   124  CYS124      0.0997
     61  SG        -8.1890  -98.7960   46.2610 S.3   124  CYS124     -0.0797
     62  N         -7.5980 -101.6910   45.3360 N.am  125  VAL125     -0.1977
     63  CA        -8.0080 -102.3600   44.1050 C.3   125  VAL125      0.1596
     64  C         -7.9620 -103.8710   44.2820 C.2   125  VAL125      0.2287
     65  O         -8.8740 -104.5890   43.8550 O.2   125  VAL125     -0.2864
     66  CB        -7.1290 -101.9020   42.9260 C.3   125  VAL125      0.0276
     67  CG1       -7.3480 -102.8020   41.7220 C.3   125  VAL125      0.0022
     68  CG2       -7.4350 -100.4520   42.5700 C.3   125  VAL125      0.0022
     69  N        -12.2810  -94.5350   39.7140 N.3   149  LEU149     -0.1245
     70  CA       -11.1270  -94.3390   40.5900 C.3   149  LEU149      0.1561
     71  C         -9.9580  -93.6750   39.8730 C.2   149  LEU149      0.2260
     72  O         -9.4120  -92.6980   40.4140 O.2   149  LEU149     -0.2867
     73  CB       -10.7120  -95.6740   41.2210 C.3   149  LEU149      0.0270
     74  CG        -9.5180  -95.6250   42.1750 C.3   149  LEU149      0.0019
     75  CD1       -9.7940  -94.6740   43.3260 C.3   149  LEU149      0.0001
     76  CD2       -9.1870  -97.0110   42.7000 C.3   149  LEU149      0.0001
     77  N          1.1770  -87.3310   47.3440 N.3   164  ARG164     -0.1245
     78  CA         0.1880  -88.3840   47.5310 C.3   164  ARG164      0.1563
     79  C         -0.2980  -88.9180   46.1920 C.2   164  ARG164      0.2260
     80  O         -0.4590  -90.1320   46.0190 O.2   164  ARG164     -0.2867
     81  CB        -0.9870  -87.8580   48.3560 C.3   164  ARG164      0.0307
     82  CG        -2.1130  -88.8610   48.5310 C.3   164  ARG164      0.0489
     83  CD        -1.8290  -89.8320   49.6580 C.3   164  ARG164      0.2205
     84  NE        -2.8900  -90.8260   49.7900 N.pl3 164  ARG164     -0.0865
     85  CZ        -2.7380  -92.1220   49.5410 C.cat 164  ARG164      0.5346
     86  NH1       -1.5600  -92.5940   49.1560 N.pl3 164  ARG164      0.1354
     87  NH2       -3.7660  -92.9490   49.6840 N.pl3 164  ARG164      0.1354
     88  N          2.0910  -91.3690   44.8990 N.3   167  GLU167     -0.1231
     89  CA         1.9190  -92.6400   45.5950 C.3   167  GLU167      0.1699
     90  C          0.7320  -93.4110   45.0350 C.2   167  GLU167      0.2592
     91  O          0.8280  -94.6190   44.7910 O.2   167  GLU167     -0.2718
     92  CB         1.7320  -92.4030   47.0930 C.3   167  GLU167      0.0402
     93  CG         2.9900  -92.0100   47.8460 C.3   167  GLU167      0.1161
     94  CD         2.7130  -91.7180   49.3130 C.2   167  GLU167      0.3649
     95  OE1        1.6340  -92.1170   49.8090 O.co2 167  GLU167     -0.2457
     96  OE2        3.5680  -91.0830   49.9660 O.co2 167  GLU167     -0.2457
     97  N         -0.3930  -92.7240   44.8220 N.am  168  ILE168     -0.1980
     98  CA        -1.5900  -93.3800   44.3000 C.3   168  ILE168      0.1595
     99  C         -1.3110  -93.9820   42.9280 C.2   168  ILE168      0.2287
    100  O         -1.6350  -95.1460   42.6620 O.2   168  ILE168     -0.2864
    101  CB        -2.7650  -92.3870   44.2370 C.3   168  ILE168      0.0276
    102  CG1       -3.1200  -91.8590   45.6300 C.3   168  ILE168      0.0022
    103  CG2       -3.9700  -93.0360   43.5710 C.3   168  ILE168      0.0022
    104  CD1       -4.0580  -92.7520   46.4010 C.3   168  ILE168      0.0001
    105  N          0.8610  -96.9330   42.9440 N.3   171  ASP171     -0.1225
    106  CA         0.1910  -98.0550   43.5880 C.3   171  ASP171      0.1805
    107  C         -0.8790  -98.6510   42.6810 C.2   171  ASP171      0.2597
    108  O         -1.0680  -99.8710   42.6600 O.2   171  ASP171     -0.2718
    109  CB        -0.4170  -97.6120   44.9180 C.3   171  ASP171      0.1424
    110  CG        -0.3830  -98.7060   45.9650 C.2   171  ASP171      0.3668
    111  OD1        0.3540  -99.6950   45.7680 O.co2 171  ASP171     -0.2456
    112  OD2       -1.0900  -98.5790   46.9850 O.co2 171  ASP171     -0.2456
    113  N         -1.5850  -97.8060   41.9240 N.am  172  LEU172     -0.1979
    114  CA        -2.5450  -98.3140   40.9510 C.3   172  LEU172      0.1596
    115  C         -1.8420  -99.0410   39.8120 C.2   172  LEU172      0.2287
    116  O         -2.3590 -100.0360   39.2900 O.2   172  LEU172     -0.2864
    117  CB        -3.4010  -97.1700   40.4080 C.3   172  LEU172      0.0297
    118  CG        -4.3590  -96.4990   41.3950 C.3   172  LEU172      0.0022
    119  CD1       -5.0010  -95.2730   40.7760 C.3   172  LEU172      0.0001
    120  CD2       -5.4230  -97.4730   41.8530 C.3   172  LEU172      0.0001
    121  N         -1.0630 -102.6870   40.6010 N.3   175  TYR175     -0.1241
    122  CA        -2.1920 -103.6010   40.4980 C.3   175  TYR175      0.1605
    123  C         -2.8680 -103.5550   39.1350 C.2   175  TYR175      0.2264
    124  O         -3.9660 -104.0980   38.9840 O.2   175  TYR175     -0.2867
    125  CB        -3.2170 -103.3050   41.5960 C.3   175  TYR175      0.0534
    126  CG        -2.7100 -103.5950   42.9900 C.ar  175  TYR175     -0.0201
    127  CD1       -2.6480 -104.8970   43.4680 C.ar  175  TYR175     -0.0009
    128  CD2       -2.2900 -102.5690   43.8270 C.ar  175  TYR175     -0.0009
    129  CE1       -2.1810 -105.1700   44.7410 C.ar  175  TYR175      0.0417
    130  CE2       -1.8220 -102.8320   45.1030 C.ar  175  TYR175      0.0417
    131  CZ        -1.7700 -104.1340   45.5530 C.ar  175  TYR175      0.1957
    132  OH        -1.3070 -104.4040   46.8200 O.3   175  TYR175     -0.2866
@<TRIPOS>BOND
     1   124   123    2
     2   123   122    1
     3   116   115    2
     4    69    70    1
     5   115   114    1
     6    71    72    2
     7    71    70    1
     8   117   114    1
     9   117   118    1
    10   122   121    1
    11   122   125    1
    12    70    73    1
    13   119   118    1
    14   114   113    1
    15    73    74    1
    16   118   120    1
    17   125   126    1
    18    67    66    1
    19   113   107   am
    20    74    76    1
    21    74    75    1
    22    68    66    1
    23   108   107    2
    24   100    99    2
    25   107   106    1
    26    66    63    1
    27    99    98    1
    28   105   106    1
    29   126   127   ar
    30   126   128   ar
    31   127   129   ar
    32   103   101    1
    33   106   109    1
    34   128   130   ar
    35    65    64    2
    36    63    64    1
    37    63    62    1
    38    12    11    1
    39   101    98    1
    40   101   102    1
    41    98    97    1
    42   129   131   ar
    43    13    11    1
    44    91    90    2
    45    97    90   am
    46    88    89    1
    47   109   110    1
    48    90    89    1
    49   130   131   ar
    50    11    10    1
    51    62    58   am
    52   131   132    1
    53    89    92    1
    54   102   104    1
    55   111   110   ar
    56   110   112   ar
    57    80    79    2
    58    79    78    1
    59    61    60    1
    60    58    59    2
    61    58    57    1
    62    10     7    1
    63    92    93    1
    64    77    78    1
    65    78    81    1
    66     7     6    1
    67     7     8    1
    68    57    56    1
    69    57    60    1
    70    56    54   am
    71    55    54    2
    72    54    53    1
    73    93    94    1
    74     5     2    1
    75     6     3   am
    76    53    52    1
    77    81    82    1
    78    82    83    1
    79     3     2    1
    80     3     4    2
    81     8     9    2
    82    52    45   am
    83     2     1    1
    84    86    85    1
    85    42    40   ar
    86    42    41   ar
    87    94    95   ar
    88    94    96   ar
    89    40    38   ar
    90    85    87    1
    91    85    84    2
    92    41    39   ar
    93    83    84    1
    94    38    37   ar
    95    38    36   ar
    96    45    46    2
    97    45    44    1
    98    39    36   ar
    99    32    31    2
   100    37    35   ar
   101    36    34   ar
   102    44    47    1
   103    44    43    1
   104    35    34   ar
   105    34    33    1
   106    31    43   am
   107    31    30    1
   108    14    15    1
   109    47    48    1
   110    33    30    1
   111    17    16    2
   112    30    29    1
   113    16    15    1
   114    16    22   am
   115    23    22    1
   116    23    26    1
   117    23    24    1
   118    48    49    1
   119    15    18    1
   120    22    28    1
   121    25    24    2
   122    21    20    1
   123    26    27    1
   124    18    19    1
   125    27    28    1
   126    49    50    1
   127    19    20    1
   128    50    51    1
