@<TRIPOS>MOLECULE
tmp/6gxaA00.pdb
 150 149 0 0 0
SMALL
GASTEIGER

@<TRIPOS>ATOM
      1  N         52.0810   42.7110   84.7260 N.3    19  LYS19      -0.1231
      2  CA        51.2740   41.8180   85.5620 C.3    19  LYS19       0.1693
      3  C         52.0450   41.1520   86.7130 C.2    19  LYS19       0.2592
      4  O         51.5690   41.1020   87.8580 O.2    19  LYS19      -0.2718
      5  CB        50.6290   40.7260   84.7110 C.3    19  LYS19       0.0285
      6  CG        49.8830   39.7030   85.5520 C.3    19  LYS19       0.0035
      7  CD        48.5130   39.3990   84.9960 C.3    19  LYS19       0.0206
      8  CE        47.5150   39.1410   86.1160 C.3    19  LYS19       0.1093
      9  NZ        47.1110   40.3980   86.8130 N.3    19  LYS19      -0.1314
     10  N         53.2310   40.6370   86.4190 N.am   20  PHE20      -0.1976
     11  CA        53.9600   39.8970   87.4440 C.3    20  PHE20       0.1639
     12  C         55.0680   40.7060   88.0930 C.2    20  PHE20       0.2290
     13  O         55.7490   40.2010   88.9920 O.2    20  PHE20      -0.2864
     14  CB        54.5100   38.5970   86.8610 C.3    20  PHE20       0.0560
     15  CG        53.4380   37.6150   86.5340 C.ar   20  PHE20      -0.0200
     16  CD1       52.8600   36.8500   87.5310 C.ar   20  PHE20      -0.0042
     17  CD2       52.9660   37.4910   85.2390 C.ar   20  PHE20      -0.0042
     18  CE1       51.8510   35.9620   87.2320 C.ar   20  PHE20      -0.0003
     19  CE2       51.9560   36.6140   84.9410 C.ar   20  PHE20      -0.0003
     20  CZ        51.3950   35.8470   85.9320 C.ar   20  PHE20      -0.0000
     21  N         43.8770   41.1220   78.1900 N.3    99  ASP99      -0.1239
     22  CA        44.6970   40.5510   79.2660 C.3    99  ASP99       0.1674
     23  C         46.0960   40.1330   78.8050 C.2    99  ASP99       0.2266
     24  O         46.9370   39.7210   79.6170 O.2    99  ASP99      -0.2867
     25  CB        43.9800   39.3660   79.9040 C.3    99  ASP99       0.1410
     26  CG        42.8460   39.8010   80.8040 C.2    99  ASP99       0.3668
     27  OD1       43.0010   40.8280   81.5000 O.co2  99  ASP99      -0.2456
     28  OD2       41.7990   39.1250   80.8030 O.co2  99  ASP99      -0.2456
     29  N         54.3670   29.0400   81.4770 N.3   139  TRP139     -0.1227
     30  CA        53.2820   29.7910   80.8450 C.3   139  TRP139      0.1737
     31  C         52.4290   28.8970   79.9660 C.2   139  TRP139      0.2595
     32  O         52.5220   28.9040   78.7350 O.2   139  TRP139     -0.2718
     33  CB        53.8620   30.9900   80.0800 C.3   139  TRP139      0.0564
     34  CG        54.7340   31.7590   81.0290 C.ar  139  TRP139      0.0003
     35  CD1       56.0790   31.9440   80.9400 C.ar  139  TRP139      0.0946
     36  CD2       54.3260   32.3640   82.2650 C.ar  139  TRP139      0.0152
     37  NE1       56.5330   32.6600   82.0190 N.ar  139  TRP139     -0.2442
     38  CE2       55.4800   32.9230   82.8560 C.ar  139  TRP139      0.0810
     39  CE3       53.0960   32.4980   82.9270 C.ar  139  TRP139      0.0012
     40  CZ2       55.4440   33.6080   84.0850 C.ar  139  TRP139      0.0191
     41  CZ3       53.0630   33.1660   84.1480 C.ar  139  TRP139      0.0001
     42  CH2       54.2330   33.7180   84.7090 C.ar  139  TRP139      0.0015
     43  N         51.5420   28.1680   80.6310 N.am  140  HIS140     -0.1961
     44  CA        50.8770   27.0380   80.0120 C.3   140  HIS140      0.1787
     45  C         49.6790   27.4040   79.1310 C.2   140  HIS140      0.2620
     46  O         49.1520   26.5360   78.4530 O.2   140  HIS140     -0.2715
     47  CB        50.4530   26.0080   81.0940 C.3   140  HIS140      0.0785
     48  CG        49.5920   26.5630   82.1900 C.ar  140  HIS140      0.0821
     49  ND1       48.9290   25.7540   83.0870 N.ar  140  HIS140     -0.2267
     50  CD2       49.2810   27.8370   82.5370 C.ar  140  HIS140      0.1154
     51  CE1       48.2470   26.5010   83.9390 C.ar  140  HIS140      0.1986
     52  NE2       48.4490   27.7690   83.6330 N.ar  140  HIS140     -0.2212
     53  N         49.2750   28.6730   79.0900 N.am  141  HIS141     -0.1973
     54  CA        48.0730   29.0390   78.3160 C.3   141  HIS141      0.1656
     55  C         48.3280   29.4160   76.8660 C.2   141  HIS141      0.2291
     56  O         47.3780   29.5040   76.0770 O.2   141  HIS141     -0.2864
     57  CB        47.3330   30.2120   78.9670 C.3   141  HIS141      0.0771
     58  CG        46.7520   29.8890   80.3030 C.ar  141  HIS141      0.0820
     59  ND1       45.9710   28.7730   80.5220 N.ar  141  HIS141     -0.2267
     60  CD2       46.8380   30.5320   81.4920 C.ar  141  HIS141      0.1154
     61  CE1       45.6030   28.7430   81.7900 C.ar  141  HIS141      0.1986
     62  NE2       46.1070   29.8040   82.3960 N.ar  141  HIS141     -0.2212
     63  N         45.8030   34.4960   78.7890 N.3   149  GLY149     -0.1210
     64  CA        46.0910   34.5380   80.2190 C.3   149  GLY149      0.1956
     65  C         47.5100   34.9600   80.5640 C.2   149  GLY149      0.2612
     66  O         48.1930   34.2980   81.3420 O.2   149  GLY149     -0.2717
     67  N         47.9340   36.0740   79.9750 N.am  150  PHE150     -0.1962
     68  CA        49.2830   36.6240   80.1050 C.3   150  PHE150      0.1771
     69  C         50.3970   35.6320   79.7800 C.2   150  PHE150      0.2619
     70  O         51.5380   35.8130   80.1920 O.2   150  PHE150     -0.2715
     71  CB        49.5200   37.2120   81.5060 C.3   150  PHE150      0.0574
     72  CG        50.4430   38.4110   81.4870 C.ar  150  PHE150     -0.0200
     73  CD1       49.9600   39.6610   81.1170 C.ar  150  PHE150     -0.0042
     74  CD2       51.7960   38.2800   81.7930 C.ar  150  PHE150     -0.0042
     75  CE1       50.7970   40.7620   81.0710 C.ar  150  PHE150     -0.0003
     76  CE2       52.6340   39.3730   81.7550 C.ar  150  PHE150     -0.0003
     77  CZ        52.1330   40.6230   81.3940 C.ar  150  PHE150     -0.0000
     78  N         50.0650   34.6040   79.0110 N.am  151  CYS151     -0.1968
     79  CA        51.0670   33.7390   78.4110 C.3   151  CYS151      0.1712
     80  C         51.2250   34.1270   76.9470 C.2   151  CYS151      0.2296
     81  O         50.2420   34.1300   76.2090 O.2   151  CYS151     -0.2864
     82  CB        50.6640   32.2700   78.5520 C.3   151  CYS151      0.0983
     83  SG        50.3670   31.7510   80.2860 S.3   151  CYS151     -0.0798
     84  N         48.7540   24.1190   88.7020 N.3   176  ASP176     -0.1239
     85  CA        48.1640   25.4490   88.6640 C.3   176  ASP176      0.1674
     86  C         46.6540   25.4040   88.9720 C.2   176  ASP176      0.2266
     87  O         45.9840   24.3940   88.7620 O.2   176  ASP176     -0.2867
     88  CB        48.4300   26.0580   87.2780 C.3   176  ASP176      0.1410
     89  CG        48.2750   27.5580   87.2400 C.2   176  ASP176      0.3668
     90  OD1       47.1230   28.0370   87.2020 O.co2 176  ASP176     -0.2456
     91  OD2       49.3030   28.2590   87.2130 O.co2 176  ASP176     -0.2456
     92  N         44.5680   26.9470   87.3470 N.3   178  HIS178     -0.1241
     93  CA        43.9110   26.9810   86.0380 C.3   178  HIS178      0.1621
     94  C         44.2630   25.7580   85.1820 C.2   178  HIS178      0.2264
     95  O         45.3320   25.1530   85.3290 O.2   178  HIS178     -0.2867
     96  CB        44.2730   28.2780   85.3050 C.3   178  HIS178      0.0745
     97  CG        43.7850   29.5120   86.0000 C.ar  178  HIS178      0.0817
     98  ND1       44.5610   30.2230   86.8910 N.ar  178  HIS178     -0.2268
     99  CD2       42.5860   30.1380   85.9710 C.ar  178  HIS178      0.1154
    100  CE1       43.8700   31.2430   87.3650 C.ar  178  HIS178      0.1986
    101  NE2       42.6660   31.2140   86.8230 N.ar  178  HIS178     -0.2212
    102  N         38.1020   31.0530   83.8910 N.3   206  PHE206     -0.1241
    103  CA        39.2140   30.8830   82.9520 C.3   206  PHE206      0.1605
    104  C         39.9310   29.5390   83.0760 C.2   206  PHE206      0.2264
    105  O         40.1740   29.0770   84.1910 O.2   206  PHE206     -0.2867
    106  CB        40.2230   32.0050   83.1610 C.3   206  PHE206      0.0534
    107  CG        41.2080   32.1400   82.0540 C.ar  206  PHE206     -0.0203
    108  CD1       40.8700   32.8250   80.8920 C.ar  206  PHE206     -0.0042
    109  CD2       42.4750   31.5890   82.1680 C.ar  206  PHE206     -0.0042
    110  CE1       41.7760   32.9580   79.8630 C.ar  206  PHE206     -0.0003
    111  CE2       43.3880   31.7170   81.1500 C.ar  206  PHE206     -0.0003
    112  CZ        43.0400   32.4040   79.9900 C.ar  206  PHE206     -0.0000
    113  N         48.6930   29.8570   92.3850 N.3   270  ASP270     -0.1239
    114  CA        47.4120   30.4910   92.6460 C.3   270  ASP270      0.1674
    115  C         46.3990   29.5480   93.2950 C.2   270  ASP270      0.2266
    116  O         45.2490   29.9400   93.5230 O.2   270  ASP270     -0.2867
    117  CB        46.8130   31.1220   91.3740 C.3   270  ASP270      0.1410
    118  CG        47.1300   30.3490   90.0890 C.2   270  ASP270      0.3668
    119  OD1       47.6040   29.1900   90.1160 O.co2 270  ASP270     -0.2456
    120  OD2       46.8690   30.9320   89.0250 O.co2 270  ASP270     -0.2456
    121  N         42.8650   35.0350   94.0830 N.3   277  HIS277     -0.1241
    122  CA        41.7860   34.2580   93.4740 C.3   277  HIS277      0.1621
    123  C         40.8590   33.7210   94.5480 C.2   277  HIS277      0.2264
    124  O         39.6370   33.7660   94.4020 O.2   277  HIS277     -0.2867
    125  CB        42.3260   33.0990   92.6450 C.3   277  HIS277      0.0745
    126  CG        42.7280   33.4820   91.2540 C.ar  277  HIS277      0.0817
    127  ND1       44.0240   33.8070   90.9150 N.ar  277  HIS277     -0.2268
    128  CD2       42.0040   33.5810   90.1120 C.ar  277  HIS277      0.1154
    129  CE1       44.0810   34.0950   89.6260 C.ar  277  HIS277      0.1986
    130  NE2       42.8690   33.9660   89.1160 N.ar  277  HIS277     -0.2212
    131  N         54.5370   29.5220   87.2410 N.3   310  GLY310     -0.1210
    132  CA        53.2580   29.7430   86.5850 C.3   310  GLY310      0.1956
    133  C         52.5100   30.8630   87.2790 C.2   310  GLY310      0.2612
    134  O         53.1000   31.8800   87.6260 O.2   310  GLY310     -0.2717
    135  N         51.2090   30.6750   87.4770 N.am  311  GLY311     -0.1956
    136  CA        50.3910   31.6450   88.1750 C.3   311  GLY311      0.1869
    137  C         50.8300   31.8110   89.6250 C.2   311  GLY311      0.2309
    138  O         51.6560   31.0560   90.1390 O.2   311  GLY311     -0.2863
    139  N         49.6190   35.1820   92.3980 N.3   313  TYR313     -0.1241
    140  CA        49.4270   36.6330   92.3320 C.3   313  TYR313      0.1605
    141  C         49.6250   37.3310   93.6710 C.2   313  TYR313      0.2264
    142  O         49.6140   38.5570   93.7560 O.2   313  TYR313     -0.2867
    143  CB        48.0550   36.9230   91.7310 C.3   313  TYR313      0.0534
    144  CG        47.9840   36.2480   90.4010 C.ar  313  TYR313     -0.0201
    145  CD1       48.5690   36.8330   89.2880 C.ar  313  TYR313     -0.0009
    146  CD2       47.4230   34.9810   90.2670 C.ar  313  TYR313     -0.0009
    147  CE1       48.5590   36.2030   88.0650 C.ar  313  TYR313      0.0417
    148  CE2       47.4120   34.3370   89.0480 C.ar  313  TYR313      0.0417
    149  CZ        47.9840   34.9550   87.9490 C.ar  313  TYR313      0.1957
    150  OH        47.9810   34.3340   86.7240 O.3   313  TYR313     -0.2866
@<TRIPOS>BOND
     1    56    55    2
     2    81    80    2
     3    55    54    1
     4    80    79    1
     5    21    22    1
     6    54    57    1
     7    54    53    1
     8    79    82    1
     9    79    78    1
    10    46    45    2
    11    82    83    1
    12    32    31    2
    13    63    64    1
    14    23    22    1
    15    23    24    2
    16    57    58    1
    17    78    69   am
    18    53    45   am
    19    45    44    1
    20    22    25    1
    21    69    68    1
    22    69    70    2
    23   110   112   ar
    24   110   108   ar
    25    25    26    1
    26    31    43   am
    27    31    30    1
    28    67    68    1
    29    67    65   am
    30   112   111   ar
    31    44    43    1
    32    44    47    1
    33    33    30    1
    34    33    34    1
    35    68    71    1
    36    64    65    1
    37    58    59   ar
    38    58    60   ar
    39    59    61   ar
    40    65    66    2
    41    28    26   ar
    42    26    27   ar
    43    30    29    1
    44   108   107   ar
    45    35    34   ar
    46    35    37   ar
    47    34    36   ar
    48    75    73   ar
    49    75    77   ar
    50    47    48    1
    51    73    72   ar
    52   111   109   ar
    53    77    76   ar
    54    72    71    1
    55    72    74   ar
    56    60    62   ar
    57    76    74   ar
    58    61    62   ar
    59    37    38   ar
    60   107   109   ar
    61   107   106    1
    62    48    50   ar
    63    48    49   ar
    64    36    38   ar
    65    36    39   ar
    66    50    52   ar
    67    38    40   ar
    68    39    41   ar
    69   103   104    1
    70   103   106    1
    71   103   102    1
    72   104   105    2
    73    49    51   ar
    74    52    51   ar
    75    40    42   ar
    76    41    42   ar
    77     5     6    1
    78     5     2    1
    79     1     2    1
    80    19    17   ar
    81    19    20   ar
    82     7     6    1
    83     7     8    1
    84    94    95    2
    85    94    93    1
    86    17    15   ar
    87    96    97    1
    88    96    93    1
    89     2     3    1
    90    20    18   ar
    91    99    97   ar
    92    99   101   ar
    93    97    98   ar
    94    93    92    1
    95     8     9    1
    96    10     3   am
    97    10    11    1
    98    15    14    1
    99    15    16   ar
   100   132   131    1
   101   132   133    1
   102     3     4    2
   103   150   149    1
   104   101   100   ar
   105    14    11    1
   106    98   100   ar
   107    90    89   ar
   108    91    89   ar
   109    18    16   ar
   110    89    88    1
   111    88    85    1
   112   133   135   am
   113   133   134    2
   114    11    12    1
   115   135   136    1
   116   149   147   ar
   117   149   148   ar
   118   147   145   ar
   119    12    13    2
   120   136   137    1
   121    85    84    1
   122    85    86    1
   123    87    86    2
   124   120   118   ar
   125   148   146   ar
   126   130   129   ar
   127   130   128   ar
   128   145   144   ar
   129   137   138    2
   130   129   127   ar
   131   118   119   ar
   132   118   117    1
   133   128   126   ar
   134   146   144   ar
   135   144   143    1
   136   127   126   ar
   137   126   125    1
   138   117   114    1
   139   143   140    1
   140   140   139    1
   141   140   141    1
   142   113   114    1
   143   125   122    1
   144   114   115    1
   145   115   116    2
   146   122   121    1
   147   122   123    1
   148   141   142    2
   149   124   123    2
