@<TRIPOS>MOLECULE
tmp/6gxuA00.pdb
 142 141 0 0 0
SMALL
GASTEIGER

@<TRIPOS>ATOM
      1  N         52.3090   42.7930   85.5400 N.3    19  LYS19      -0.1245
      2  CA        51.4530   41.8900   86.3030 C.3    19  LYS19       0.1561
      3  C         52.2050   41.2350   87.4550 C.2    19  LYS19       0.2260
      4  O         51.6860   41.1510   88.5720 O.2    19  LYS19      -0.2867
      5  CB        50.8630   40.8160   85.3830 C.3    19  LYS19       0.0271
      6  CG        50.1830   39.6710   86.1140 C.3    19  LYS19       0.0035
      7  CD        48.8130   40.0590   86.6380 C.3    19  LYS19       0.0206
      8  CE        47.7650   39.8910   85.5570 C.3    19  LYS19       0.1093
      9  NZ        46.5300   40.6460   85.8730 N.3    19  LYS19      -0.1314
     10  N         43.6440   41.1230   78.9050 N.3    98  ASP98      -0.1239
     11  CA        44.4710   40.5460   79.9650 C.3    98  ASP98       0.1674
     12  C         45.8840   40.2180   79.5110 C.2    98  ASP98       0.2266
     13  O         46.7010   39.8230   80.3510 O.2    98  ASP98      -0.2867
     14  CB        43.8370   39.2770   80.5290 C.3    98  ASP98       0.1410
     15  CG        42.5300   39.5450   81.2530 C.2    98  ASP98       0.3668
     16  OD1       42.3380   40.6780   81.7470 O.co2  98  ASP98      -0.2456
     17  OD2       41.6960   38.6150   81.3220 O.co2  98  ASP98      -0.2456
     18  N         54.2650   28.9470   82.0950 N.3   138  TRP138     -0.1227
     19  CA        53.2280   29.8050   81.5180 C.3   138  TRP138      0.1737
     20  C         52.3610   28.9220   80.6360 C.2   138  TRP138      0.2595
     21  O         52.4280   28.9400   79.4090 O.2   138  TRP138     -0.2718
     22  CB        53.8450   30.9970   80.7890 C.3   138  TRP138      0.0564
     23  CG        54.7350   31.7250   81.7720 C.ar  138  TRP138      0.0003
     24  CD1       56.0840   31.8790   81.7030 C.ar  138  TRP138      0.0946
     25  CD2       54.3270   32.3000   83.0280 C.ar  138  TRP138      0.0152
     26  NE1       56.5450   32.5470   82.8140 N.ar  138  TRP138     -0.2442
     27  CE2       55.4870   32.8180   83.6430 C.ar  138  TRP138      0.0810
     28  CE3       53.0940   32.4250   83.6910 C.ar  138  TRP138      0.0012
     29  CZ2       55.4520   33.4590   84.8870 C.ar  138  TRP138      0.0191
     30  CZ3       53.0620   33.0560   84.9210 C.ar  138  TRP138      0.0001
     31  CH2       54.2330   33.5750   85.5040 C.ar  138  TRP138      0.0015
     32  N         51.4950   28.1680   81.3130 N.am  139  HIS139     -0.1961
     33  CA        50.7950   27.0440   80.7090 C.3   139  HIS139      0.1787
     34  C         49.6300   27.4340   79.8120 C.2   139  HIS139      0.2620
     35  O         49.1220   26.5680   79.0970 O.2   139  HIS139     -0.2715
     36  CB        50.3070   26.0860   81.8050 C.3   139  HIS139      0.0785
     37  CG        49.4690   26.7260   82.8670 C.ar  139  HIS139      0.0821
     38  ND1       48.8200   25.9880   83.8320 N.ar  139  HIS139     -0.2267
     39  CD2       49.1810   28.0250   83.1320 C.ar  139  HIS139      0.1154
     40  CE1       48.1730   26.8010   84.6470 C.ar  139  HIS139      0.1986
     41  NE2       48.3710   28.0410   84.2420 N.ar  139  HIS139     -0.2212
     42  N         49.2020   28.6890   79.7880 N.am  140  HIS140     -0.1973
     43  CA        48.0160   29.0240   79.0030 C.3   140  HIS140      0.1656
     44  C         48.3040   29.4430   77.5700 C.2   140  HIS140      0.2291
     45  O         47.3640   29.5390   76.7790 O.2   140  HIS140     -0.2864
     46  CB        47.2350   30.1610   79.6570 C.3   140  HIS140      0.0771
     47  CG        46.6710   29.8250   80.9960 C.ar  140  HIS140      0.0820
     48  ND1       45.7330   28.8300   81.1840 N.ar  140  HIS140     -0.2267
     49  CD2       46.8770   30.3880   82.2090 C.ar  140  HIS140      0.1154
     50  CE1       45.4030   28.7850   82.4630 C.ar  140  HIS140      0.1986
     51  NE2       46.0850   29.7190   83.1060 N.ar  140  HIS140     -0.2212
     52  N         45.7990   34.7030   79.4770 N.3   148  GLY148     -0.1210
     53  CA        46.0460   34.7490   80.9180 C.3   148  GLY148      0.1956
     54  C         47.4540   35.1630   81.3060 C.2   148  GLY148      0.2612
     55  O         48.1080   34.4960   82.1200 O.2   148  GLY148     -0.2717
     56  N         47.9320   36.2520   80.6990 N.am  149  PHE149     -0.1962
     57  CA        49.2980   36.7850   80.8480 C.3   149  PHE149      0.1771
     58  C         50.3830   35.7560   80.5320 C.2   149  PHE149      0.2619
     59  O         51.5460   35.9110   80.9300 O.2   149  PHE149     -0.2715
     60  CB        49.5290   37.3850   82.2380 C.3   149  PHE149      0.0574
     61  CG        50.4830   38.5630   82.2370 C.ar  149  PHE149     -0.0200
     62  CD1       50.0280   39.8380   81.9170 C.ar  149  PHE149     -0.0042
     63  CD2       51.8280   38.3950   82.5370 C.ar  149  PHE149     -0.0042
     64  CE1       50.8940   40.9300   81.9040 C.ar  149  PHE149     -0.0003
     65  CE2       52.6960   39.4830   82.5350 C.ar  149  PHE149     -0.0003
     66  CZ        52.2240   40.7570   82.2170 C.ar  149  PHE149     -0.0000
     67  N         50.0350   34.6970   79.8200 N.am  150  CYS150     -0.1968
     68  CA        51.0180   33.8030   79.2360 C.3   150  CYS150      0.1712
     69  C         51.1530   34.1550   77.7640 C.2   150  CYS150      0.2296
     70  O         50.1740   34.0780   77.0260 O.2   150  CYS150     -0.2864
     71  CB        50.6030   32.3450   79.4200 C.3   150  CYS150      0.0983
     72  SG        50.3750   31.9010   81.1510 S.3   150  CYS150     -0.0798
     73  N         48.6780   24.2180   89.3100 N.3   175  ASP175     -0.1239
     74  CA        48.1420   25.5760   89.3530 C.3   175  ASP175      0.1674
     75  C         46.6350   25.5560   89.6270 C.2   175  ASP175      0.2266
     76  O         45.9340   24.5990   89.2950 O.2   175  ASP175     -0.2867
     77  CB        48.4510   26.2730   88.0210 C.3   175  ASP175      0.1410
     78  CG        48.2240   27.7600   88.0470 C.2   175  ASP175      0.3668
     79  OD1       47.0560   28.2020   88.0480 O.co2 175  ASP175     -0.2456
     80  OD2       49.2240   28.4920   87.9950 O.co2 175  ASP175     -0.2456
     81  N         44.5210   27.0620   88.0530 N.3   177  HIS177     -0.1241
     82  CA        43.8410   27.0890   86.7580 C.3   177  HIS177      0.1621
     83  C         44.1440   25.8500   85.9220 C.2   177  HIS177      0.2264
     84  O         45.2300   25.2690   86.0120 O.2   177  HIS177     -0.2867
     85  CB        44.2550   28.3350   85.9810 C.3   177  HIS177      0.0745
     86  CG        43.8930   29.6100   86.6790 C.ar  177  HIS177      0.0817
     87  ND1       44.6810   30.1710   87.6570 N.ar  177  HIS177     -0.2268
     88  CD2       42.7920   30.3920   86.5930 C.ar  177  HIS177      0.1154
     89  CE1       44.1150   31.2810   88.1000 C.ar  177  HIS177      0.1986
     90  NE2       42.9600   31.4310   87.4790 N.ar  177  HIS177     -0.2212
     91  N         38.0460   31.2450   84.5750 N.3   205  PHE205     -0.1241
     92  CA        39.1200   31.0640   83.5770 C.3   205  PHE205      0.1605
     93  C         39.9010   29.7290   83.7310 C.2   205  PHE205      0.2264
     94  O         40.1600   29.2960   84.8530 O.2   205  PHE205     -0.2867
     95  CB        40.0940   32.2570   83.6900 C.3   205  PHE205      0.0534
     96  CG        41.1780   32.2790   82.6480 C.ar  205  PHE205     -0.0203
     97  CD1       42.3770   31.6210   82.8550 C.ar  205  PHE205     -0.0042
     98  CD2       41.0140   32.9910   81.4740 C.ar  205  PHE205     -0.0042
     99  CE1       43.3810   31.6570   81.8940 C.ar  205  PHE205     -0.0003
    100  CE2       42.0220   33.0220   80.5270 C.ar  205  PHE205     -0.0003
    101  CZ        43.1980   32.3580   80.7450 C.ar  205  PHE205     -0.0000
    102  N         48.7070   29.8460   93.2340 N.3   268  ASP268     -0.1239
    103  CA        47.4400   30.5340   93.4510 C.3   268  ASP268      0.1674
    104  C         46.3740   29.6610   94.0990 C.2   268  ASP268      0.2266
    105  O         45.2180   30.0990   94.2140 O.2   268  ASP268     -0.2867
    106  CB        46.8960   31.1370   92.1430 C.3   268  ASP268      0.1410
    107  CG        47.2050   30.2960   90.8910 C.2   268  ASP268      0.3668
    108  OD1       47.5510   29.1030   90.9740 O.co2 268  ASP268     -0.2456
    109  OD2       47.0860   30.8670   89.7950 O.co2 268  ASP268     -0.2456
    110  N         44.9470   36.0960   96.4740 N.3   274  PRO274     -0.2102
    111  CA        43.7540   36.9360   96.2550 C.3   274  PRO274      0.1504
    112  C         42.5960   36.2260   95.5530 C.2   274  PRO274      0.2575
    113  O         41.4690   36.7240   95.5760 O.2   274  PRO274     -0.2718
    114  CB        44.2910   38.0950   95.3980 C.3   274  PRO274      0.0282
    115  CG        45.6040   37.6350   94.8770 C.3   274  PRO274      0.0208
    116  CD        46.1580   36.7180   95.9180 C.3   274  PRO274      0.0893
    117  N         42.8450   35.0680   94.9300 N.am  275  HIS275     -0.1976
    118  CA        41.7360   34.3090   94.3560 C.3   275  HIS275      0.1656
    119  C         40.7890   33.7900   95.4350 C.2   275  HIS275      0.2291
    120  O         39.5780   33.7160   95.2050 O.2   275  HIS275     -0.2864
    121  CB        42.2680   33.1450   93.5080 C.3   275  HIS275      0.0771
    122  CG        42.7380   33.5670   92.1440 C.ar  275  HIS275      0.0820
    123  ND1       44.0400   33.9310   91.8840 N.ar  275  HIS275     -0.2267
    124  CD2       42.0630   33.7320   90.9810 C.ar  275  HIS275      0.1154
    125  CE1       44.1550   34.2770   90.6140 C.ar  275  HIS275      0.1986
    126  NE2       42.9690   34.1710   90.0440 N.ar  275  HIS275     -0.2212
    127  N         51.1580   30.7750   88.2480 N.3   310  GLY310     -0.1225
    128  CA        50.3440   31.6750   89.0360 C.3   310  GLY310      0.1811
    129  C         50.8970   31.8900   90.4380 C.2   310  GLY310      0.2280
    130  O         51.8000   31.2030   90.9130 O.2   310  GLY310     -0.2866
    131  N         49.6520   35.2790   93.0980 N.3   312  TYR312     -0.1241
    132  CA        49.4550   36.7210   93.1010 C.3   312  TYR312      0.1605
    133  C         49.5240   37.3160   94.4990 C.2   312  TYR312      0.2264
    134  O         49.3710   38.5320   94.6490 O.2   312  TYR312     -0.2867
    135  CB        48.1430   37.0620   92.3840 C.3   312  TYR312      0.0534
    136  CG        48.1550   36.3900   91.0390 C.ar  312  TYR312     -0.0201
    137  CD1       48.7550   37.0050   89.9390 C.ar  312  TYR312     -0.0009
    138  CD2       47.6590   35.0890   90.8790 C.ar  312  TYR312     -0.0009
    139  CE1       48.8070   36.3570   88.7160 C.ar  312  TYR312      0.0417
    140  CE2       47.7240   34.4430   89.6530 C.ar  312  TYR312      0.0417
    141  CZ        48.2950   35.0820   88.5830 C.ar  312  TYR312      0.1957
    142  OH        48.3550   34.4420   87.3680 O.3   312  TYR312     -0.2866
@<TRIPOS>BOND
     1    45    44    2
     2    70    69    2
     3    44    43    1
     4    69    68    1
     5    10    11    1
     6    43    46    1
     7    43    42    1
     8    35    34    2
     9    68    71    1
    10    68    67    1
    11    21    20    2
    12    71    72    1
    13    52    53    1
    14    12    11    1
    15    12    13    2
    16    46    47    1
    17    42    34   am
    18    34    33    1
    19    67    58   am
    20    11    14    1
    21   100   101   ar
    22   100    98   ar
    23    14    15    1
    24    58    57    1
    25    58    59    2
    26    20    32   am
    27    20    19    1
    28    56    57    1
    29    56    54   am
    30    33    32    1
    31    33    36    1
    32   101    99   ar
    33    22    19    1
    34    22    23    1
    35    57    60    1
    36    53    54    1
    37    47    48   ar
    38    47    49   ar
    39    48    50   ar
    40    15    17   ar
    41    15    16   ar
    42    54    55    2
    43    98    96   ar
    44    19    18    1
    45    24    23   ar
    46    24    26   ar
    47    23    25   ar
    48    36    37    1
    49    99    97   ar
    50    64    62   ar
    51    64    66   ar
    52    62    61   ar
    53    49    51   ar
    54    66    65   ar
    55    61    60    1
    56    61    63   ar
    57    50    51   ar
    58    65    63   ar
    59    96    97   ar
    60    96    95    1
    61    26    27   ar
    62    37    39   ar
    63    37    38   ar
    64    25    27   ar
    65    25    28   ar
    66    39    41   ar
    67    92    95    1
    68    92    93    1
    69    92    91    1
    70    27    29   ar
    71    28    30   ar
    72    93    94    2
    73    38    40   ar
    74    41    40   ar
    75    29    31   ar
    76    30    31   ar
    77     5     6    1
    78     5     2    1
    79     1     2    1
    80     8     9    1
    81     8     7    1
    82    83    84    2
    83    83    82    1
    84    85    86    1
    85    85    82    1
    86     6     7    1
    87     2     3    1
    88    88    86   ar
    89    88    90   ar
    90    86    87   ar
    91    82    81    1
    92   142   141    1
    93     3     4    2
    94    90    89   ar
    95    87    89   ar
    96    80    78   ar
    97    77    78    1
    98    77    74    1
    99    78    79   ar
   100   127   128    1
   101   141   139   ar
   102   141   140   ar
   103   139   137   ar
   104   128   129    1
   105    76    75    2
   106    73    74    1
   107    74    75    1
   108   140   138   ar
   109   109   107   ar
   110   137   136   ar
   111   126   125   ar
   112   126   124   ar
   113   129   130    2
   114   125   123   ar
   115   138   136   ar
   116   107   108   ar
   117   107   106    1
   118   124   122   ar
   119   136   135    1
   120   123   122   ar
   121   106   103    1
   122   122   121    1
   123   135   132    1
   124   131   132    1
   125   132   133    1
   126   102   103    1
   127   103   104    1
   128   121   118    1
   129   104   105    2
   130   118   117    1
   131   118   119    1
   132   133   134    2
   133   115   114    1
   134   115   116    1
   135   117   112   am
   136   120   119    2
   137   114   111    1
   138   112   113    2
   139   112   111    1
   140   116   110    1
   141   111   110    1
