@<TRIPOS>MOLECULE
tmp/6gxvB07.pdb
 185 180 0 0 0
SMALL
GASTEIGER

@<TRIPOS>ATOM
      1  N         31.7170   12.5000    4.0860 N.3    12  TRP12      -0.1241
      2  CA        31.7190   13.8600    4.6740 C.3    12  TRP12       0.1605
      3  C         30.6480   14.7430    4.0390 C.2    12  TRP12       0.2264
      4  O         29.9780   15.4630    4.8020 O.2    12  TRP12      -0.2867
      5  CB        33.0900   14.5250    4.5500 C.3    12  TRP12       0.0550
      6  CG        33.1760   15.6950    5.4730 C.ar   12  TRP12       0.0003
      7  CD1       32.9630   17.0060    5.1540 C.ar   12  TRP12       0.0946
      8  CD2       33.4660   15.6540    6.8790 C.ar   12  TRP12       0.0152
      9  NE1       33.0860   17.7780    6.2760 N.ar   12  TRP12      -0.2442
     10  CE2       33.3750   16.9770    7.3530 C.ar   12  TRP12       0.0810
     11  CE3       33.7670   14.6230    7.7920 C.ar   12  TRP12       0.0012
     12  CZ2       33.5910   17.2980    8.6940 C.ar   12  TRP12       0.0191
     13  CZ3       33.9580   14.9330    9.1230 C.ar   12  TRP12       0.0001
     14  CH2       33.8650   16.2580    9.5660 C.ar   12  TRP12       0.0015
     15  N         30.8350   14.7480   14.6620 N.3    55  TYR55      -0.1241
     16  CA        32.0510   14.7730   15.5070 C.3    55  TYR55       0.1605
     17  C         32.0700   16.0330   16.3720 C.2    55  TYR55       0.2264
     18  O         32.7980   16.0450   17.3900 O.2    55  TYR55      -0.2867
     19  CB        33.2800   14.5730   14.6160 C.3    55  TYR55       0.0534
     20  CG        33.2570   13.2390   13.9050 C.ar   55  TYR55      -0.0201
     21  CD1       33.4890   12.0580   14.5890 C.ar   55  TYR55      -0.0009
     22  CD2       32.8840   13.1430   12.5740 C.ar   55  TYR55      -0.0009
     23  CE1       33.3850   10.8230   13.9650 C.ar   55  TYR55       0.0417
     24  CE2       32.7860   11.9160   11.9300 C.ar   55  TYR55       0.0417
     25  CZ        33.0340   10.7470   12.6260 C.ar   55  TYR55       0.1957
     26  OH        32.9170    9.5280   11.9960 O.3    55  TYR55      -0.2866
     27  N         31.8180    9.0310   19.9660 N.3   101  VAL101     -0.1245
     28  CA        32.7430   10.1910   20.0620 C.3   101  VAL101      0.1561
     29  C         32.8190   10.6500   21.5200 C.2   101  VAL101      0.2260
     30  O         31.9350   11.4390   21.9550 O.2   101  VAL101     -0.2867
     31  CB        32.2590   11.3220   19.1460 C.3   101  VAL101      0.0252
     32  CG1       33.1910   12.5120   19.2320 C.3   101  VAL101      0.0019
     33  CG2       32.1360   10.8320   17.7040 C.3   101  VAL101      0.0019
     34  N         35.6980   14.7160   23.3870 N.3   104  HIS104     -0.1241
     35  CA        35.3800   16.1580   23.6210 C.3   104  HIS104      0.1621
     36  C         33.8760   16.4450   23.5650 C.2   104  HIS104      0.2264
     37  O         33.1230   15.5470   23.2120 O.2   104  HIS104     -0.2867
     38  CB        36.1040   17.0090   22.5870 C.3   104  HIS104      0.0745
     39  CG        35.7570   16.6140   21.1950 C.ar  104  HIS104      0.0817
     40  ND1       36.5770   15.7930   20.4410 N.ar  104  HIS104     -0.2268
     41  CD2       34.6760   16.8980   20.4310 C.ar  104  HIS104      0.1154
     42  CE1       36.0030   15.5870   19.2760 C.ar  104  HIS104      0.1986
     43  NE2       34.8330   16.2420   19.2400 N.ar  104  HIS104     -0.2212
     44  N         52.7570   12.2510   20.7680 N.3   189  GLU189     -0.1245
     45  CA        53.0000   13.3170   19.7700 C.3   189  GLU189      0.1567
     46  C         52.5830   14.6340   20.4350 C.2   189  GLU189      0.2260
     47  O         51.5220   14.6560   21.0730 O.2   189  GLU189     -0.2867
     48  CB        52.2370   13.0450   18.4690 C.3   189  GLU189      0.0388
     49  CG        52.5140   14.0760   17.3920 C.3   189  GLU189      0.1160
     50  CD        51.7440   13.8590   16.0750 C.2   189  GLU189      0.3649
     51  OE1       51.1840   12.7630   15.8890 O.co2 189  GLU189     -0.2457
     52  OE2       51.7310   14.7840   15.2420 O.co2 189  GLU189     -0.2457
     53  N         49.1260   14.1190   23.8560 N.3   193  TYR193     -0.1241
     54  CA        48.1150   14.3720   22.7950 C.3   193  TYR193      0.1605
     55  C         46.7000   14.1760   23.3360 C.2   193  TYR193      0.2264
     56  O         45.7810   13.9430   22.5370 O.2   193  TYR193     -0.2867
     57  CB        48.3520   13.5180   21.5410 C.3   193  TYR193      0.0534
     58  CG        48.0760   14.1990   20.2140 C.ar  193  TYR193     -0.0201
     59  CD1       47.3790   15.3910   20.1060 C.ar  193  TYR193     -0.0009
     60  CD2       48.5230   13.6230   19.0310 C.ar  193  TYR193     -0.0009
     61  CE1       47.0990   15.9670   18.8770 C.ar  193  TYR193      0.0417
     62  CE2       48.3040   14.2250   17.8070 C.ar  193  TYR193      0.0417
     63  CZ        47.5680   15.3800   17.7220 C.ar  193  TYR193      0.1957
     64  OH        47.3590   15.9210   16.4890 O.3   193  TYR193     -0.2866
     65  N         42.9110   17.5290   21.5720 N.3   196  LEU196     -0.1231
     66  CA        42.7610   17.5550   20.0910 C.3   196  LEU196      0.1693
     67  C         41.9420   18.7760   19.6940 C.2   196  LEU196      0.2591
     68  O         42.4800   19.5990   18.9790 O.2   196  LEU196     -0.2718
     69  CB        42.0780   16.2840   19.6000 C.3   196  LEU196      0.0284
     70  CG        41.8270   16.2570   18.0910 C.3   196  LEU196      0.0019
     71  CD1       43.1390   16.1750   17.3260 C.3   196  LEU196      0.0001
     72  CD2       40.8960   15.1020   17.7270 C.3   196  LEU196      0.0001
     73  N         40.6950   18.8750   20.1690 N.am  197  MET197     -0.1979
     74  CA        39.8000   20.0030   19.8470 C.3   197  MET197      0.1605
     75  C         38.6450   20.0700   20.8660 C.2   197  MET197      0.2287
     76  O         38.5190   19.1290   21.7050 O.2   197  MET197     -0.2864
     77  CB        39.2420   19.8170   18.4270 C.3   197  MET197      0.0413
     78  CG        38.3910   18.5590   18.2800 C.3   197  MET197      0.0598
     79  SD        37.6760   18.3440   16.6130 S.3   197  MET197     -0.1393
     80  CE        39.1720   18.0320   15.6740 C.3   197  MET197      0.0692
     81  N         32.1800    1.9160   16.7390 N.3   229  ARG229     -0.1245
     82  CA        33.4280    2.4720   16.1790 C.3   229  ARG229      0.1563
     83  C         33.8230    3.6050   17.1220 C.2   229  ARG229      0.2260
     84  O         33.0130    4.5310   17.2880 O.2   229  ARG229     -0.2867
     85  CB        33.1790    2.8760   14.7260 C.3   229  ARG229      0.0307
     86  CG        34.3600    3.5840   14.0800 C.3   229  ARG229      0.0489
     87  CD        34.4080    5.0830   14.3360 C.3   229  ARG229      0.2205
     88  NE        35.4110    5.7160   13.4940 N.pl3 229  ARG229     -0.0865
     89  CZ        35.7490    7.0010   13.5350 C.cat 229  ARG229      0.5346
     90  NH1       35.2060    7.8030   14.4340 N.pl3 229  ARG229      0.1354
     91  NH2       36.7080    7.4510   12.7490 N.pl3 229  ARG229      0.1354
     92  N         35.9560    6.7150   18.1640 N.3   231  ASP231     -0.1225
     93  CA        36.6120    7.9010   17.5780 C.3   231  ASP231      0.1805
     94  C         37.8310    8.3020   18.4160 C.2   231  ASP231      0.2597
     95  O         37.7450    8.3380   19.6680 O.2   231  ASP231     -0.2718
     96  CB        35.6190    9.0560   17.5310 C.3   231  ASP231      0.1424
     97  CG        36.1550   10.2830   16.8450 C.2   231  ASP231      0.3668
     98  OD1       36.4750   10.1500   15.6440 O.co2 231  ASP231     -0.2456
     99  OD2       36.2600   11.3480   17.5210 O.co2 231  ASP231     -0.2456
    100  N         38.9180    8.6300   17.7260 N.am  232  ALA232     -0.1979
    101  CA        40.0320    9.4360   18.2520 C.3   232  ALA232      0.1597
    102  C         40.5830    8.7730   19.5130 C.2   232  ALA232      0.2287
    103  O         40.8490    9.4720   20.4920 O.2   232  ALA232     -0.2864
    104  CB        39.5040   10.8380   18.4920 C.3   232  ALA232      0.0319
    105  N         43.3960    7.5780   20.2940 N.3   234  LYS234     -0.1231
    106  CA        44.7710    8.0020   20.6790 C.3   234  LYS234      0.1693
    107  C         44.7370    9.2140   21.6270 C.2   234  LYS234      0.2592
    108  O         45.7880    9.5420   22.1910 O.2   234  LYS234     -0.2718
    109  CB        45.6060    8.3240   19.4410 C.3   234  LYS234      0.0285
    110  CG        45.3210    9.6410   18.7300 C.3   234  LYS234      0.0035
    111  CD        46.0860    9.7710   17.4280 C.3   234  LYS234      0.0206
    112  CE        47.5650   10.0260   17.5800 C.3   234  LYS234      0.1093
    113  NZ        48.1840   10.2920   16.2600 N.3   234  LYS234     -0.1314
    114  N         43.5780    9.8780   21.7570 N.am  235  HIS235     -0.1976
    115  CA        43.4250   11.1270   22.5440 C.3   235  HIS235      0.1656
    116  C         42.6390   10.8510   23.8250 C.2   235  HIS235      0.2291
    117  O         42.2960   11.8300   24.5330 O.2   235  HIS235     -0.2864
    118  CB        42.7970   12.2530   21.6980 C.3   235  HIS235      0.0771
    119  CG        43.4260   12.4740   20.3640 C.ar  235  HIS235      0.0820
    120  ND1       44.6870   13.0420   20.2220 N.ar  235  HIS235     -0.2267
    121  CD2       42.9830   12.1900   19.1170 C.ar  235  HIS235      0.1154
    122  CE1       44.9910   13.1100   18.9410 C.ar  235  HIS235      0.1986
    123  NE2       43.9770   12.5690   18.2380 N.ar  235  HIS235     -0.2212
    124  N         39.6030    4.0190   16.0580 N.3   262  GLU262     -0.1245
    125  CA        40.4260    4.8440   15.1580 C.3   262  GLU262      0.1567
    126  C         41.6450    5.3660   15.9310 C.2   262  GLU262      0.2260
    127  O         41.5150    6.3870   16.6460 O.2   262  GLU262     -0.2867
    128  CB        39.6020    5.9980   14.6180 C.3   262  GLU262      0.0388
    129  CG        40.3090    6.7750   13.5360 C.3   262  GLU262      0.1160
    130  CD        40.3660    8.2790   13.7630 C.2   262  GLU262      0.3649
    131  OE1       40.1180    8.7470   14.9090 O.co2 262  GLU262     -0.2457
    132  OE2       40.6800    8.9780   12.7840 O.co2 262  GLU262     -0.2457
    133  N         44.7970    7.0720   14.7680 N.3   264  TRP264     -0.1227
    134  CA        45.3720    7.6030   13.5170 C.3   264  TRP264      0.1737
    135  C         46.8690    7.8240   13.7450 C.2   264  TRP264      0.2595
    136  O         47.2510    8.8490   14.3280 O.2   264  TRP264     -0.2718
    137  CB        44.7160    8.8700   12.9820 C.3   264  TRP264      0.0564
    138  CG        45.1680    9.0580   11.5640 C.ar  264  TRP264      0.0003
    139  CD1       46.2780    9.7070   11.1310 C.ar  264  TRP264      0.0946
    140  CD2       44.5860    8.4350   10.4130 C.ar  264  TRP264      0.0152
    141  NE1       46.3800    9.5900    9.7700 N.ar  264  TRP264     -0.2442
    142  CE2       45.3480    8.8370    9.2980 C.ar  264  TRP264      0.0810
    143  CE3       43.4530    7.6380   10.2040 C.ar  264  TRP264      0.0012
    144  CZ2       45.0300    8.4500    8.0020 C.ar  264  TRP264      0.0191
    145  CZ3       43.1300    7.2720    8.9140 C.ar  264  TRP264      0.0001
    146  CH2       43.9170    7.6680    7.8330 C.ar  264  TRP264      0.0015
    147  N         47.6710    6.8890   13.2660 N.am  265  ASN265     -0.1974
    148  CA        49.1450    6.9700   13.3470 C.3   265  ASN265      0.1688
    149  C         49.6410    6.0660   12.2330 C.2   265  ASN265      0.2292
    150  O         49.0390    4.9950   12.0280 O.2   265  ASN265     -0.2864
    151  CB        49.6320    6.6000   14.7610 C.3   265  ASN265      0.1181
    152  CG        51.1150    6.8100   14.9670 C.2   265  ASN265      0.2629
    153  OD1       51.9140    6.1700   14.3130 O.2   265  ASN265     -0.2716
    154  ND2       51.4940    7.7120   15.8590 N.am  265  ASN265     -0.0877
    155  N         36.0550    8.9490    5.4520 N.3   328  HIS328     -0.1226
    156  CA        35.4680   10.3140    5.4000 C.3   328  HIS328      0.1752
    157  C         36.5210   11.3820    5.6940 C.2   328  HIS328      0.2596
    158  O         36.2380   12.5630    5.4150 O.2   328  HIS328     -0.2718
    159  CB        34.2920   10.4320    6.3880 C.3   328  HIS328      0.0759
    160  CG        34.7290   10.2050    7.7980 C.ar  328  HIS328      0.0818
    161  ND1       35.2190    9.0010    8.2140 N.ar  328  HIS328     -0.2268
    162  CD2       34.8210   11.0520    8.8430 C.ar  328  HIS328      0.1154
    163  CE1       35.5520    9.0970    9.4910 C.ar  328  HIS328      0.1986
    164  NE2       35.3590   10.3720    9.8840 N.ar  328  HIS328     -0.2212
    165  N         37.6770   11.0130    6.2680 N.am  329  ASP329     -0.1974
    166  CA        38.8120   11.9310    6.5590 C.3   329  ASP329      0.1709
    167  C         39.8410   11.9520    5.4110 C.2   329  ASP329      0.2293
    168  O         40.5390   12.9810    5.2870 O.2   329  ASP329     -0.2864
    169  CB        39.5270   11.5210    7.8530 C.3   329  ASP329      0.1436
    170  CG        38.6720   11.7340    9.0910 C.2   329  ASP329      0.3671
    171  OD1       37.8010   12.6290    9.0300 O.co2 329  ASP329     -0.2456
    172  OD2       38.9080   11.0280   10.1060 O.co2 329  ASP329     -0.2456
    173  N         40.3160   16.2000    6.4890 N.3   335  ALA335     -0.1231
    174  CA        41.4260   16.5760    7.3970 C.3   335  ALA335      0.1694
    175  C         42.6310   15.6320    7.2350 C.2   335  ALA335      0.2591
    176  O         43.7730   16.0580    7.5140 O.2   335  ALA335     -0.2718
    177  CB        40.9290   16.6830    8.8260 C.3   335  ALA335      0.0304
    178  N         42.4130   14.3970    6.7870 N.am  336  LEU336     -0.1980
    179  CA        43.5040   13.4310    6.5550 C.3   336  LEU336      0.1596
    180  C         43.6230   13.0880    5.0680 C.2   336  LEU336      0.2287
    181  O         43.9870   11.9580    4.7640 O.2   336  LEU336     -0.2864
    182  CB        43.2270   12.1920    7.4020 C.3   336  LEU336      0.0297
    183  CG        43.1170   12.4370    8.9060 C.3   336  LEU336      0.0022
    184  CD1       42.7580   11.1380    9.6080 C.3   336  LEU336      0.0001
    185  CD2       44.4140   12.9970    9.4590 C.3   336  LEU336      0.0001
@<TRIPOS>BOND
     1     3     2    1
     2     3     4    2
     3     1     2    1
     4     5     2    1
     5     5     6    1
     6   181   180    2
     7   180   179    1
     8     7     6   ar
     9     7     9   ar
    10   168   167    2
    11   156   155    1
    12   156   157    1
    13   156   159    1
    14   167   166    1
    15   158   157    2
    16     6     8   ar
    17   157   165   am
    18   165   166    1
    19     9    10   ar
    20   159   160    1
    21   173   174    1
    22   179   178    1
    23   179   182    1
    24   166   169    1
    25   178   175   am
    26     8    10   ar
    27     8    11   ar
    28   175   174    1
    29   175   176    2
    30    10    12   ar
    31   174   177    1
    32   182   183    1
    33    11    13   ar
    34   160   161   ar
    35   160   162   ar
    36   146   144   ar
    37   146   145   ar
    38   169   170    1
    39   144   142   ar
    40   161   163   ar
    41    12    14   ar
    42   162   164   ar
    43   183   185    1
    44   183   184    1
    45   145   143   ar
    46   171   170   ar
    47   170   172   ar
    48    13    14   ar
    49   142   141   ar
    50   142   140   ar
    51   163   164   ar
    52   141   139   ar
    53   143   140   ar
    54   140   138   ar
    55   139   138   ar
    56   138   137    1
    57    24    22   ar
    58    24    25   ar
    59    26    25    1
    60   150   149    2
    61   149   148    1
    62    22    20   ar
    63    25    23   ar
    64    91    89    1
    65   132   130   ar
    66   137   134    1
    67   147   148    1
    68   147   135   am
    69   148   151    1
    70    88    89    2
    71    88    87    1
    72   134   135    1
    73   134   133    1
    74    89    90    1
    75   129   130    1
    76   129   128    1
    77   135   136    2
    78   130   131   ar
    79    20    21   ar
    80    20    19    1
    81    23    21   ar
    82    86    87    1
    83    86    85    1
    84   153   152    2
    85    19    16    1
    86   128   125    1
    87    15    16    1
    88    85    82    1
    89   151   152    1
    90   152   154   am
    91   125   126    1
    92   125   124    1
    93    52    50   ar
    94    16    17    1
    95    98    97   ar
    96    80    79    1
    97    51    50   ar
    98   126   127    2
    99    50    49    1
   100    82    81    1
   101    82    83    1
   102   113   112    1
   103    17    18    2
   104    64    63    1
   105    79    78    1
   106    97    99   ar
   107    97    96    1
   108    83    84    2
   109    71    70    1
   110    49    48    1
   111   111   112    1
   112   111   110    1
   113    96    93    1
   114    93    92    1
   115    93    94    1
   116    33    31    1
   117    63    62   ar
   118    63    61   ar
   119   100   101    1
   120   100    94   am
   121    72    70    1
   122    62    60   ar
   123    70    69    1
   124   123   122   ar
   125   123   121   ar
   126   101   104    1
   127   101   102    1
   128    78    77    1
   129    94    95    2
   130    77    74    1
   131    48    45    1
   132   110   109    1
   133    61    59   ar
   134   122   120   ar
   135    68    67    2
   136    60    58   ar
   137   121   119   ar
   138    31    32    1
   139    31    28    1
   140    43    42   ar
   141    43    41   ar
   142    42    40   ar
   143   109   106    1
   144   102   103    2
   145    69    66    1
   146    67    66    1
   147    67    73   am
   148    45    46    1
   149    45    44    1
   150    74    73    1
   151    74    75    1
   152    27    28    1
   153    28    29    1
   154    66    65    1
   155    59    58   ar
   156    58    57    1
   157   120   119   ar
   158   105   106    1
   159   119   118    1
   160    41    39   ar
   161    46    47    2
   162    40    39   ar
   163   106   107    1
   164    75    76    2
   165    39    38    1
   166    29    30    2
   167    57    54    1
   168   107   114   am
   169   107   108    2
   170   118   115    1
   171   114   115    1
   172    56    55    2
   173   115   116    1
   174    38    35    1
   175    54    55    1
   176    54    53    1
   177    37    36    2
   178    34    35    1
   179    36    35    1
   180   116   117    2
