@<TRIPOS>MOLECULE
tmp/6gxvB08.pdb
 146 144 0 0 0
SMALL
GASTEIGER

@<TRIPOS>ATOM
      1  N         31.7170   12.5000    4.0860 N.3    12  TRP12      -0.1241
      2  CA        31.7190   13.8600    4.6740 C.3    12  TRP12       0.1605
      3  C         30.6480   14.7430    4.0390 C.2    12  TRP12       0.2264
      4  O         29.9780   15.4630    4.8020 O.2    12  TRP12      -0.2867
      5  CB        33.0900   14.5250    4.5500 C.3    12  TRP12       0.0550
      6  CG        33.1760   15.6950    5.4730 C.ar   12  TRP12       0.0003
      7  CD1       32.9630   17.0060    5.1540 C.ar   12  TRP12       0.0946
      8  CD2       33.4660   15.6540    6.8790 C.ar   12  TRP12       0.0152
      9  NE1       33.0860   17.7780    6.2760 N.ar   12  TRP12      -0.2442
     10  CE2       33.3750   16.9770    7.3530 C.ar   12  TRP12       0.0810
     11  CE3       33.7670   14.6230    7.7920 C.ar   12  TRP12       0.0012
     12  CZ2       33.5910   17.2980    8.6940 C.ar   12  TRP12       0.0191
     13  CZ3       33.9580   14.9330    9.1230 C.ar   12  TRP12       0.0001
     14  CH2       33.8650   16.2580    9.5660 C.ar   12  TRP12       0.0015
     15  N         26.7580   20.3010   17.2880 N.3    48  GLN48      -0.1245
     16  CA        26.6530   21.7420   17.6340 C.3    48  GLN48       0.1566
     17  C         25.7780   22.4670   16.6060 C.2    48  GLN48       0.2260
     18  O         25.3570   23.5830   16.8820 O.2    48  GLN48      -0.2867
     19  CB        28.0470   22.3510   17.7830 C.3    48  GLN48       0.0367
     20  CG        28.8650   22.4360   16.5040 C.3    48  GLN48       0.0905
     21  CD        30.1600   23.1340   16.8420 C.2    48  GLN48       0.2608
     22  OE1       30.1630   24.0580   17.6580 O.2    48  GLN48      -0.2717
     23  NE2       31.2710   22.7130   16.2340 N.am   48  GLN48      -0.0878
     24  N         26.0660   19.3460   11.2300 N.3    52  ASP52      -0.1239
     25  CA        27.2750   18.6880   11.7770 C.3    52  ASP52       0.1674
     26  C         27.3210   17.2320   11.3000 C.2    52  ASP52       0.2266
     27  O         26.2990   16.5220   11.3930 O.2    52  ASP52      -0.2867
     28  CB        27.3180   18.7590   13.3020 C.3    52  ASP52       0.1410
     29  CG        28.7440   18.6800   13.8100 C.2    52  ASP52       0.3668
     30  OD1       29.2960   17.5400   13.8040 O.co2  52  ASP52      -0.2456
     31  OD2       29.2900   19.7590   14.2280 O.co2  52  ASP52      -0.2456
     32  N         30.8350   14.7480   14.6620 N.3    55  TYR55      -0.1227
     33  CA        32.0510   14.7730   15.5070 C.3    55  TYR55       0.1736
     34  C         32.0700   16.0330   16.3720 C.2    55  TYR55       0.2596
     35  O         32.7980   16.0450   17.3900 O.2    55  TYR55      -0.2718
     36  CB        33.2800   14.5730   14.6160 C.3    55  TYR55       0.0548
     37  CG        33.2570   13.2390   13.9050 C.ar   55  TYR55      -0.0200
     38  CD1       33.4890   12.0580   14.5890 C.ar   55  TYR55      -0.0009
     39  CD2       32.8840   13.1430   12.5740 C.ar   55  TYR55      -0.0009
     40  CE1       33.3850   10.8230   13.9650 C.ar   55  TYR55       0.0417
     41  CE2       32.7860   11.9160   11.9300 C.ar   55  TYR55       0.0417
     42  CZ        33.0340   10.7470   12.6260 C.ar   55  TYR55       0.1957
     43  OH        32.9170    9.5280   11.9960 O.3    55  TYR55      -0.2866
     44  N         31.3360   17.0770   16.0070 N.am   56  GLY56      -0.1957
     45  CA        31.1890   18.2510   16.8970 C.3    56  GLY56       0.1869
     46  C         30.1060   17.9830   17.9360 C.2    56  GLY56       0.2309
     47  O         29.0550   18.7000   17.9280 O.2    56  GLY56      -0.2863
     48  N         31.4210   20.0370   22.1250 N.3   106  MET106     -0.1230
     49  CA        31.3880   21.3280   21.4240 C.3   106  MET106      0.1702
     50  C         29.9500   21.8350   21.4980 C.2   106  MET106      0.2592
     51  O         29.0660   20.9930   21.6710 O.2   106  MET106     -0.2718
     52  CB        31.8280   21.1560   19.9720 C.3   106  MET106      0.0401
     53  CG        33.2890   20.8080   19.8610 C.3   106  MET106      0.0596
     54  SD        33.7500   20.6580   18.1200 S.3   106  MET106     -0.1393
     55  CE        35.4320   20.1200   18.3420 C.3   106  MET106      0.0692
     56  N         29.7680   23.1550   21.3830 N.am  107  GLY107     -0.1957
     57  CA        28.4560   23.8200   21.3820 C.3   107  GLY107      0.1869
     58  C         27.8830   23.9260   22.7760 C.2   107  GLY107      0.2309
     59  O         26.6640   23.7690   22.9350 O.2   107  GLY107     -0.2863
     60  N         33.9390   27.5320   26.6930 N.3   137  TRP137     -0.1241
     61  CA        32.6700   26.8780   26.2990 C.3   137  TRP137      0.1605
     62  C         32.5460   25.5300   27.0280 C.2   137  TRP137      0.2264
     63  O         32.7400   24.4780   26.3810 O.2   137  TRP137     -0.2867
     64  CB        32.6300   26.7610   24.7750 C.3   137  TRP137      0.0550
     65  CG        32.4470   28.0910   24.1260 C.ar  137  TRP137      0.0003
     66  CD1       33.4100   28.9140   23.6430 C.ar  137  TRP137      0.0946
     67  CD2       31.2110   28.7880   23.9420 C.ar  137  TRP137      0.0152
     68  NE1       32.8630   30.0690   23.1580 N.ar  137  TRP137     -0.2442
     69  CE2       31.5130   30.0160   23.3250 C.ar  137  TRP137      0.0810
     70  CE3       29.8810   28.5020   24.2550 C.ar  137  TRP137      0.0012
     71  CZ2       30.5330   30.9530   23.0110 C.ar  137  TRP137      0.0191
     72  CZ3       28.9070   29.4300   23.9500 C.ar  137  TRP137      0.0001
     73  CH2       29.2320   30.6480   23.3470 C.ar  137  TRP137      0.0015
     74  N         40.6720   23.6650   26.8260 N.3   162  VAL162     -0.1231
     75  CA        39.9950   24.2400   25.6280 C.3   162  VAL162      0.1692
     76  C         41.0560   24.8940   24.7480 C.2   162  VAL162      0.2592
     77  O         42.2170   25.0300   25.1970 O.2   162  VAL162     -0.2718
     78  CB        38.9200   25.2580   26.0470 C.3   162  VAL162      0.0266
     79  CG1       37.7560   24.5670   26.7560 C.3   162  VAL162      0.0020
     80  CG2       39.5100   26.3640   26.9230 C.3   162  VAL162      0.0020
     81  N         40.6920   25.2660   23.5300 N.am  163  ASP163     -0.1960
     82  CA        41.6310   25.9600   22.6310 C.3   163  ASP163      0.1840
     83  C         41.1090   27.3510   22.2990 C.2   163  ASP163      0.2622
     84  O         41.6280   27.9180   21.3520 O.2   163  ASP163     -0.2715
     85  CB        41.9220   25.1570   21.3680 C.3   163  ASP163      0.1450
     86  CG        40.7260   24.8750   20.4680 C.2   163  ASP163      0.3671
     87  OD1       39.6200   25.3480   20.7660 O.co2 163  ASP163     -0.2456
     88  OD2       40.9290   24.1630   19.4560 O.co2 163  ASP163     -0.2456
     89  N         40.1100   27.8580   23.0210 N.am  164  TRP164     -0.1974
     90  CA        39.4960   29.1720   22.6710 C.3   164  TRP164      0.1640
     91  C         39.0670   29.9040   23.9280 C.2   164  TRP164      0.2290
     92  O         38.3630   29.3350   24.7490 O.2   164  TRP164     -0.2864
     93  CB        38.3040   28.9820   21.7340 C.3   164  TRP164      0.0576
     94  CG        37.7760   30.2190   21.0660 C.ar  164  TRP164      0.0006
     95  CD1       36.5140   30.7400   21.1870 C.ar  164  TRP164      0.0946
     96  CD2       38.4540   31.0370   20.0940 C.ar  164  TRP164      0.0152
     97  NE1       36.3630   31.8260   20.3670 N.ar  164  TRP164     -0.2442
     98  CE2       37.5340   32.0210   19.6710 C.ar  164  TRP164      0.0810
     99  CE3       39.7210   30.9940   19.4940 C.ar  164  TRP164      0.0012
    100  CZ2       37.8580   32.9670   18.6970 C.ar  164  TRP164      0.0191
    101  CZ3       40.0590   31.9600   18.5730 C.ar  164  TRP164      0.0001
    102  CH2       39.1300   32.9220   18.1670 C.ar  164  TRP164      0.0015
    103  N         40.6950   18.8750   20.1690 N.3   197  MET197     -0.1230
    104  CA        39.8000   20.0030   19.8470 C.3   197  MET197      0.1702
    105  C         38.6450   20.0700   20.8660 C.2   197  MET197      0.2592
    106  O         38.5190   19.1290   21.7050 O.2   197  MET197     -0.2718
    107  CB        39.2420   19.8170   18.4270 C.3   197  MET197      0.0401
    108  CG        38.3910   18.5590   18.2800 C.3   197  MET197      0.0596
    109  SD        37.6760   18.3440   16.6130 S.3   197  MET197     -0.1393
    110  CE        39.1720   18.0320   15.6740 C.3   197  MET197      0.0692
    111  N         37.8930   21.1650   20.8380 N.am  198  GLY198     -0.1957
    112  CA        36.6550   21.3460   21.6150 C.3   198  GLY198      0.1869
    113  C         36.9600   21.4650   23.0940 C.2   198  GLY198      0.2309
    114  O         38.1110   21.8640   23.4200 O.2   198  GLY198     -0.2863
    115  N         36.0550    8.9490    5.4520 N.3   328  HIS328     -0.1226
    116  CA        35.4680   10.3140    5.4000 C.3   328  HIS328      0.1752
    117  C         36.5210   11.3820    5.6940 C.2   328  HIS328      0.2596
    118  O         36.2380   12.5630    5.4150 O.2   328  HIS328     -0.2718
    119  CB        34.2920   10.4320    6.3880 C.3   328  HIS328      0.0759
    120  CG        34.7290   10.2050    7.7980 C.ar  328  HIS328      0.0818
    121  ND1       35.2190    9.0010    8.2140 N.ar  328  HIS328     -0.2268
    122  CD2       34.8210   11.0520    8.8430 C.ar  328  HIS328      0.1154
    123  CE1       35.5520    9.0970    9.4910 C.ar  328  HIS328      0.1986
    124  NE2       35.3590   10.3720    9.8840 N.ar  328  HIS328     -0.2212
    125  N         37.6770   11.0130    6.2680 N.am  329  ASP329     -0.1974
    126  CA        38.8120   11.9310    6.5590 C.3   329  ASP329      0.1709
    127  C         39.8410   11.9520    5.4110 C.2   329  ASP329      0.2293
    128  O         40.5390   12.9810    5.2870 O.2   329  ASP329     -0.2864
    129  CB        39.5270   11.5210    7.8530 C.3   329  ASP329      0.1436
    130  CG        38.6720   11.7340    9.0910 C.2   329  ASP329      0.3671
    131  OD1       37.8010   12.6290    9.0300 O.co2 329  ASP329     -0.2456
    132  OD2       38.9080   11.0280   10.1060 O.co2 329  ASP329     -0.2456
    133  N         39.3380   16.7090    2.9320 N.3   334  GLN334     -0.1231
    134  CA        39.0780   16.4770    4.3820 C.3   334  GLN334      0.1698
    135  C         40.3900   16.3920    5.1710 C.2   334  GLN334      0.2592
    136  O         41.4680   16.5530    4.5840 O.2   334  GLN334     -0.2718
    137  CB        38.1670   15.2630    4.5490 C.3   334  GLN334      0.0381
    138  CG        36.7020   15.6090    4.2900 C.3   334  GLN334      0.0905
    139  CD        36.3160   16.8700    5.0250 C.2   334  GLN334      0.2608
    140  OE1       35.9700   17.9130    4.4450 O.2   334  GLN334     -0.2717
    141  NE2       36.3850   16.7820    6.3280 N.am  334  GLN334     -0.0878
    142  N         40.3160   16.2000    6.4890 N.am  335  ALA335     -0.1980
    143  CA        41.4260   16.5760    7.3970 C.3   335  ALA335      0.1597
    144  C         42.6310   15.6320    7.2350 C.2   335  ALA335      0.2287
    145  O         43.7730   16.0580    7.5140 O.2   335  ALA335     -0.2864
    146  CB        40.9290   16.6830    8.8260 C.3   335  ALA335      0.0319
@<TRIPOS>BOND
     1   133   134    1
     2     3     2    1
     3     3     4    2
     4     1     2    1
     5   138   137    1
     6   138   139    1
     7   134   137    1
     8   134   135    1
     9   140   139    2
    10     5     2    1
    11     5     6    1
    12   136   135    2
    13   139   141   am
    14     7     6   ar
    15     7     9   ar
    16   135   142   am
    17   128   127    2
    18   116   115    1
    19   116   117    1
    20   116   119    1
    21   127   126    1
    22   118   117    2
    23     6     8   ar
    24   117   125   am
    25   125   126    1
    26     9    10   ar
    27   119   120    1
    28   142   143    1
    29   126   129    1
    30     8    10   ar
    31     8    11   ar
    32   144   143    1
    33   144   145    2
    34    10    12   ar
    35   143   146    1
    36    11    13   ar
    37   120   121   ar
    38   120   122   ar
    39   129   130    1
    40   121   123   ar
    41    12    14   ar
    42   122   124   ar
    43   131   130   ar
    44   130   132   ar
    45    13    14   ar
    46   123   124   ar
    47    24    25    1
    48    26    27    2
    49    26    25    1
    50    25    28    1
    51    41    39   ar
    52    41    42   ar
    53    43    42    1
    54    39    37   ar
    55    42    40   ar
    56    28    29    1
    57    30    29   ar
    58    29    31   ar
    59    37    38   ar
    60    37    36    1
    61    40    38   ar
    62    36    33    1
    63    32    33    1
    64    33    34    1
    65   110   109    1
    66    44    34   am
    67    44    45    1
    68    23    21   am
    69    34    35    2
    70    20    21    1
    71    20    19    1
    72    17    18    2
    73    17    16    1
    74   109   108    1
    75    21    22    2
    76    45    46    1
    77    15    16    1
    78    16    19    1
    79    47    46    2
    80    54    55    1
    81    54    53    1
    82   102   101   ar
    83   102   100   ar
    84   108   107    1
    85   107   104    1
    86   101    99   ar
    87   100    98   ar
    88    88    86   ar
    89    99    96   ar
    90    98    96   ar
    91    98    97   ar
    92   104   103    1
    93   104   105    1
    94    53    52    1
    95    52    49    1
    96    96    94   ar
    97    97    95   ar
    98    86    87   ar
    99    86    85    1
   100   111   105   am
   101   111   112    1
   102   105   106    2
   103    94    95   ar
   104    94    93    1
   105    84    83    2
   106    85    82    1
   107    57    56    1
   108    57    58    1
   109    56    50   am
   110    49    50    1
   111    49    48    1
   112    50    51    2
   113   112   113    1
   114    93    90    1
   115    83    82    1
   116    83    89   am
   117    82    81    1
   118    90    89    1
   119    90    91    1
   120    58    59    2
   121    71    69   ar
   122    71    73   ar
   123   113   114    2
   124    68    69   ar
   125    68    66   ar
   126    69    67   ar
   127    73    72   ar
   128    81    76   am
   129    66    65   ar
   130    91    92    2
   131    67    65   ar
   132    67    70   ar
   133    72    70   ar
   134    65    64    1
   135    76    77    2
   136    76    75    1
   137    64    61    1
   138    75    78    1
   139    75    74    1
   140    78    79    1
   141    78    80    1
   142    61    60    1
   143    61    62    1
   144    63    62    2
