@<TRIPOS>MOLECULE
tmp/6gxwD00.pdb
 142 139 0 0 0
SMALL
GASTEIGER

@<TRIPOS>ATOM
      1  N         47.5950   38.8700   25.6390 N.3    19  LYS19      -0.1245
      2  CA        48.5550   39.6350   24.8460 C.3    19  LYS19       0.1561
      3  C         49.1510   38.8220   23.6930 C.2    19  LYS19       0.2260
      4  O         49.2690   39.3320   22.5750 O.2    19  LYS19      -0.2867
      5  CB        49.6600   40.1680   25.7620 C.3    19  LYS19       0.0271
      6  CG        50.9430   40.5360   25.0420 C.3    19  LYS19       0.0035
      7  CD        51.1440   42.0250   24.9890 C.3    19  LYS19       0.0206
      8  CE        51.2460   42.6010   26.3990 C.3    19  LYS19       0.1093
      9  NZ        51.3850   44.0910   26.4540 N.3    19  LYS19      -0.1314
     10  N         49.9740   47.0410   32.0600 N.3    99  ASP99      -0.1239
     11  CA        50.3580   46.1140   31.0070 C.3    99  ASP99       0.1674
     12  C         50.7170   44.7320   31.5370 C.2    99  ASP99       0.2266
     13  O         51.0960   43.8620   30.7450 O.2    99  ASP99      -0.2867
     14  CB        51.5040   46.7020   30.1770 C.3    99  ASP99       0.1410
     15  CG        51.0280   47.8080   29.2370 C.2    99  ASP99       0.3668
     16  OD1       50.0660   47.5850   28.4620 O.co2  99  ASP99      -0.2456
     17  OD2       51.6070   48.9140   29.2870 O.co2  99  ASP99      -0.2456
     18  N         61.0970   35.6670   29.0450 N.3   139  TRP139     -0.1227
     19  CA        60.3670   36.8070   29.6080 C.3   139  TRP139      0.1737
     20  C         61.3270   37.6070   30.4940 C.2   139  TRP139      0.2595
     21  O         61.3470   37.4980   31.7230 O.2   139  TRP139     -0.2718
     22  CB        59.1240   36.3110   30.3390 C.3   139  TRP139      0.0564
     23  CG        58.3240   35.4670   29.4140 C.ar  139  TRP139      0.0003
     24  CD1       58.1040   34.1310   29.5120 C.ar  139  TRP139      0.0946
     25  CD2       57.7260   35.8840   28.1650 C.ar  139  TRP139      0.0152
     26  NE1       57.3920   33.6890   28.4180 N.ar  139  TRP139     -0.2442
     27  CE2       57.1450   34.7460   27.5830 C.ar  139  TRP139      0.0810
     28  CE3       57.6270   37.1120   27.4960 C.ar  139  TRP139      0.0012
     29  CZ2       56.4640   34.7920   26.3670 C.ar  139  TRP139      0.0191
     30  CZ3       56.9630   37.1560   26.2960 C.ar  139  TRP139      0.0001
     31  CH2       56.3790   36.0030   25.7440 C.ar  139  TRP139      0.0015
     32  N         62.1100   38.4640   29.8340 N.am  140  HIS140     -0.1961
     33  CA        63.2940   39.0740   30.4360 C.3   140  HIS140      0.1787
     34  C         63.0100   40.2990   31.3110 C.2   140  HIS140      0.2620
     35  O         63.9360   40.7820   31.9660 O.2   140  HIS140     -0.2715
     36  CB        64.3250   39.4230   29.3310 C.3   140  HIS140      0.0785
     37  CG        63.8020   40.2850   28.2140 C.ar  140  HIS140      0.0821
     38  ND1       64.6370   40.8730   27.2850 N.ar  140  HIS140     -0.2267
     39  CD2       62.5440   40.6500   27.8640 C.ar  140  HIS140      0.1154
     40  CE1       63.9170   41.5590   26.4160 C.ar  140  HIS140      0.1986
     41  NE2       62.6440   41.4420   26.7460 N.ar  140  HIS140     -0.2212
     42  N         61.7690   40.7840   31.4100 N.am  141  HIS141     -0.1973
     43  CA        61.5430   42.0020   32.1890 C.3   141  HIS141      0.1656
     44  C         61.1700   41.7550   33.6510 C.2   141  HIS141      0.2291
     45  O         61.2140   42.7010   34.4460 O.2   141  HIS141     -0.2864
     46  CB        60.4410   42.8460   31.5390 C.3   141  HIS141      0.0771
     47  CG        60.8010   43.3770   30.1820 C.ar  141  HIS141      0.0820
     48  ND1       61.9790   44.0540   29.9360 N.ar  141  HIS141     -0.2267
     49  CD2       60.1310   43.3450   29.0040 C.ar  141  HIS141      0.1154
     50  CE1       62.0230   44.4050   28.6610 C.ar  141  HIS141      0.1986
     51  NE2       60.9140   43.9930   28.0750 N.ar  141  HIS141     -0.2212
     52  N         56.0710   44.5950   31.7300 N.3   149  GLY149     -0.1225
     53  CA        56.0310   44.3800   30.2940 C.3   149  GLY149      0.1811
     54  C         55.4870   43.0210   29.9040 C.2   149  GLY149      0.2280
     55  O         56.0590   42.3430   29.0470 O.2   149  GLY149     -0.2866
     56  N         55.7740   40.4660   31.4660 N.3   151  CYS151     -0.1235
     57  CA        56.6240   39.4270   32.0420 C.3   151  CYS151      0.1677
     58  C         56.2550   39.2720   33.5080 C.2   151  CYS151      0.2270
     59  O         56.4340   40.2070   34.2950 O.2   151  CYS151     -0.2867
     60  CB        58.1110   39.7650   31.8860 C.3   151  CYS151      0.0956
     61  SG        58.6190   39.9080   30.1710 S.3   151  CYS151     -0.0801
     62  N         66.3860   40.9700   21.8290 N.3   175  ASP175     -0.1239
     63  CA        65.0800   41.6170   21.7860 C.3   175  ASP175      0.1674
     64  C         65.2020   43.1190   21.4730 C.2   175  ASP175      0.2266
     65  O         66.2280   43.7660   21.7190 O.2   175  ASP175     -0.2867
     66  CB        64.3860   41.3940   23.1230 C.3   175  ASP175      0.1410
     67  CG        62.9370   41.8080   23.1110 C.2   175  ASP175      0.3668
     68  OD1       62.6780   42.9950   23.3940 O.co2 175  ASP175     -0.2456
     69  OD2       62.0730   40.9440   22.8540 O.co2 175  ASP175     -0.2456
     70  N         63.8020   45.3820   23.0520 N.3   177  HIS177     -0.1241
     71  CA        63.8250   46.0690   24.3300 C.3   177  HIS177      0.1621
     72  C         64.9780   45.5680   25.1990 C.2   177  HIS177      0.2264
     73  O         65.4110   44.4190   25.0850 O.2   177  HIS177     -0.2867
     74  CB        62.4840   45.8760   25.0520 C.3   177  HIS177      0.0745
     75  CG        61.3150   46.3450   24.2480 C.ar  177  HIS177      0.0817
     76  ND1       60.6710   45.5400   23.3330 N.ar  177  HIS177     -0.2268
     77  CD2       60.7150   47.5570   24.1700 C.ar  177  HIS177      0.1154
     78  CE1       59.6930   46.2210   22.7600 C.ar  177  HIS177      0.1986
     79  NE2       59.7010   47.4480   23.2500 N.ar  177  HIS177     -0.2212
     80  N         60.3210   52.1510   26.4620 N.3   205  PHE205     -0.1241
     81  CA        60.3660   51.0790   27.4470 C.3   205  PHE205      0.1605
     82  C         61.6230   50.2270   27.2740 C.2   205  PHE205      0.2264
     83  O         62.0300   49.9910   26.1500 O.2   205  PHE205     -0.2867
     84  CB        59.1090   50.2160   27.3060 C.3   205  PHE205      0.0534
     85  CG        58.9940   49.1230   28.3370 C.ar  205  PHE205     -0.0203
     86  CD1       58.3850   49.3660   29.5610 C.ar  205  PHE205     -0.0042
     87  CD2       59.4660   47.8480   28.0730 C.ar  205  PHE205     -0.0042
     88  CE1       58.2590   48.3740   30.4930 C.ar  205  PHE205     -0.0003
     89  CE2       59.3460   46.8480   29.0150 C.ar  205  PHE205     -0.0003
     90  CZ        58.7490   47.1090   30.2250 C.ar  205  PHE205     -0.0000
     91  N         60.6370   41.2000   17.8360 N.3   269  ASP269     -0.1239
     92  CA        60.0890   42.5280   17.6160 C.3   269  ASP269      0.1674
     93  C         61.1000   43.5000   17.0220 C.2   269  ASP269      0.2266
     94  O         60.7620   44.6600   16.8400 O.2   269  ASP269     -0.2867
     95  CB        59.4800   43.1050   18.9080 C.3   269  ASP269      0.1410
     96  CG        60.3160   42.8370   20.1580 C.2   269  ASP269      0.3668
     97  OD1       61.4210   42.2580   20.0680 O.co2 269  ASP269     -0.2456
     98  OD2       59.8440   43.2350   21.2490 O.co2 269  ASP269     -0.2456
     99  N         54.5590   45.4990   14.6090 N.3   275  PRO275     -0.2102
    100  CA        53.8460   46.7720   14.8130 C.3   275  PRO275      0.1504
    101  C         54.6360   47.7920   15.6460 C.2   275  PRO275      0.2575
    102  O         54.2220   48.9610   15.7050 O.2   275  PRO275     -0.2718
    103  CB        52.5470   46.3500   15.5190 C.3   275  PRO275      0.0282
    104  CG        52.4530   44.8590   15.3340 C.3   275  PRO275      0.0208
    105  CD        53.8460   44.3540   15.2010 C.3   275  PRO275      0.0893
    106  N         55.7470   47.3850   16.2830 N.am  276  HIS276     -0.1976
    107  CA        56.6840   48.3420   16.8760 C.3   276  HIS276      0.1656
    108  C         57.4530   49.1070   15.8090 C.2   276  HIS276      0.2291
    109  O         57.6500   50.3210   15.9350 O.2   276  HIS276     -0.2864
    110  CB        57.6820   47.6330   17.7880 C.3   276  HIS276      0.0771
    111  CG        57.3520   47.7230   19.2430 C.ar  276  HIS276      0.0820
    112  ND1       56.1880   47.2110   19.7740 N.ar  276  HIS276     -0.2267
    113  CD2       58.0410   48.2540   20.2820 C.ar  276  HIS276      0.1154
    114  CE1       56.1740   47.4240   21.0790 C.ar  276  HIS276      0.1986
    115  NE2       57.2860   48.0560   21.4120 N.ar  276  HIS276     -0.2212
    116  N         59.6540   38.8940   22.9000 N.3   311  GLY311     -0.1225
    117  CA        58.7520   39.7600   22.1660 C.3   311  GLY311      0.1811
    118  C         58.4540   39.2850   20.7540 C.2   311  GLY311      0.2280
    119  O         59.0230   38.2910   20.2710 O.2   311  GLY311     -0.2866
    120  N         55.1670   40.7370   18.0140 N.3   313  TYR313     -0.1241
    121  CA        53.7500   41.0750   18.0610 C.3   313  TYR313      0.1605
    122  C         53.1040   41.0460   16.6820 C.2   313  TYR313      0.2264
    123  O         51.9500   41.4580   16.5380 O.2   313  TYR313     -0.2867
    124  CB        53.5790   42.4340   18.7540 C.3   313  TYR313      0.0534
    125  CG        54.2420   42.3970   20.1140 C.ar  313  TYR313     -0.0201
    126  CD1       53.5830   41.8470   21.2030 C.ar  313  TYR313     -0.0009
    127  CD2       55.5550   42.8220   20.2850 C.ar  313  TYR313     -0.0009
    128  CE1       54.1870   41.7570   22.4340 C.ar  313  TYR313      0.0417
    129  CE2       56.1800   42.7280   21.5200 C.ar  313  TYR313      0.0417
    130  CZ        55.4850   42.1930   22.5920 C.ar  313  TYR313      0.1957
    131  OH        56.0680   42.0870   23.8350 O.3   313  TYR313     -0.2866
    132  N         52.3910   37.9050   14.8130 N.3   315  PHE315     -0.1241
    133  CA        52.5530   36.4820   15.1100 C.3   315  PHE315      0.1605
    134  C         52.9800   35.6440   13.9030 C.2   315  PHE315      0.2264
    135  O         53.8820   34.8020   14.0690 O.2   315  PHE315     -0.2867
    136  CB        51.2680   35.9180   15.7440 C.3   315  PHE315      0.0534
    137  CG        50.8570   36.6090   17.0220 C.ar  315  PHE315     -0.0203
    138  CD1       51.7020   37.5050   17.6550 C.ar  315  PHE315     -0.0042
    139  CD2       49.6090   36.3640   17.5890 C.ar  315  PHE315     -0.0042
    140  CE1       51.3120   38.1620   18.8240 C.ar  315  PHE315     -0.0003
    141  CE2       49.2170   37.0050   18.7560 C.ar  315  PHE315     -0.0003
    142  CZ        50.0770   37.9060   19.3780 C.ar  315  PHE315     -0.0000
@<TRIPOS>BOND
     1   134   135    2
     2   134   133    1
     3    99   100    1
     4    99   105    1
     5   100   103    1
     6   100   101    1
     7   132   133    1
     8   133   136    1
     9   105   104    1
    10   104   103    1
    11   101   102    2
    12   101   106   am
    13   136   137    1
    14   108   109    2
    15   108   107    1
    16   106   107    1
    17   123   122    2
    18   122   121    1
    19    94    93    2
    20   107   110    1
    21   137   139   ar
    22   137   138   ar
    23    93    92    1
    24   139   141   ar
    25    92    91    1
    26    92    95    1
    27   138   140   ar
    28   110   111    1
    29   120   121    1
    30   121   124    1
    31   124   125    1
    32   141   142   ar
    33   140   142   ar
    34    95    96    1
    35   111   112   ar
    36   111   113   ar
    37   112   114   ar
    38    97    96   ar
    39   125   127   ar
    40   125   126   ar
    41    96    98   ar
    42   119   118    2
    43   113   115   ar
    44   127   129   ar
    45   118   117    1
    46   114   115   ar
    47   126   128   ar
    48    64    65    2
    49    64    63    1
    50   129   130   ar
    51    63    62    1
    52    63    66    1
    53   117   116    1
    54   128   130   ar
    55     4     3    2
    56   130   131    1
    57    78    79   ar
    58    78    76   ar
    59    69    67   ar
    60    70    71    1
    61    67    66    1
    62    67    68   ar
    63    79    77   ar
    64    76    75   ar
    65     3     2    1
    66    77    75   ar
    67    75    74    1
    68    71    74    1
    69    71    72    1
    70     2     1    1
    71     2     5    1
    72     7     6    1
    73     7     8    1
    74     6     5    1
    75    73    72    2
    76    31    30   ar
    77    31    29   ar
    78    83    82    2
    79    30    28   ar
    80    29    27   ar
    81     8     9    1
    82    40    41   ar
    83    40    38   ar
    84    80    81    1
    85    41    39   ar
    86    82    81    1
    87    38    37   ar
    88    84    81    1
    89    84    85    1
    90    28    25   ar
    91    27    25   ar
    92    27    26   ar
    93    39    37   ar
    94    87    85   ar
    95    87    89   ar
    96    51    50   ar
    97    51    49   ar
    98    25    23   ar
    99    37    36    1
   100    85    86   ar
   101    26    24   ar
   102    16    15   ar
   103    50    48   ar
   104    49    47   ar
   105    89    90   ar
   106    18    19    1
   107    55    54    2
   108    15    17   ar
   109    15    14    1
   110    36    33    1
   111    23    24   ar
   112    23    22    1
   113    86    88   ar
   114    19    22    1
   115    19    20    1
   116    32    33    1
   117    32    20   am
   118    54    53    1
   119    48    47   ar
   120    61    60    1
   121    14    11    1
   122    47    46    1
   123    90    88   ar
   124    53    52    1
   125    33    34    1
   126    20    21    2
   127    13    12    2
   128    11    12    1
   129    11    10    1
   130    34    42   am
   131    34    35    2
   132    42    43    1
   133    56    57    1
   134    46    43    1
   135    60    57    1
   136    57    58    1
   137    43    44    1
   138    58    59    2
   139    44    45    2
