@<TRIPOS>MOLECULE
tmp/6gxyA00.pdb
 82 84 0 0 0
SMALL
GASTEIGER

@<TRIPOS>ATOM
      1  N         -3.1000    3.1540   17.2430 N.3    40  TRP40      -0.1227
      2  CA        -3.3380    4.3260   18.0990 C.3    40  TRP40       0.1737
      3  C         -2.5810    4.2910   19.4340 C.2    40  TRP40       0.2596
      4  O         -2.6850    5.2230   20.2010 O.2    40  TRP40      -0.2718
      5  CB        -4.8440    4.5610   18.3430 C.3    40  TRP40       0.0564
      6  CG        -5.6970    3.3480   18.2870 C.ar   40  TRP40       0.0003
      7  CD1       -6.5940    3.0260   17.3040 C.ar   40  TRP40       0.0946
      8  CD2       -5.7330    2.2660   19.2320 C.ar   40  TRP40       0.0152
      9  NE1       -7.1820    1.8230   17.5760 N.ar   40  TRP40      -0.2442
     10  CE2       -6.6830    1.3310   18.7520 C.ar   40  TRP40       0.0810
     11  CE3       -5.0610    2.0000   20.4380 C.ar   40  TRP40       0.0012
     12  CZ2       -6.9690    0.1450   19.4210 C.ar   40  TRP40       0.0191
     13  CZ3       -5.3460    0.8220   21.1080 C.ar   40  TRP40       0.0001
     14  CH2       -6.2950   -0.0990   20.5940 C.ar   40  TRP40       0.0015
     15  N         -1.8240    3.2380   19.6990 N.am   41  CYS41      -0.1957
     16  CA        -1.1050    3.1050   20.9620 C.3    41  CYS41       0.1828
     17  C          0.2450    3.8370   20.8720 C.2    41  CYS41       0.2467
     18  O          1.1030    3.4080   20.1100 O.2    41  CYS41      -0.2730
     19  CB        -0.8810    1.6240   21.2510 C.3    41  CYS41       0.0996
     20  SG        -0.3420    1.2990   22.9370 S.3    41  CYS41      -0.0797
     21  N          0.4480    4.9400   21.6260 N.am   42  PRO42      -0.2716
     22  CA         1.7040    5.7270   21.4750 C.3    42  PRO42       0.1521
     23  C          3.0280    4.9540   21.5690 C.2    42  PRO42       0.2440
     24  O          3.8500    5.0810   20.6470 O.2    42  PRO42      -0.2731
     25  CB         1.5880    6.8250   22.5410 C.3    42  PRO42       0.0310
     26  CG         0.1140    6.9610   22.7680 C.3    42  PRO42       0.0237
     27  CD        -0.4720    5.5910   22.5850 C.3    42  PRO42       0.0939
     28  N          3.2290    4.1260   22.6180 N.am   43  PRO43      -0.2727
     29  CA         4.5010    3.3980   22.6040 C.3    43  PRO43       0.1402
     30  C          4.6800    2.4670   21.4060 C.2    43  PRO43       0.2269
     31  O          5.8140    2.2470   21.0100 O.2    43  PRO43      -0.2865
     32  CB         4.5060    2.6080   23.9220 C.3    43  PRO43       0.0296
     33  CG         3.1320    2.7080   24.4620 C.3    43  PRO43       0.0237
     34  CD         2.4880    3.9190   23.8730 C.3    43  PRO43       0.0939
     35  N         -4.6210   -4.9400   17.6400 N.3    71  TRP71      -0.1241
     36  CA        -5.8600   -4.6220   18.3770 C.3    71  TRP71       0.1605
     37  C         -6.7970   -3.6640   17.6220 C.2    71  TRP71       0.2264
     38  O         -7.8850   -3.3480   18.1210 O.2    71  TRP71      -0.2867
     39  CB        -5.5350   -4.0510   19.7790 C.3    71  TRP71       0.0550
     40  CG        -5.7710   -5.0330   20.8770 C.ar   71  TRP71       0.0003
     41  CD1       -6.9080   -5.1940   21.6260 C.ar   71  TRP71       0.0946
     42  CD2       -4.8500   -6.0110   21.3310 C.ar   71  TRP71       0.0152
     43  NE1       -6.7420   -6.2210   22.5130 N.ar   71  TRP71      -0.2442
     44  CE2       -5.4860   -6.7430   22.3560 C.ar   71  TRP71       0.0810
     45  CE3       -3.5440   -6.3390   20.9720 C.ar   71  TRP71       0.0012
     46  CZ2       -4.8570   -7.7860   23.0240 C.ar   71  TRP71       0.0191
     47  CZ3       -2.9140   -7.3670   21.6360 C.ar   71  TRP71       0.0001
     48  CH2       -3.5700   -8.0860   22.6500 C.ar   71  TRP71       0.0015
     49  N         -3.3990  -13.1090   22.6450 N.3   102  GLY102     -0.1225
     50  CA        -2.7520  -12.3490   23.7230 C.3   102  GLY102      0.1811
     51  C         -2.7610  -13.0920   25.0550 C.2   102  GLY102      0.2280
     52  O         -1.7420  -13.1540   25.7490 O.2   102  GLY102     -0.2866
     53  N          0.2300  -11.8070   27.2380 N.3   107  VAL107     -0.1231
     54  CA         0.4340  -10.4100   26.8300 C.3   107  VAL107      0.1692
     55  C         -0.4320   -9.5240   27.7350 C.2   107  VAL107      0.2592
     56  O         -1.6640   -9.6320   27.7160 O.2   107  VAL107     -0.2718
     57  CB         0.1060  -10.1890   25.3380 C.3   107  VAL107      0.0266
     58  CG1        0.2190   -8.7180   24.9490 C.3   107  VAL107      0.0020
     59  CG2        1.0490  -11.0180   24.4680 C.3   107  VAL107      0.0020
     60  N          0.2250   -8.6860   28.5440 N.am  108  GLU108     -0.1966
     61  CA        -0.4520   -7.7870   29.4890 C.3   108  GLU108      0.1733
     62  C         -0.4240   -6.3090   29.0830 C.2   108  GLU108      0.2617
     63  O         -1.1050   -5.4970   29.7030 O.2   108  GLU108     -0.2715
     64  CB         0.1420   -7.9400   30.8850 C.3   108  GLU108      0.0429
     65  CG        -0.1740   -9.2770   31.5360 C.3   108  GLU108      0.1163
     66  CD        -1.6580   -9.5990   31.5500 C.2   108  GLU108      0.3649
     67  OE1       -1.9960  -10.7980   31.6420 O.co2 108  GLU108     -0.2457
     68  OE2       -2.4890   -8.6640   31.4680 O.co2 108  GLU108     -0.2457
     69  N          0.3670   -5.9700   28.0680 N.am  109  SER109     -0.1936
     70  CA         0.3820   -4.6300   27.4980 C.3   109  SER109      0.2055
     71  C          0.9870   -4.7490   26.1140 C.2   109  SER109      0.2642
     72  O          1.4560   -5.8230   25.7430 O.2   109  SER109     -0.2714
     73  CB         1.2170   -3.6750   28.3600 C.3   109  SER109      0.2130
     74  OG         2.5700   -4.0950   28.3850 O.3   109  SER109     -0.2179
     75  N          0.9460   -3.6530   25.3560 N.am  110  ILE110     -0.1977
     76  CA         1.6320   -3.5570   24.0660 C.3   110  ILE110      0.1596
     77  C          2.4360   -2.2510   24.0390 C.2   110  ILE110      0.2287
     78  O          2.1260   -1.3270   24.8090 O.2   110  ILE110     -0.2864
     79  CB         0.6520   -3.6210   22.8750 C.3   110  ILE110      0.0276
     80  CG1       -0.3540   -2.4650   22.9200 C.3   110  ILE110      0.0022
     81  CG2       -0.0800   -4.9490   22.8700 C.3   110  ILE110      0.0022
     82  CD1       -1.3520   -2.4640   21.7740 C.3   110  ILE110      0.0001
@<TRIPOS>BOND
     1     1     2    1
     2     7     9   ar
     3     7     6   ar
     4     9    10   ar
     5    37    38    2
     6    37    36    1
     7    35    36    1
     8     2     5    1
     9     2     3    1
    10     6     5    1
    11     6     8   ar
    12    36    39    1
    13    10     8   ar
    14    10    12   ar
    15     8    11   ar
    16    12    14   ar
    17     3    15   am
    18     3     4    2
    19    15    16    1
    20    39    40    1
    21    18    17    2
    22    11    13   ar
    23    14    13   ar
    24    24    23    2
    25    17    16    1
    26    17    21   am
    27    40    42   ar
    28    40    41   ar
    29    16    19    1
    30    45    42   ar
    31    45    47   ar
    32    31    30    2
    33    19    20    1
    34    42    44   ar
    35    30    29    1
    36    22    23    1
    37    22    21    1
    38    22    25    1
    39    23    28   am
    40    21    27    1
    41    41    43   ar
    42    47    48   ar
    43    82    80    1
    44    44    43   ar
    45    44    46   ar
    46    25    26    1
    47    27    26    1
    48    29    28    1
    49    29    32    1
    50    28    34    1
    51    49    50    1
    52    48    46   ar
    53    81    79    1
    54    79    80    1
    55    79    76    1
    56    50    51    1
    57    34    33    1
    58    32    33    1
    59    77    76    1
    60    77    78    2
    61    76    75    1
    62    59    57    1
    63    58    57    1
    64    51    52    2
    65    57    54    1
    66    75    71   am
    67    72    71    2
    68    71    70    1
    69    54    53    1
    70    54    55    1
    71    70    69    1
    72    70    73    1
    73    56    55    2
    74    55    60   am
    75    69    62   am
    76    73    74    1
    77    60    61    1
    78    62    61    1
    79    62    63    2
    80    61    64    1
    81    64    65    1
    82    68    66   ar
    83    65    66    1
    84    66    67   ar
