@<TRIPOS>MOLECULE
tmp/6gy0A00.pdb
 187 180 0 0 0
SMALL
GASTEIGER

@<TRIPOS>ATOM
      1  N          5.4040  -49.6450  -15.1990 N.3   556  MET556     -0.1245
      2  CA         5.9390  -50.7760  -15.9530 C.3   556  MET556      0.1570
      3  C          6.9170  -51.5940  -15.1240 C.2   556  MET556      0.2261
      4  O          7.5330  -51.0960  -14.1930 O.2   556  MET556     -0.2867
      5  CB         6.5730  -50.2900  -17.2470 C.3   556  MET556      0.0387
      6  CG         5.5210  -49.8500  -18.2430 C.3   556  MET556      0.0595
      7  SD         6.1350  -48.6790  -19.4540 S.3   556  MET556     -0.1393
      8  CE         6.3060  -47.2030  -18.4610 C.3   556  MET556      0.0692
      9  N          9.8140  -53.1210  -15.6550 N.3   558  SER558     -0.1217
     10  CA        11.2740  -52.9860  -15.7600 C.3   558  SER558      0.1889
     11  C         11.8860  -52.4380  -14.4680 C.2   558  SER558      0.2288
     12  O         11.1680  -51.9130  -13.6070 O.2   558  SER558     -0.2866
     13  CB        11.6600  -52.1140  -16.9670 C.3   558  SER558      0.2089
     14  OG        10.8720  -50.9410  -17.0530 O.3   558  SER558     -0.2183
     15  N          9.2890  -47.4220  -14.4770 N.3   562  PRO562     -0.2116
     16  CA         8.8070  -46.1760  -15.0690 C.3   562  PRO562      0.1372
     17  C          7.2870  -46.0420  -14.9440 C.2   562  PRO562      0.2244
     18  O          6.5520  -47.0120  -15.1430 O.2   562  PRO562     -0.2868
     19  CB         9.2690  -46.2550  -16.5400 C.3   562  PRO562      0.0268
     20  CG         9.7150  -47.6590  -16.7690 C.3   562  PRO562      0.0207
     21  CD        10.0840  -48.2200  -15.4270 C.3   562  PRO562      0.0892
     22  N          3.5450  -44.7400  -15.8910 N.3   564  TRP564     -0.1241
     23  CA         2.7490  -44.6180  -17.0950 C.3   564  TRP564      0.1605
     24  C          1.6170  -43.6770  -16.7310 C.2   564  TRP564      0.2264
     25  O          0.7290  -44.0550  -15.9710 O.2   564  TRP564     -0.2867
     26  CB         2.2030  -45.9950  -17.4670 C.3   564  TRP564      0.0550
     27  CG         1.3490  -45.9860  -18.6630 C.ar  564  TRP564      0.0003
     28  CD1        0.0300  -45.6500  -18.7310 C.ar  564  TRP564      0.0946
     29  CD2        1.7500  -46.3240  -19.9870 C.ar  564  TRP564      0.0152
     30  NE1       -0.4150  -45.7470  -20.0240 N.ar  564  TRP564     -0.2442
     31  CE2        0.6210  -46.1630  -20.8150 C.ar  564  TRP564      0.0810
     32  CE3        2.9570  -46.7470  -20.5570 C.ar  564  TRP564      0.0012
     33  CZ2        0.6590  -46.4170  -22.1820 C.ar  564  TRP564      0.0191
     34  CZ3        2.9950  -46.9940  -21.9200 C.ar  564  TRP564      0.0001
     35  CH2        1.8500  -46.8280  -22.7140 C.ar  564  TRP564      0.0015
     36  N          5.6220  -41.0040  -19.8850 N.3   581  ILE581     -0.1245
     37  CA         6.3240  -41.9510  -19.0380 C.3   581  ILE581      0.1561
     38  C          7.4270  -41.2070  -18.3190 C.2   581  ILE581      0.2260
     39  O          8.3340  -40.6780  -18.9540 O.2   581  ILE581     -0.2867
     40  CB         6.9030  -43.1260  -19.8430 C.3   581  ILE581      0.0252
     41  CG1        5.7690  -44.0750  -20.2410 C.3   581  ILE581      0.0019
     42  CG2        7.9790  -43.8760  -19.0510 C.3   581  ILE581      0.0019
     43  CD1        6.1100  -44.9650  -21.4160 C.3   581  ILE581      0.0001
     44  N         10.5320  -41.6580  -16.0670 N.3   583  LYS583     -0.1245
     45  CA        11.5400  -42.6510  -15.6850 C.3   583  LYS583      0.1561
     46  C         12.6150  -41.9660  -14.8400 C.2   583  LYS583      0.2260
     47  O         13.2190  -40.9770  -15.2600 O.2   583  LYS583     -0.2867
     48  CB        12.1580  -43.3360  -16.9220 C.3   583  LYS583      0.0271
     49  CG        13.3570  -44.2410  -16.6060 C.3   583  LYS583      0.0035
     50  CD        13.3130  -45.6040  -17.2940 C.3   583  LYS583      0.0206
     51  CE        13.9610  -45.6120  -18.6660 C.3   583  LYS583      0.1093
     52  NZ        13.1600  -44.8510  -19.6570 N.3   583  LYS583     -0.1314
     53  N         19.4810  -41.9810  -24.8930 N.3   591  ASP591     -0.1239
     54  CA        18.2210  -42.1390  -25.6200 C.3   591  ASP591      0.1674
     55  C         17.8730  -40.8860  -26.4240 C.2   591  ASP591      0.2266
     56  O         17.5770  -40.9810  -27.6130 O.2   591  ASP591     -0.2867
     57  CB        17.0600  -42.4730  -24.6670 C.3   591  ASP591      0.1410
     58  CG        17.0660  -43.9210  -24.2160 C.2   591  ASP591      0.3668
     59  OD1       16.8480  -44.8110  -25.0660 O.co2 591  ASP591     -0.2456
     60  OD2       17.2680  -44.1730  -23.0080 O.co2 591  ASP591     -0.2456
     61  N         17.2010  -40.5580  -30.5200 N.3   595  LEU595     -0.1245
     62  CA        15.8970  -40.2010  -31.1070 C.3   595  LEU595      0.1561
     63  C         15.9260  -38.9190  -31.9360 C.2   595  LEU595      0.2260
     64  O         15.1720  -38.7990  -32.9010 O.2   595  LEU595     -0.2867
     65  CB        14.8360  -40.0770  -30.0140 C.3   595  LEU595      0.0270
     66  CG        14.4750  -41.4250  -29.4000 C.3   595  LEU595      0.0019
     67  CD1       13.9110  -41.2600  -27.9940 C.3   595  LEU595      0.0001
     68  CD2       13.5060  -42.1650  -30.3050 C.3   595  LEU595      0.0001
     69  N          9.1850  -39.7970  -31.4750 N.3   617  TYR617     -0.1241
     70  CA         8.5150  -39.5330  -30.1810 C.3   617  TYR617      0.1605
     71  C          9.4390  -38.8250  -29.1810 C.2   617  TYR617      0.2264
     72  O         10.6330  -39.0890  -29.1250 O.2   617  TYR617     -0.2867
     73  CB         7.9390  -40.8200  -29.5660 C.3   617  TYR617      0.0534
     74  CG         8.9660  -41.8670  -29.1700 C.ar  617  TYR617     -0.0201
     75  CD1        9.3850  -42.8400  -30.0800 C.ar  617  TYR617     -0.0009
     76  CD2        9.5150  -41.8950  -27.8890 C.ar  617  TYR617     -0.0009
     77  CE1       10.3160  -43.8020  -29.7320 C.ar  617  TYR617      0.0417
     78  CE2       10.4460  -42.8590  -27.5320 C.ar  617  TYR617      0.0417
     79  CZ        10.8370  -43.8130  -28.4580 C.ar  617  TYR617      0.1957
     80  OH        11.7710  -44.7720  -28.1400 O.3   617  TYR617     -0.2866
     81  N         11.5880  -37.4910  -26.0990 N.3   619  CYS619     -0.1235
     82  CA        12.3830  -38.0040  -24.9930 C.3   619  CYS619      0.1677
     83  C         13.1880  -36.8370  -24.4510 C.2   619  CYS619      0.2270
     84  O         13.9250  -36.2100  -25.2030 O.2   619  CYS619     -0.2867
     85  CB        13.3160  -39.1130  -25.4650 C.3   619  CYS619      0.0956
     86  SG        14.1790  -39.9300  -24.1120 S.3   619  CYS619     -0.0801
     87  N          9.3010  -39.4830  -21.3320 N.3   629  ILE629     -0.1231
     88  CA         9.2120  -40.1170  -22.6470 C.3   629  ILE629      0.1692
     89  C          7.7670  -40.0210  -23.0780 C.2   629  ILE629      0.2592
     90  O          6.8750  -40.2940  -22.2780 O.2   629  ILE629     -0.2718
     91  CB         9.6050  -41.6080  -22.6160 C.3   629  ILE629      0.0266
     92  CG1       10.8690  -41.8010  -21.7790 C.3   629  ILE629      0.0019
     93  CG2        9.8020  -42.1300  -24.0340 C.3   629  ILE629      0.0020
     94  CD1       11.4670  -43.1870  -21.8150 C.3   629  ILE629      0.0001
     95  N          7.5520  -39.6340  -24.3360 N.am  630  GLU630     -0.1966
     96  CA         6.2140  -39.5110  -24.9080 C.3   630  GLU630      0.1733
     97  C          5.6730  -40.9060  -25.1740 C.2   630  GLU630      0.2616
     98  O          6.3810  -41.7420  -25.6990 O.2   630  GLU630     -0.2715
     99  CB         6.2590  -38.7150  -26.2190 C.3   630  GLU630      0.0429
    100  CG         4.9050  -38.2190  -26.7150 C.3   630  GLU630      0.1163
    101  CD         4.8550  -37.9710  -28.2230 C.2   630  GLU630      0.3649
    102  OE1        5.8930  -37.6270  -28.8380 O.co2 630  GLU630     -0.2457
    103  OE2        3.7520  -38.1140  -28.7970 O.co2 630  GLU630     -0.2457
    104  N          4.4260  -41.1530  -24.7940 N.am  631  VAL631     -0.1963
    105  CA         3.7860  -42.4320  -25.0640 C.3   631  VAL631      0.1727
    106  C          3.2550  -42.4190  -26.4880 C.2   631  VAL631      0.2616
    107  O          2.4840  -41.5320  -26.8700 O.2   631  VAL631     -0.2715
    108  CB         2.6170  -42.7230  -24.1030 C.3   631  VAL631      0.0290
    109  CG1        1.8690  -43.9800  -24.5350 C.3   631  VAL631      0.0023
    110  CG2        3.1280  -42.8740  -22.6730 C.3   631  VAL631      0.0023
    111  N          3.6690  -43.4140  -27.2610 N.am  632  VAL632     -0.1963
    112  CA         3.0650  -43.6740  -28.5450 C.3   632  VAL632      0.1727
    113  C          1.9380  -44.6500  -28.2430 C.2   632  VAL632      0.2616
    114  O          2.1730  -45.8450  -28.0450 O.2   632  VAL632     -0.2715
    115  CB         4.0800  -44.2450  -29.5580 C.3   632  VAL632      0.0290
    116  CG1        3.3990  -44.5440  -30.8840 C.3   632  VAL632      0.0023
    117  CG2        5.2320  -43.2630  -29.7700 C.3   632  VAL632      0.0023
    118  N          0.7210  -44.1160  -28.1640 N.am  633  LEU633     -0.1963
    119  CA        -0.4760  -44.9130  -27.8890 C.3   633  LEU633      0.1728
    120  C         -0.8190  -45.8100  -29.0650 C.2   633  LEU633      0.2616
    121  O         -0.3010  -45.6240  -30.1670 O.2   633  LEU633     -0.2715
    122  CB        -1.6710  -44.0020  -27.5680 C.3   633  LEU633      0.0311
    123  CG        -1.5700  -43.2500  -26.2390 C.3   633  LEU633      0.0022
    124  CD1       -2.5020  -42.0480  -26.1840 C.3   633  LEU633      0.0001
    125  CD2       -1.8220  -44.1780  -25.0570 C.3   633  LEU633      0.0001
    126  N         -1.6920  -46.7840  -28.8080 N.am  634  HIS634     -0.1959
    127  CA        -2.1910  -47.6960  -29.8310 C.3   634  HIS634      0.1787
    128  C         -1.0450  -48.4830  -30.4910 C.2   634  HIS634      0.2620
    129  O         -0.9690  -48.5990  -31.7160 O.2   634  HIS634     -0.2715
    130  CB        -3.0330  -46.9390  -30.8790 C.3   634  HIS634      0.0785
    131  CG        -4.2270  -46.2330  -30.3080 C.ar  634  HIS634      0.0821
    132  ND1       -4.4200  -44.8740  -30.4370 N.ar  634  HIS634     -0.2267
    133  CD2       -5.2890  -46.7000  -29.6080 C.ar  634  HIS634      0.1154
    134  CE1       -5.5490  -44.5330  -29.8410 C.ar  634  HIS634      0.1986
    135  NE2       -6.0950  -45.6210  -29.3270 N.ar  634  HIS634     -0.2212
    136  N         -0.1600  -49.0170  -29.6550 N.am  635  SER635     -0.1950
    137  CA         0.9890  -49.7880  -30.1200 C.3   635  SER635      0.1924
    138  C          1.3430  -50.8910  -29.1280 C.2   635  SER635      0.2314
    139  O          0.9730  -50.8360  -27.9550 O.2   635  SER635     -0.2863
    140  CB         2.1960  -48.8630  -30.3680 C.3   635  SER635      0.2116
    141  OG         2.6370  -48.2090  -29.1860 O.3   635  SER635     -0.2180
    142  N          8.5740  -51.8710  -31.1550 N.3   704  MET704     -0.1245
    143  CA         7.1270  -51.7320  -31.0960 C.3   704  MET704      0.1570
    144  C          6.5260  -51.5320  -32.4740 C.2   704  MET704      0.2261
    145  O          7.1710  -50.9740  -33.3730 O.2   704  MET704     -0.2867
    146  CB         6.7440  -50.5640  -30.1990 C.3   704  MET704      0.0387
    147  CG         7.2120  -50.7480  -28.7680 C.3   704  MET704      0.0595
    148  SD         6.2080  -49.8490  -27.5800 S.3   704  MET704     -0.1393
    149  CE         4.8240  -50.9620  -27.3880 C.3   704  MET704      0.0692
    150  N          8.7210  -48.9730  -34.8830 N.3   712  PHE712     -0.1241
    151  CA         9.7480  -48.0980  -34.3020 C.3   712  PHE712      0.1605
    152  C         10.4500  -48.7490  -33.1180 C.2   712  PHE712      0.2264
    153  O          9.9860  -49.7580  -32.5950 O.2   712  PHE712     -0.2867
    154  CB         9.1520  -46.7480  -33.8910 C.3   712  PHE712      0.0534
    155  CG         8.1080  -46.8390  -32.8150 C.ar  712  PHE712     -0.0203
    156  CD1        6.8140  -47.2420  -33.1130 C.ar  712  PHE712     -0.0042
    157  CD2        8.4130  -46.5040  -31.5000 C.ar  712  PHE712     -0.0042
    158  CE1        5.8510  -47.3270  -32.1150 C.ar  712  PHE712     -0.0003
    159  CE2        7.4500  -46.5780  -30.5050 C.ar  712  PHE712     -0.0003
    160  CZ         6.1690  -46.9900  -30.8130 C.ar  712  PHE712     -0.0000
    161  N         12.4930  -48.7430  -29.2360 N.3   714  ILE714     -0.1231
    162  CA        12.5840  -48.2080  -27.8730 C.3   714  ILE714      0.1692
    163  C         13.8460  -48.7400  -27.1940 C.2   714  ILE714      0.2592
    164  O         14.4620  -49.6910  -27.6720 O.2   714  ILE714     -0.2718
    165  CB        11.3220  -48.5190  -27.0340 C.3   714  ILE714      0.0266
    166  CG1       11.1430  -50.0260  -26.8140 C.3   714  ILE714      0.0019
    167  CG2       10.0850  -47.9410  -27.7170 C.3   714  ILE714      0.0020
    168  CD1        9.9400  -50.3880  -25.9660 C.3   714  ILE714      0.0001
    169  N         14.2100  -48.1030  -26.0840 N.am  715  ASP715     -0.1960
    170  CA        15.4390  -48.3790  -25.3200 C.3   715  ASP715      0.1840
    171  C         16.7390  -48.3530  -26.1550 C.2   715  ASP715      0.2622
    172  O         17.0950  -49.3260  -26.8290 O.2   715  ASP715     -0.2715
    173  CB        15.3180  -49.6910  -24.5350 C.3   715  ASP715      0.1450
    174  CG        16.2190  -49.7160  -23.3040 C.2   715  ASP715      0.3671
    175  OD1       15.8720  -49.0600  -22.2930 O.co2 715  ASP715     -0.2456
    176  OD2       17.2810  -50.3780  -23.3560 O.co2 715  ASP715     -0.2456
    177  N         17.4290  -47.2160  -26.0940 N.am  716  PHE716     -0.1974
    178  CA        18.7000  -47.0120  -26.7770 C.3   716  PHE716      0.1639
    179  C         19.8240  -46.9070  -25.7540 C.2   716  PHE716      0.2290
    180  O         20.3690  -45.8300  -25.5050 O.2   716  PHE716     -0.2864
    181  CB        18.6370  -45.7510  -27.6320 C.3   716  PHE716      0.0560
    182  CG        17.5600  -45.7840  -28.6660 C.ar  716  PHE716     -0.0200
    183  CD1       17.7020  -46.5730  -29.8000 C.ar  716  PHE716     -0.0042
    184  CD2       16.4080  -45.0300  -28.5130 C.ar  716  PHE716     -0.0042
    185  CE1       16.7170  -46.6050  -30.7690 C.ar  716  PHE716     -0.0003
    186  CE2       15.4160  -45.0590  -29.4760 C.ar  716  PHE716     -0.0003
    187  CZ        15.5690  -45.8480  -30.6050 C.ar  716  PHE716     -0.0000
@<TRIPOS>BOND
     1   150   151    1
     2   151   154    1
     3   151   152    1
     4   154   155    1
     5   145   144    2
     6   152   153    2
     7   156   155   ar
     8   156   158   ar
     9    64    63    2
    10   155   157   ar
    11   144   143    1
    12   158   160   ar
    13    63    62    1
    14   129   128    2
    15   157   159   ar
    16    69    70    1
    17   142   143    1
    18    62    61    1
    19    62    65    1
    20   143   146    1
    21   116   115    1
    22   130   131    1
    23   130   127    1
    24   160   159   ar
    25   185   187   ar
    26   185   183   ar
    27   187   186   ar
    28   128   127    1
    29   128   136   am
    30   132   131   ar
    31   132   134   ar
    32   140   137    1
    33   140   141    1
    34   131   133   ar
    35    68    66    1
    36   146   147    1
    37    70    73    1
    38    70    71    1
    39   121   120    2
    40   137   136    1
    41   137   138    1
    42    75    77   ar
    43    75    74   ar
    44    65    66    1
    45   134   135   ar
    46   127   126    1
    47   183   182   ar
    48   117   115    1
    49    77    79   ar
    50   133   135   ar
    51    73    74    1
    52   115   112    1
    53   186   184   ar
    54    66    67    1
    55   161   162    1
    56    71    72    2
    57    74    76   ar
    58   138   139    2
    59   120   126   am
    60   120   119    1
    61   102   101   ar
    62   103   101   ar
    63   147   148    1
    64   182   184   ar
    65   182   181    1
    66   112   113    1
    67   112   111    1
    68    79    80    1
    69    79    78   ar
    70   113   118   am
    71   113   114    2
    72   101   100    1
    73   118   119    1
    74   119   122    1
    75    76    78   ar
    76   162   163    1
    77   162   165    1
    78   167   165    1
    79   164   163    2
    80   181   178    1
    81    56    55    2
    82   148   149    1
    83   122   123    1
    84   111   106   am
    85   163   169   am
    86   165   166    1
    87   107   106    2
    88   172   171    2
    89   166   168    1
    90   178   177    1
    91   178   179    1
    92   100    99    1
    93   106   105    1
    94    55    54    1
    95   123   124    1
    96   123   125    1
    97    99    96    1
    98   171   177   am
    99   171   170    1
   100    81    82    1
   101   169   170    1
   102   179   180    2
   103    98    97    2
   104    54    53    1
   105    54    57    1
   106    85    82    1
   107    85    86    1
   108   170   173    1
   109    84    83    2
   110    97    96    1
   111    97   104   am
   112    59    58   ar
   113   105   104    1
   114   105   108    1
   115    82    83    1
   116    96    95    1
   117    57    58    1
   118   109   108    1
   119   173   174    1
   120    95    89   am
   121    58    60   ar
   122   108   110    1
   123    93    91    1
   124   176   174   ar
   125   174   175   ar
   126    89    88    1
   127    89    90    2
   128    35    33   ar
   129    35    34   ar
   130    88    91    1
   131    88    87    1
   132    91    92    1
   133    33    31   ar
   134    34    32   ar
   135    94    92    1
   136    43    41    1
   137    31    30   ar
   138    31    29   ar
   139    32    29   ar
   140    41    40    1
   141    30    28   ar
   142    29    27   ar
   143    36    37    1
   144    40    42    1
   145    40    37    1
   146    52    51    1
   147     7     8    1
   148     7     6    1
   149    37    38    1
   150    39    38    2
   151    28    27   ar
   152    51    50    1
   153    27    26    1
   154     6     5    1
   155    26    23    1
   156    50    49    1
   157     5     2    1
   158    23    24    1
   159    23    22    1
   160    14    13    1
   161    13    10    1
   162    48    49    1
   163    48    45    1
   164    20    19    1
   165    20    21    1
   166    24    25    2
   167    19    16    1
   168    44    45    1
   169     2     1    1
   170     2     3    1
   171    10     9    1
   172    10    11    1
   173    45    46    1
   174    21    15    1
   175    47    46    2
   176    18    17    2
   177     3     4    2
   178    16    17    1
   179    16    15    1
   180    11    12    2
