@<TRIPOS>MOLECULE
tmp/6gy1A01.pdb
 143 142 0 0 0
SMALL
GASTEIGER

@<TRIPOS>ATOM
      1  N          5.5950  -10.4730   -8.9930 N.3     3  LYS3       -0.1245
      2  CA         6.4610  -11.4790   -9.5950 C.3     3  LYS3        0.1561
      3  C          7.8770  -11.4040   -9.0400 C.2     3  LYS3        0.2260
      4  O          8.5290  -12.4410   -8.8610 O.2     3  LYS3       -0.2867
      5  CB         6.4850  -11.3160  -11.1130 C.3     3  LYS3        0.0271
      6  CG         7.2880  -12.3900  -11.8170 C.3     3  LYS3        0.0035
      7  CD         7.0050  -12.4000  -13.3150 C.3     3  LYS3        0.0206
      8  CE         7.4480  -11.1040  -13.9760 C.3     3  LYS3        0.1093
      9  NZ         7.3390  -11.2440  -15.4760 N.3     3  LYS3       -0.1314
     10  N          8.1510  -16.0790  -16.9060 N.3    36  TRP36      -0.1241
     11  CA         9.1980  -15.3580  -17.6240 C.3    36  TRP36       0.1605
     12  C          9.4750  -14.0130  -16.9570 C.2    36  TRP36       0.2264
     13  O          8.5760  -13.3750  -16.4030 O.2    36  TRP36      -0.2867
     14  CB         8.7980  -15.1380  -19.0830 C.3    36  TRP36       0.0550
     15  CG         9.8780  -14.4500  -19.8800 C.ar   36  TRP36       0.0003
     16  CD1       10.8100  -15.0460  -20.6920 C.ar   36  TRP36       0.0946
     17  CD2       10.1450  -13.0440  -19.9310 C.ar   36  TRP36       0.0152
     18  NE1       11.6270  -14.0930  -21.2550 N.ar   36  TRP36      -0.2442
     19  CE2       11.2510  -12.8590  -20.7900 C.ar   36  TRP36       0.0810
     20  CE3        9.5530  -11.9180  -19.3360 C.ar   36  TRP36       0.0012
     21  CZ2       11.7790  -11.6040  -21.0600 C.ar   36  TRP36       0.0191
     22  CZ3       10.0800  -10.6680  -19.6050 C.ar   36  TRP36       0.0001
     23  CH2       11.1840  -10.5210  -20.4630 C.ar   36  TRP36       0.0015
     24  N         12.6110  -10.5070  -17.0250 N.3    38  MET38      -0.1245
     25  CA        13.6190   -9.8680  -17.8740 C.3    38  MET38       0.1570
     26  C         15.0360   -9.9280  -17.3050 C.2    38  MET38       0.2261
     27  O         15.7940   -8.9620  -17.4350 O.2    38  MET38      -0.2867
     28  CB        13.2090   -8.4270  -18.1610 C.3    38  MET38       0.0387
     29  CG        13.0580   -7.5460  -16.9450 C.3    38  MET38       0.0595
     30  SD        12.3300   -5.9810  -17.4540 S.3    38  MET38      -0.1393
     31  CE        11.8350   -5.2480  -15.9060 C.3    38  MET38       0.0692
     32  N         16.9070   -4.6030  -11.7430 N.3    66  TYR66      -0.1241
     33  CA        15.7050   -5.4320  -11.6620 C.3    66  TYR66       0.1605
     34  C         15.7160   -6.2690  -10.3880 C.2    66  TYR66       0.2264
     35  O         15.5090   -5.7290   -9.2940 O.2    66  TYR66      -0.2867
     36  CB        15.5560   -6.3100  -12.9100 C.3    66  TYR66       0.0534
     37  CG        14.2330   -7.0550  -12.9790 C.ar   66  TYR66      -0.0201
     38  CD1       13.0360   -6.4470  -12.5860 C.ar   66  TYR66      -0.0009
     39  CD2       14.1770   -8.3620  -13.4530 C.ar   66  TYR66      -0.0009
     40  CE1       11.8210   -7.1360  -12.6610 C.ar   66  TYR66       0.0417
     41  CE2       12.9680   -9.0550  -13.5320 C.ar   66  TYR66       0.0417
     42  CZ        11.8000   -8.4370  -13.1360 C.ar   66  TYR66       0.1957
     43  OH        10.6130   -9.1350  -13.2260 O.3    66  TYR66      -0.2866
     44  N         11.9390   -2.8350   -7.0780 N.3    93  TYR93      -0.1241
     45  CA        12.9860   -3.6520   -7.6840 C.3    93  TYR93       0.1605
     46  C         14.3040   -3.5270   -6.9260 C.2    93  TYR93       0.2264
     47  O         14.9790   -4.5330   -6.6770 O.2    93  TYR93      -0.2867
     48  CB        13.1910   -3.2500   -9.1480 C.3    93  TYR93       0.0534
     49  CG        12.0380   -3.5170  -10.1060 C.ar   93  TYR93      -0.0201
     50  CD1       10.8650   -4.1310   -9.6770 C.ar   93  TYR93      -0.0009
     51  CD2       12.1390   -3.1580  -11.4520 C.ar   93  TYR93      -0.0009
     52  CE1        9.8160   -4.3660  -10.5430 C.ar   93  TYR93       0.0417
     53  CE2       11.0970   -3.4040  -12.3390 C.ar   93  TYR93       0.0417
     54  CZ         9.9370   -4.0070  -11.8750 C.ar   93  TYR93       0.1957
     55  OH         8.9020   -4.2520  -12.7480 O.3    93  TYR93      -0.2866
     56  N         21.4200   -2.2400  -19.6070 N.3   139  ASP139     -0.1225
     57  CA        20.3120   -3.1820  -19.6210 C.3   139  ASP139      0.1805
     58  C         19.0860   -2.5370  -18.9810 C.2   139  ASP139      0.2598
     59  O         18.3220   -3.1990  -18.2770 O.2   139  ASP139     -0.2718
     60  CB        20.7060   -4.4790  -18.8960 C.3   139  ASP139      0.1424
     61  CG        19.7530   -5.6340  -19.1960 C.2   139  ASP139      0.3668
     62  OD1       18.9850   -5.5430  -20.2000 O.co2 139  ASP139     -0.2456
     63  OD2       19.7770   -6.6260  -18.4250 O.co2 139  ASP139     -0.2456
     64  N         18.9040   -1.2350  -19.1990 N.am  140  HIS140     -0.1961
     65  CA        17.6990   -0.5600  -18.7310 C.3   140  HIS140      0.1787
     66  C         16.7560   -0.3080  -19.9090 C.2   140  HIS140      0.2620
     67  O         16.6890   -1.1420  -20.8180 O.2   140  HIS140     -0.2715
     68  CB        18.0370    0.7390  -17.9900 C.3   140  HIS140      0.0785
     69  CG        19.0420    1.6190  -18.6800 C.ar  140  HIS140      0.0821
     70  ND1       19.8150    1.1980  -19.7380 N.ar  140  HIS140     -0.2267
     71  CD2       19.4130    2.9020  -18.4340 C.ar  140  HIS140      0.1154
     72  CE1       20.6080    2.1870  -20.1190 C.ar  140  HIS140      0.1986
     73  NE2       20.3830    3.2310  -19.3450 N.ar  140  HIS140     -0.2212
     74  N         16.0070    0.8030  -19.9060 N.am  141  TRP141     -0.1960
     75  CA        15.1100    1.0890  -21.0220 C.3   141  TRP141      0.1771
     76  C         15.9150    1.4380  -22.2630 C.2   141  TRP141      0.2619
     77  O         16.8740    2.2120  -22.2160 O.2   141  TRP141     -0.2715
     78  CB        14.1370    2.2260  -20.7180 C.3   141  TRP141      0.0590
     79  CG        13.1250    2.0190  -19.5970 C.ar  141  TRP141      0.0006
     80  CD1       12.4710    3.0040  -18.9330 C.ar  141  TRP141      0.0946
     81  CD2       12.6610    0.7770  -19.0200 C.ar  141  TRP141      0.0152
     82  NE1       11.6280    2.4750  -17.9890 N.ar  141  TRP141     -0.2442
     83  CE2       11.7290    1.1110  -18.0130 C.ar  141  TRP141      0.0810
     84  CE3       12.9390   -0.5820  -19.2550 C.ar  141  TRP141      0.0012
     85  CZ2       11.0690    0.1440  -17.2450 C.ar  141  TRP141      0.0191
     86  CZ3       12.2820   -1.5400  -18.4940 C.ar  141  TRP141      0.0001
     87  CH2       11.3550   -1.1700  -17.5000 C.ar  141  TRP141      0.0015
     88  N         15.4950    0.8690  -23.3860 N.am  142  LYS142     -0.1977
     89  CA        16.3250    0.8890  -24.5860 C.3   142  LYS142      0.1596
     90  C         16.4880    2.2890  -25.1630 C.2   142  LYS142      0.2287
     91  O         17.5000    2.5700  -25.8190 O.2   142  LYS142     -0.2864
     92  CB        15.7290   -0.0770  -25.6070 C.3   142  LYS142      0.0298
     93  CG        15.4480   -1.4570  -24.9860 C.3   142  LYS142      0.0038
     94  CD        16.6590   -1.9660  -24.1790 C.3   142  LYS142      0.0206
     95  CE        16.2710   -3.1560  -23.2950 C.3   142  LYS142      0.1093
     96  NZ        17.3120   -3.4590  -22.2220 N.3   142  LYS142     -0.1314
     97  N         22.9180   -5.2020  -23.5790 N.3   167  ASP167     -0.1225
     98  CA        21.9550   -6.2740  -23.7810 C.3   167  ASP167      0.1805
     99  C         20.8620   -5.8260  -24.7590 C.2   167  ASP167      0.2597
    100  O         20.6370   -4.6330  -24.9670 O.2   167  ASP167     -0.2718
    101  CB        21.3160   -6.6810  -22.4500 C.3   167  ASP167      0.1424
    102  CG        20.4660   -7.9510  -22.5500 C.2   167  ASP167      0.3668
    103  OD1       20.6540   -8.7730  -23.4780 O.co2 167  ASP167     -0.2456
    104  OD2       19.5820   -8.1230  -21.6770 O.co2 167  ASP167     -0.2456
    105  N         20.1750   -6.8080  -25.3500 N.am  168  ASN168     -0.1974
    106  CA        18.9260   -6.5610  -26.0710 C.3   168  ASN168      0.1688
    107  C         19.1410   -5.6810  -27.2950 C.2   168  ASN168      0.2292
    108  O         18.2980   -4.8500  -27.6250 O.2   168  ASN168     -0.2864
    109  CB        17.8840   -5.9210  -25.1550 C.3   168  ASN168      0.1181
    110  CG        17.5900   -6.7510  -23.9310 C.2   168  ASN168      0.2629
    111  OD1       17.6800   -6.2460  -22.8100 O.2   168  ASN168     -0.2716
    112  ND2       17.2210   -8.0270  -24.1300 N.am  168  ASN168     -0.0877
    113  N         16.5520   -7.7180  -29.6780 N.3   171  VAL171     -0.1231
    114  CA        15.1980   -7.7730  -29.1480 C.3   171  VAL171      0.1678
    115  C         15.2170   -7.3180  -27.6970 C.2   171  VAL171      0.2434
    116  O         15.9570   -7.8800  -26.8840 O.2   171  VAL171     -0.2733
    117  CB        14.5560   -9.1670  -29.2650 C.3   171  VAL171      0.0265
    118  CG1       13.1940   -9.1730  -28.6060 C.3   171  VAL171      0.0020
    119  CG2       14.4090   -9.5590  -30.7400 C.3   171  VAL171      0.0020
    120  N         14.4190   -6.3010  -27.3160 N.am  172  PRO172     -0.2729
    121  CA        13.5520   -5.5420  -28.2390 C.3   172  PRO172      0.1401
    122  C         14.2920   -4.5910  -29.1910 C.2   172  PRO172      0.2269
    123  O         13.6520   -4.0300  -30.0830 O.2   172  PRO172     -0.2865
    124  CB        12.6450   -4.7400  -27.3030 C.3   172  PRO172      0.0296
    125  CG        13.3330   -4.7590  -25.9700 C.3   172  PRO172      0.0237
    126  CD        14.0880   -6.0460  -25.9080 C.3   172  PRO172      0.0939
    127  N         17.2300  -14.5560  -26.5220 N.3   196  LEU196     -0.1231
    128  CA        16.5080  -13.8860  -25.4470 C.3   196  LEU196      0.1693
    129  C         16.3960  -14.8170  -24.2490 C.2   196  LEU196      0.2591
    130  O         16.2330  -16.0300  -24.4070 O.2   196  LEU196     -0.2718
    131  CB        15.1170  -13.4720  -25.9290 C.3   196  LEU196      0.0284
    132  CG        14.4400  -12.3130  -25.2050 C.3   196  LEU196      0.0019
    133  CD1       15.2080  -11.0150  -25.4480 C.3   196  LEU196      0.0001
    134  CD2       13.0010  -12.2010  -25.6950 C.3   196  LEU196      0.0001
    135  N         16.4930  -14.2460  -23.0440 N.am  197  GLU197     -0.1979
    136  CA        16.4130  -15.0460  -21.8240 C.3   197  GLU197      0.1602
    137  C         15.2020  -15.9740  -21.8450 C.2   197  GLU197      0.2287
    138  O         14.0840  -15.5580  -22.1620 O.2   197  GLU197     -0.2864
    139  CB        16.3500  -14.1390  -20.5940 C.3   197  GLU197      0.0415
    140  CG        15.2940  -13.0340  -20.6720 C.3   197  GLU197      0.1163
    141  CD        15.9030  -11.6980  -21.0820 C.2   197  GLU197      0.3649
    142  OE1       16.7690  -11.7110  -21.9760 O.co2 197  GLU197     -0.2457
    143  OE2       15.5420  -10.6490  -20.5000 O.co2 197  GLU197     -0.2457
@<TRIPOS>BOND
     1   119   117    1
     2   123   122    2
     3   113   114    1
     4   117   114    1
     5   117   118    1
     6   122   121    1
     7   114   115    1
     8   121   120    1
     9   121   124    1
    10   115   120   am
    11   115   116    2
    12   108   107    2
    13   120   126    1
    14   124   125    1
    15   107   106    1
    16   127   128    1
    17   106   105    1
    18   106   109    1
    19   125   126    1
    20   131   128    1
    21   131   132    1
    22    91    90    2
    23   134   132    1
    24    92    93    1
    25    92    89    1
    26   133   132    1
    27   128   129    1
    28   105    99   am
    29    90    89    1
    30   109   110    1
    31    93    94    1
    32   100    99    2
    33    99    98    1
    34    89    88    1
    35   130   129    2
    36   129   135   am
    37    94    95    1
    38   112   110   am
    39   110   111    2
    40    98    97    1
    41    98   101    1
    42   103   102   ar
    43    88    76   am
    44    95    96    1
    45   135   136    1
    46   102   101    1
    47   102   104   ar
    48    76    77    2
    49    76    75    1
    50   138   137    2
    51   142   141   ar
    52   137   136    1
    53   136   139    1
    54    18    19   ar
    55    18    16   ar
    56   141   140    1
    57   141   143   ar
    58    21    19   ar
    59    21    23   ar
    60    75    78    1
    61    75    74    1
    62    67    66    2
    63    19    17   ar
    64    78    79    1
    65    16    15   ar
    66   140   139    1
    67    23    22   ar
    68    62    61   ar
    69    72    70   ar
    70    72    73   ar
    71    17    15   ar
    72    17    20   ar
    73    66    74   am
    74    66    65    1
    75    15    14    1
    76    70    69   ar
    77    57    56    1
    78    57    58    1
    79    57    60    1
    80    22    20   ar
    81    79    81   ar
    82    79    80   ar
    83    73    71   ar
    84    84    81   ar
    85    84    86   ar
    86    64    58   am
    87    64    65    1
    88    61    60    1
    89    61    63   ar
    90    14    11    1
    91    81    83   ar
    92    58    59    2
    93    80    82   ar
    94    65    68    1
    95    69    71   ar
    96    69    68    1
    97    86    87   ar
    98    28    25    1
    99    28    29    1
   100    83    82   ar
   101    83    85   ar
   102    25    26    1
   103    25    24    1
   104    11    12    1
   105    11    10    1
   106    87    85   ar
   107    30    29    1
   108    30    31    1
   109    27    26    2
   110    12    13    2
   111     9     8    1
   112     8     7    1
   113    41    39   ar
   114    41    42   ar
   115    39    37   ar
   116     7     6    1
   117    43    42    1
   118    42    40   ar
   119    37    36    1
   120    37    38   ar
   121    36    33    1
   122    55    54    1
   123    40    38   ar
   124    53    54   ar
   125    53    51   ar
   126    54    52   ar
   127     6     5    1
   128    32    33    1
   129    33    34    1
   130    51    49   ar
   131     5     2    1
   132    52    50   ar
   133    34    35    2
   134    49    50   ar
   135    49    48    1
   136     2     3    1
   137     2     1    1
   138    48    45    1
   139     3     4    2
   140    45    44    1
   141    45    46    1
   142    46    47    2
