@<TRIPOS>MOLECULE
tmp/6gyaB01.pdb
 104 100 0 0 0
SMALL
GASTEIGER

@<TRIPOS>ATOM
      1  N         53.0420   82.3150  -29.7220 N.3   193  TYR193     -0.1241
      2  CA        53.9240   81.6060  -30.6970 C.3   193  TYR193      0.1605
      3  C         53.7070   82.1560  -32.1170 C.2   193  TYR193      0.2264
      4  O         53.9230   81.4090  -33.0870 O.2   193  TYR193     -0.2867
      5  CB        53.7400   80.0710  -30.6700 C.3   193  TYR193      0.0534
      6  CG        55.0120   79.2500  -30.7910 C.ar  193  TYR193     -0.0201
      7  CD1       56.1720   79.7840  -31.3460 C.ar  193  TYR193     -0.0009
      8  CD2       55.0790   77.9360  -30.3480 C.ar  193  TYR193     -0.0009
      9  CE1       57.3510   79.0580  -31.4410 C.ar  193  TYR193      0.0417
     10  CE2       56.2570   77.1940  -30.4270 C.ar  193  TYR193      0.0417
     11  CZ        57.3990   77.7550  -30.9780 C.ar  193  TYR193      0.1957
     12  OH        58.5740   77.0590  -31.0710 O.3   193  TYR193     -0.2866
     13  N         58.0510   82.5650  -35.1720 N.3   196  LEU196     -0.1231
     14  CA        58.7750   81.2750  -35.2690 C.3   196  LEU196      0.1693
     15  C         60.1950   81.5150  -35.7740 C.2   196  LEU196      0.2591
     16  O         61.1640   81.2030  -35.0310 O.2   196  LEU196     -0.2718
     17  CB        58.0230   80.3430  -36.2190 C.3   196  LEU196      0.0284
     18  CG        58.7200   79.0030  -36.4750 C.3   196  LEU196      0.0019
     19  CD1       58.9940   78.2490  -35.1670 C.3   196  LEU196      0.0001
     20  CD2       57.9350   78.1480  -37.4670 C.3   196  LEU196      0.0001
     21  N         60.2920   82.0290  -37.0010 N.am  197  MET197     -0.1979
     22  CA        61.5780   82.2830  -37.6920 C.3   197  MET197      0.1605
     23  C         61.3630   83.3480  -38.7730 C.2   197  MET197      0.2287
     24  O         60.1860   83.7200  -39.0360 O.2   197  MET197     -0.2864
     25  CB        62.1190   80.9950  -38.3270 C.3   197  MET197      0.0413
     26  CG        61.1870   80.3450  -39.3700 C.3   197  MET197      0.0598
     27  SD        61.6560   78.6420  -39.9760 S.3   197  MET197     -0.1393
     28  CE        63.4300   78.6280  -39.6790 C.3   197  MET197      0.0692
     29  N         51.3100   75.4210  -44.1860 N.3   231  ASP231     -0.1225
     30  CA        52.4960   75.3620  -43.2840 C.3   231  ASP231      0.1805
     31  C         52.1790   76.1920  -42.0420 C.2   231  ASP231      0.2597
     32  O         51.6390   77.3130  -42.1790 O.2   231  ASP231     -0.2718
     33  CB        53.8150   75.8330  -43.9360 C.3   231  ASP231      0.1424
     34  CG        55.0850   75.6480  -43.0860 C.2   231  ASP231      0.3668
     35  OD1       55.4040   74.4710  -42.6940 O.co2 231  ASP231     -0.2456
     36  OD2       55.7780   76.6730  -42.8050 O.co2 231  ASP231     -0.2456
     37  N         52.4760   75.6220  -40.8750 N.am  232  ALA232     -0.1979
     38  CA        52.7810   76.3600  -39.6310 C.3   232  ALA232      0.1597
     39  C         51.5440   77.1150  -39.1460 C.2   232  ALA232      0.2287
     40  O         51.7190   78.2110  -38.6150 O.2   232  ALA232     -0.2864
     41  CB        53.9170   77.3150  -39.9050 C.3   232  ALA232      0.0319
     42  N         49.7360   77.0360  -36.6760 N.3   234  LYS234     -0.1182
     43  CA        49.7200   77.3750  -35.2290 C.3   234  LYS234      0.1909
     44  C         50.3740   78.7490  -35.0180 C.2   234  LYS234      0.2634
     45  O         50.0870   79.3740  -33.9880 O.2   234  LYS234     -0.2714
     46  CB        50.3850   76.2780  -34.3840 C.2   234  LYS234     -0.0028
     47  CG        51.8850   76.4110  -34.1900 C.2   234  LYS234     -0.0272
     48  CD        52.5840   75.1660  -33.6700 C.3   234  LYS234      0.0462
     49  CE        52.4350   74.9370  -32.1850 C.3   234  LYS234      0.1140
     50  NZ        53.6610   74.3310  -31.6100 N.3   234  LYS234     -0.1310
     51  N         51.2280   79.1790  -35.9540 N.am  235  HIS235     -0.1973
     52  CA        51.9640   80.4680  -35.8320 C.3   235  HIS235      0.1656
     53  C         51.3490   81.5430  -36.7320 C.2   235  HIS235      0.2291
     54  O         52.0200   82.5660  -36.9650 O.2   235  HIS235     -0.2864
     55  CB        53.4430   80.2800  -36.1920 C.3   235  HIS235      0.0771
     56  CG        54.0990   79.1260  -35.5140 C.ar  235  HIS235      0.0820
     57  ND1       54.5590   79.1980  -34.2160 N.ar  235  HIS235     -0.2267
     58  CD2       54.3910   77.8840  -35.9520 C.ar  235  HIS235      0.1154
     59  CE1       55.0970   78.0450  -33.8800 C.ar  235  HIS235      0.1986
     60  NE2       55.0060   77.2230  -34.9280 N.ar  235  HIS235     -0.2212
     61  N         49.1280   72.0160  -41.0400 N.3   262  GLU262     -0.1245
     62  CA        50.1210   71.4880  -40.0660 C.3   262  GLU262      0.1567
     63  C         49.9340   72.3040  -38.7870 C.2   262  GLU262      0.2260
     64  O         50.4930   73.4230  -38.7010 O.2   262  GLU262     -0.2867
     65  CB        51.5600   71.5390  -40.6150 C.3   262  GLU262      0.0388
     66  CG        52.6330   71.0100  -39.6600 C.3   262  GLU262      0.1160
     67  CD        53.9480   71.7880  -39.5830 C.2   262  GLU262      0.3649
     68  OE1       54.0420   72.8790  -40.1480 O.co2 262  GLU262     -0.2457
     69  OE2       54.9030   71.2970  -38.9510 O.co2 262  GLU262     -0.2457
     70  N         51.2290   71.7040  -35.4480 N.3   264  TRP264     -0.1241
     71  CA        52.1500   70.7750  -34.7490 C.3   264  TRP264      0.1605
     72  C         51.9130   70.8810  -33.2490 C.2   264  TRP264      0.2264
     73  O         52.4360   71.7910  -32.6430 O.2   264  TRP264     -0.2867
     74  CB        53.6320   70.9600  -35.0970 C.3   264  TRP264      0.0550
     75  CG        54.3590   69.7270  -34.6530 C.ar  264  TRP264      0.0003
     76  CD1       54.9580   69.4980  -33.4470 C.ar  264  TRP264      0.0946
     77  CD2       54.4170   68.4860  -35.3740 C.ar  264  TRP264      0.0152
     78  NE1       55.4320   68.2140  -33.3900 N.ar  264  TRP264     -0.2442
     79  CE2       55.1110   67.5670  -34.5510 C.ar  264  TRP264      0.0810
     80  CE3       53.9800   68.0810  -36.6390 C.ar  264  TRP264      0.0012
     81  CZ2       55.3700   66.2600  -34.9520 C.ar  264  TRP264      0.0191
     82  CZ3       54.2290   66.7840  -37.0300 C.ar  264  TRP264      0.0001
     83  CH2       54.9280   65.8960  -36.2030 C.ar  264  TRP264      0.0015
     84  N         59.5110   66.5380  -41.6800 N.3   329  ASP329     -0.1239
     85  CA        59.8710   67.2260  -40.4160 C.3   329  ASP329      0.1674
     86  C         60.2740   66.1510  -39.3850 C.2   329  ASP329      0.2266
     87  O         61.1600   66.4410  -38.5610 O.2   329  ASP329     -0.2867
     88  CB        58.7270   68.1580  -39.9760 C.3   329  ASP329      0.1410
     89  CG        58.5920   69.4830  -40.7240 C.2   329  ASP329      0.3668
     90  OD1       59.6210   69.9660  -41.2250 O.co2 329  ASP329     -0.2456
     91  OD2       57.4510   70.0480  -40.7710 O.co2 329  ASP329     -0.2456
     92  N         63.8050   68.7360  -37.7980 N.3   335  ALA335     -0.1231
     93  CA        63.5030   69.6220  -36.6600 C.3   335  ALA335      0.1694
     94  C         62.5590   68.9580  -35.6630 C.2   335  ALA335      0.2591
     95  O         62.5890   69.3630  -34.5290 O.2   335  ALA335     -0.2718
     96  CB        62.8830   70.8680  -37.2070 C.3   335  ALA335      0.0304
     97  N         61.7050   68.0390  -36.1120 N.am  336  LEU336     -0.1980
     98  CA        60.7060   67.3510  -35.2650 C.3   336  LEU336      0.1596
     99  C         60.9870   65.8520  -35.2710 C.2   336  LEU336      0.2287
    100  O         60.0130   65.0800  -35.1170 O.2   336  LEU336     -0.2864
    101  CB        59.3110   67.6440  -35.8200 C.3   336  LEU336      0.0297
    102  CG        58.9180   69.1190  -35.9110 C.3   336  LEU336      0.0022
    103  CD1       57.5320   69.2720  -36.5300 C.3   336  LEU336      0.0001
    104  CD2       58.9580   69.7750  -34.5330 C.3   336  LEU336      0.0001
@<TRIPOS>BOND
     1    29    30    1
     2    33    30    1
     3    33    34    1
     4    30    31    1
     5    34    36   ar
     6    34    35   ar
     7    32    31    2
     8    31    37   am
     9    84    85    1
    10    90    89   ar
    11    61    62    1
    12    37    38    1
    13    91    89   ar
    14    89    88    1
    15    65    62    1
    16    65    66    1
    17    85    88    1
    18    85    86    1
    19    68    67   ar
    20    62    63    1
    21    27    28    1
    22    27    26    1
    23    41    38    1
    24    66    67    1
    25    38    39    1
    26    67    69   ar
    27    86    87    2
    28    26    25    1
    29    39    40    2
    30    24    23    2
    31    63    64    2
    32    23    22    1
    33    25    22    1
    34    92    93    1
    35    22    21    1
    36    20    18    1
    37    96    93    1
    38    82    80   ar
    39    82    83   ar
    40    21    15   am
    41    54    53    2
    42    53    52    1
    43    42    43    1
    44    93    94    1
    45    80    77   ar
    46   103   102    1
    47    18    17    1
    48    18    19    1
    49    17    14    1
    50    83    81   ar
    51    55    52    1
    52    55    56    1
    53    97    94   am
    54    97    98    1
    55    51    52    1
    56    51    44   am
    57    58    56   ar
    58    58    60   ar
    59   102   101    1
    60   102   104    1
    61   101    98    1
    62    15    14    1
    63    15    16    2
    64    94    95    2
    65    56    57   ar
    66    70    71    1
    67    77    75   ar
    68    77    79   ar
    69    99    98    1
    70    99   100    2
    71    14    13    1
    72    43    44    1
    73    43    46    1
    74    74    71    1
    75    74    75    1
    76    44    45    2
    77    81    79   ar
    78    60    59   ar
    79    71    72    1
    80    75    76   ar
    81    79    78   ar
    82    46    47    2
    83    57    59   ar
    84    47    48    1
    85    48    49    1
    86    76    78   ar
    87    72    73    2
    88     4     3    2
    89    49    50    1
    90     3     2    1
    91     9     7   ar
    92     9    11   ar
    93     7     6   ar
    94    12    11    1
    95    11    10   ar
    96     6     5    1
    97     6     8   ar
    98     2     5    1
    99     2     1    1
   100    10     8   ar
