@<TRIPOS>MOLECULE
tmp/6gypA00.pdb
 94 93 0 0 0
SMALL
GASTEIGER

@<TRIPOS>ATOM
      1  N        227.2670  191.5260  237.7750 N.3     5  TYR5       -0.1241
      2  CA       227.2280  192.9000  237.2830 C.3     5  TYR5        0.1605
      3  C        227.0020  193.0010  235.7830 C.2     5  TYR5        0.2264
      4  O        226.5110  194.0370  235.3220 O.2     5  TYR5       -0.2867
      5  CB       228.5330  193.6150  237.6400 C.3     5  TYR5        0.0534
      6  CG       229.7910  192.9070  237.1710 C.ar    5  TYR5       -0.0201
      7  CD1      230.4230  191.9650  237.9780 C.ar    5  TYR5       -0.0009
      8  CD2      230.3570  193.1890  235.9370 C.ar    5  TYR5       -0.0009
      9  CE1      231.5610  191.3140  237.5620 C.ar    5  TYR5        0.0417
     10  CE2      231.4990  192.5410  235.5140 C.ar    5  TYR5        0.0417
     11  CZ       232.0940  191.6070  236.3320 C.ar    5  TYR5        0.1957
     12  OH       233.2310  190.9610  235.9160 O.3     5  TYR5       -0.2866
     13  N        223.7410  194.6370  233.6500 N.3     8  ASP8       -0.1225
     14  CA       223.6550  196.0820  233.8170 C.3     8  ASP8        0.1805
     15  C        224.9480  196.8000  233.4590 C.2     8  ASP8        0.2597
     16  O        225.0350  198.0170  233.6430 O.2     8  ASP8       -0.2718
     17  CB       223.2410  196.4100  235.2500 C.3     8  ASP8        0.1424
     18  CG       221.7980  196.0450  235.5270 C.2     8  ASP8        0.3668
     19  OD1      220.9740  196.1310  234.5950 O.co2   8  ASP8       -0.2456
     20  OD2      221.4830  195.6500  236.6650 O.co2   8  ASP8       -0.2456
     21  N        225.9460  196.0760  232.9630 N.am    9  LEU9       -0.1979
     22  CA       227.1220  196.6620  232.3460 C.3     9  LEU9        0.1596
     23  C        227.0450  196.6170  230.8260 C.2     9  LEU9        0.2287
     24  O        227.5260  197.5360  230.1550 O.2     9  LEU9       -0.2864
     25  CB       228.3640  195.9290  232.8400 C.3     9  LEU9        0.0297
     26  CG       229.7320  196.4280  232.4200 C.3     9  LEU9        0.0022
     27  CD1      229.9520  197.8350  232.9110 C.3     9  LEU9        0.0001
     28  CD2      230.7360  195.5050  233.0300 C.3     9  LEU9        0.0001
     29  N        224.1010  195.6010  247.1270 N.3   468  ASP468     -0.1225
     30  CA       223.1190  196.0560  246.1530 C.3   468  ASP468      0.1805
     31  C        223.7300  196.4550  244.8180 C.2   468  ASP468      0.2598
     32  O        223.0970  196.2460  243.7780 O.2   468  ASP468     -0.2718
     33  CB       222.3100  197.2310  246.7230 C.3   468  ASP468      0.1424
     34  CG       223.1850  198.3880  247.1930 C.2   468  ASP468      0.3668
     35  OD1      224.4280  198.2670  247.1860 O.co2 468  ASP468     -0.2456
     36  OD2      222.6170  199.4320  247.5750 O.co2 468  ASP468     -0.2456
     37  N        224.9300  197.0260  244.8230 N.am  469  SER469     -0.1938
     38  CA       225.6130  197.4110  243.6000 C.3   469  SER469      0.2055
     39  C        227.1090  197.3370  243.8590 C.2   469  SER469      0.2643
     40  O        227.5580  197.3340  245.0070 O.2   469  SER469     -0.2714
     41  CB       225.1950  198.8090  243.1440 C.3   469  SER469      0.2130
     42  OG       225.6300  199.7920  244.0650 O.3   469  SER469     -0.2179
     43  N        227.8830  197.2800  242.7830 N.am  470  PHE470     -0.1959
     44  CA       229.3160  197.0490  242.8920 C.3   470  PHE470      0.1771
     45  C        230.0670  198.3680  242.7570 C.2   470  PHE470      0.2619
     46  O        229.4810  199.4180  242.4930 O.2   470  PHE470     -0.2715
     47  CB       229.8000  196.0490  241.8350 C.3   470  PHE470      0.0574
     48  CG       229.2720  194.6410  242.0150 C.ar  470  PHE470     -0.0200
     49  CD1      228.6250  194.2370  243.1750 C.ar  470  PHE470     -0.0042
     50  CD2      229.4600  193.7100  241.0170 C.ar  470  PHE470     -0.0042
     51  CE1      228.1490  192.9450  243.3060 C.ar  470  PHE470     -0.0003
     52  CE2      228.9890  192.4190  241.1460 C.ar  470  PHE470     -0.0003
     53  CZ       228.3380  192.0370  242.2930 C.ar  470  PHE470     -0.0000
     54  N        231.3820  198.3090  242.9560 N.am  471  TYR471     -0.1974
     55  CA       232.2370  199.4840  242.8400 C.3   471  TYR471      0.1639
     56  C        233.6040  199.0600  242.3310 C.2   471  TYR471      0.2290
     57  O        234.1730  198.0830  242.8240 O.2   471  TYR471     -0.2864
     58  CB       232.3850  200.2120  244.1830 C.3   471  TYR471      0.0560
     59  CG       231.1250  200.8950  244.6600 C.ar  471  TYR471     -0.0198
     60  CD1      230.7470  202.1300  244.1490 C.ar  471  TYR471     -0.0009
     61  CD2      230.3090  200.3020  245.6140 C.ar  471  TYR471     -0.0009
     62  CE1      229.5920  202.7570  244.5780 C.ar  471  TYR471      0.0417
     63  CE2      229.1510  200.9210  246.0490 C.ar  471  TYR471      0.0417
     64  CZ       228.7990  202.1470  245.5270 C.ar  471  TYR471      0.1957
     65  OH       227.6500  202.7700  245.9550 O.3   471  TYR471     -0.2866
     66  N        234.6870  200.9890  236.3510 N.3   475  PHE475     -0.1227
     67  CA       233.3130  201.4580  236.2250 C.3   475  PHE475      0.1736
     68  C        233.2440  202.9760  236.2590 C.2   475  PHE475      0.2595
     69  O        232.5360  203.5820  235.4540 O.2   475  PHE475     -0.2718
     70  CB       232.4450  200.8740  237.3400 C.3   475  PHE475      0.0547
     71  CG       232.2170  199.3920  237.2380 C.ar  475  PHE475     -0.0202
     72  CD1      232.4570  198.7060  236.0600 C.ar  475  PHE475     -0.0042
     73  CD2      231.7600  198.6870  238.3340 C.ar  475  PHE475     -0.0042
     74  CE1      232.2490  197.3460  235.9830 C.ar  475  PHE475     -0.0003
     75  CE2      231.5490  197.3300  238.2610 C.ar  475  PHE475     -0.0003
     76  CZ       231.7930  196.6590  237.0850 C.ar  475  PHE475     -0.0000
     77  N        234.0240  203.6100  237.1370 N.am  476  LYS476     -0.1980
     78  CA       233.9630  205.0630  237.2600 C.3   476  LYS476      0.1596
     79  C        234.6430  205.7490  236.0810 C.2   476  LYS476      0.2287
     80  O        234.2010  206.8170  235.6430 O.2   476  LYS476     -0.2864
     81  CB       234.5800  205.5030  238.5890 C.3   476  LYS476      0.0298
     82  CG       234.4860  206.9940  238.8530 C.3   476  LYS476      0.0038
     83  CD       233.0330  207.4170  238.9700 C.3   476  LYS476      0.0206
     84  CE       232.9030  208.8970  239.2700 C.3   476  LYS476      0.1093
     85  NZ       231.4800  209.3300  239.2780 N.3   476  LYS476     -0.1314
     86  N        232.0760  205.5360  233.3920 N.3   479  GLN479     -0.1245
     87  CA       231.0680  206.5590  233.6700 C.3   479  GLN479      0.1566
     88  C        231.5620  207.9380  233.2580 C.2   479  GLN479      0.2260
     89  O        230.8000  208.7400  232.7100 O.2   479  GLN479     -0.2867
     90  CB       230.7090  206.5950  235.1580 C.3   479  GLN479      0.0367
     91  CG       229.9550  205.4210  235.7600 C.3   479  GLN479      0.0905
     92  CD       228.5600  205.2620  235.2370 C.2   479  GLN479      0.2608
     93  OE1      228.2400  204.2680  234.5950 O.2   479  GLN479     -0.2717
     94  NE2      227.7120  206.2430  235.5080 N.am  479  GLN479     -0.0878
@<TRIPOS>BOND
     1    24    23    2
     2    23    22    1
     3    22    25    1
     4    22    21    1
     5    26    25    1
     6    26    27    1
     7    26    28    1
     8    89    88    2
     9    21    15   am
    10    88    87    1
    11    86    87    1
    12    15    16    2
    13    15    14    1
    14    13    14    1
    15    87    90    1
    16    14    17    1
    17    19    18   ar
    18    93    92    2
    19    90    91    1
    20    92    94   am
    21    92    91    1
    22    17    18    1
    23     4     3    2
    24    69    68    2
    25    10     8   ar
    26    10    11   ar
    27    18    20   ar
    28    80    79    2
    29     3     2    1
    30    12    11    1
    31     8     6   ar
    32    74    72   ar
    33    74    76   ar
    34    72    71   ar
    35    79    78    1
    36    67    68    1
    37    67    66    1
    38    67    70    1
    39    68    77   am
    40    11     9   ar
    41    76    75   ar
    42    77    78    1
    43     6     5    1
    44     6     7   ar
    45    71    70    1
    46    71    73   ar
    47    78    81    1
    48     2     5    1
    49     2     1    1
    50     9     7   ar
    51    75    73   ar
    52    81    82    1
    53    82    83    1
    54    83    84    1
    55    84    85    1
    56    50    52   ar
    57    50    48   ar
    58    52    53   ar
    59    47    48    1
    60    47    44    1
    61    48    49   ar
    62    53    51   ar
    63    56    57    2
    64    56    55    1
    65    46    45    2
    66    45    44    1
    67    45    54   am
    68    43    44    1
    69    43    39   am
    70    55    54    1
    71    55    58    1
    72    41    38    1
    73    41    42    1
    74    49    51   ar
    75    38    39    1
    76    38    37    1
    77    32    31    2
    78    39    40    2
    79    60    62   ar
    80    60    59   ar
    81    58    59    1
    82    62    64   ar
    83    59    61   ar
    84    31    37   am
    85    31    30    1
    86    64    65    1
    87    64    63   ar
    88    61    63   ar
    89    30    33    1
    90    30    29    1
    91    33    34    1
    92    35    34   ar
    93    34    36   ar
