@<TRIPOS>MOLECULE
tmp/6gyxA00.pdb
 92 88 0 0 0
SMALL
GASTEIGER

@<TRIPOS>ATOM
      1  N        -12.7860   -5.5130    8.5610 N.3    28  LEU28      -0.1245
      2  CA       -13.9380   -5.3000    7.6940 C.3    28  LEU28       0.1561
      3  C        -13.7190   -3.9840    6.9570 C.2    28  LEU28       0.2260
      4  O        -13.7510   -2.9160    7.5770 O.2    28  LEU28      -0.2867
      5  CB       -15.2260   -5.2800    8.5070 C.3    28  LEU28       0.0270
      6  CG       -16.5150   -5.1470    7.7000 C.3    28  LEU28       0.0019
      7  CD1      -16.6940   -6.3430    6.7690 C.3    28  LEU28       0.0001
      8  CD2      -17.7070   -4.9950    8.6330 C.3    28  LEU28       0.0001
      9  N        -11.4490   -0.4660   16.2320 N.3    67  HIS67      -0.1226
     10  CA       -11.4920   -1.8110   15.6690 C.3    67  HIS67       0.1752
     11  C        -12.9100   -2.3150   15.4540 C.2    67  HIS67       0.2596
     12  O        -13.1560   -3.0610   14.5000 O.2    67  HIS67      -0.2718
     13  CB       -10.7410   -2.7810   16.5810 C.3    67  HIS67       0.0759
     14  CG       -11.6180   -3.4950   17.5620 C.ar   67  HIS67       0.0818
     15  ND1      -12.1220   -2.8810   18.6890 N.ar   67  HIS67      -0.2268
     16  CD2      -12.0840   -4.7660   17.5850 C.ar   67  HIS67       0.1154
     17  CE1      -12.8600   -3.7430   19.3640 C.ar   67  HIS67       0.1986
     18  NE2      -12.8550   -4.8940   18.7160 N.ar   67  HIS67      -0.2212
     19  N        -13.8530   -1.9260   16.3020 N.am   68  ASP68      -0.1960
     20  CA       -15.2130   -2.4290   16.1670 C.3    68  ASP68       0.1840
     21  C        -15.9390   -1.6060   15.1110 C.2    68  ASP68       0.2623
     22  O        -16.0940   -0.3870   15.2520 O.2    68  ASP68      -0.2715
     23  CB       -15.9390   -2.4100   17.5110 C.3    68  ASP68       0.1450
     24  CG       -16.5460   -1.0650   17.8310 C.2    68  ASP68       0.3671
     25  OD1      -17.7520   -1.0180   18.1580 O.co2  68  ASP68      -0.2456
     26  OD2      -15.8220   -0.0520   17.7340 O.co2  68  ASP68      -0.2456
     27  N        -16.3840   -2.2780   14.0610 N.am   69  GLY69      -0.1940
     28  CA       -17.0460   -1.6540   12.9360 C.3    69  GLY69       0.2014
     29  C        -16.1820   -1.6840   11.6860 C.2    69  GLY69       0.2638
     30  O        -15.0500   -2.1700   11.6770 O.2    69  GLY69      -0.2714
     31  N        -16.7500   -1.1220   10.6270 N.am   70  ALA70      -0.1977
     32  CA       -16.1710   -1.1960    9.2980 C.3    70  ALA70       0.1597
     33  C        -15.3000    0.0160    9.0130 C.2    70  ALA70       0.2287
     34  O        -15.5130    1.1070    9.5510 O.2    70  ALA70      -0.2864
     35  CB       -17.2730   -1.2870    8.2360 C.3    70  ALA70       0.0319
     36  N        -17.3080    2.3850   11.5050 N.3    83  SER83      -0.1202
     37  CA       -18.6370    2.5360   10.9380 C.3    83  SER83       0.2020
     38  C        -19.4170    1.2470   11.1290 C.2    83  SER83       0.2619
     39  O        -18.8440    0.1600   11.2410 O.2    83  SER83      -0.2717
     40  CB       -18.5680    2.8720    9.4470 C.3    83  SER83       0.2103
     41  OG       -18.0270    4.1610    9.2270 O.3    83  SER83      -0.2182
     42  N        -20.7330    1.3770   11.1840 N.am   84  TYR84      -0.1961
     43  CA       -21.6230    0.2380   11.2970 C.3    84  TYR84       0.1771
     44  C        -22.4400    0.1060   10.0240 C.2    84  TYR84       0.2619
     45  O        -22.8900    1.1030    9.4510 O.2    84  TYR84      -0.2715
     46  CB       -22.5340    0.3740   12.5140 C.3    84  TYR84       0.0574
     47  CG       -21.9810   -0.3220   13.7340 C.ar   84  TYR84      -0.0198
     48  CD1      -22.8150   -1.0030   14.6120 C.ar   84  TYR84      -0.0009
     49  CD2      -20.6180   -0.3120   14.0010 C.ar   84  TYR84      -0.0009
     50  CE1      -22.3060   -1.6480   15.7260 C.ar   84  TYR84       0.0417
     51  CE2      -20.1000   -0.9550   15.1090 C.ar   84  TYR84       0.0417
     52  CZ       -20.9460   -1.6220   15.9690 C.ar   84  TYR84       0.1957
     53  OH       -20.4300   -2.2600   17.0760 O.3    84  TYR84      -0.2866
     54  N        -22.5780   -1.1200    9.5700 N.am   85  LEU85      -0.1977
     55  CA       -23.3000   -1.4690    8.3710 C.3    85  LEU85       0.1596
     56  C        -24.5210   -2.3010    8.7260 C.2    85  LEU85       0.2287
     57  O        -24.5710   -2.9200    9.7950 O.2    85  LEU85      -0.2864
     58  CB       -22.3840   -2.2520    7.4240 C.3    85  LEU85       0.0297
     59  CG       -21.0090   -1.6090    7.2370 C.3    85  LEU85       0.0022
     60  CD1      -20.1420   -2.4630    6.3410 C.3    85  LEU85       0.0001
     61  CD2      -21.1440   -0.2040    6.6720 C.3    85  LEU85       0.0001
     62  N        -27.0530   -5.3860    8.9880 N.3    87  LEU87      -0.1245
     63  CA       -26.7970   -6.8080    9.1560 C.3    87  LEU87       0.1561
     64  C        -27.7540   -7.5820    8.2630 C.2    87  LEU87       0.2260
     65  O        -28.9710   -7.3740    8.3210 O.2    87  LEU87      -0.2867
     66  CB       -26.9730   -7.2250   10.6170 C.3    87  LEU87       0.0270
     67  CG       -25.9360   -6.7260   11.6350 C.3    87  LEU87       0.0019
     68  CD1      -25.8340   -7.6920   12.8080 C.3    87  LEU87       0.0001
     69  CD2      -24.5590   -6.4850   11.0210 C.3    87  LEU87       0.0001
     70  N        -20.5930  -11.6240   12.9230 N.3    99  THR99      -0.1203
     71  CA       -21.3730  -10.4880   12.6740 C.3    99  THR99       0.1994
     72  C        -20.8980   -9.7450   11.5150 C.2    99  THR99       0.2617
     73  O        -21.6830   -9.2830   10.7900 O.2    99  THR99      -0.2717
     74  CB       -21.3520   -9.5540   13.8310 C.3    99  THR99       0.1784
     75  OG1      -21.4230  -10.2990   15.0350 O.3    99  THR99      -0.2211
     76  CG2      -22.4640   -8.7300   13.7390 C.3    99  THR99       0.0376
     77  N        -19.6140   -9.6130   11.3440 N.am  100  ARG100     -0.1979
     78  CA       -19.0990   -8.8590   10.2370 C.3   100  ARG100      0.1597
     79  C        -19.3700   -9.4130    8.8950 C.2   100  ARG100      0.2287
     80  O        -19.6090   -8.6980    7.9660 O.2   100  ARG100     -0.2864
     81  CB       -17.6830   -8.5280   10.4290 C.3   100  ARG100      0.0334
     82  CG       -16.8880   -9.6940   10.7250 C.3   100  ARG100      0.0492
     83  CD       -15.7470   -9.4160   11.6240 C.3   100  ARG100      0.2205
     84  NE       -15.3070   -8.0730   11.6580 N.pl3 100  ARG100     -0.0865
     85  CZ       -14.6050   -7.5910   12.6430 C.cat 100  ARG100      0.5346
     86  NH1      -14.2820   -8.3370   13.6620 N.pl3 100  ARG100      0.1354
     87  NH2      -14.2360   -6.3510   12.6050 N.pl3 100  ARG100      0.1354
     88  N        -22.5260   -8.4610    8.2450 N.3   103  ALA103     -0.1245
     89  CA       -22.5090   -7.0850    7.8670 C.3   103  ALA103      0.1562
     90  C        -22.1190   -6.7930    6.4990 C.2   103  ALA103      0.2260
     91  O        -22.6190   -5.9020    5.9120 O.2   103  ALA103     -0.2867
     92  CB       -21.6480   -6.3170    8.7590 C.3   103  ALA103      0.0290
@<TRIPOS>BOND
     1    91    90    2
     2    60    59    1
     3    90    89    1
     4    61    59    1
     5     7     6    1
     6     3     4    2
     7     3     2    1
     8    59    58    1
     9    58    55    1
    10     2     5    1
    11     2     1    1
    12     6     5    1
    13     6     8    1
    14    89    88    1
    15    89    92    1
    16    80    79    2
    17    35    32    1
    18    64    65    2
    19    64    63    1
    20    55    56    1
    21    55    54    1
    22    56    57    2
    23    79    78    1
    24    62    63    1
    25    33    32    1
    26    33    34    2
    27    63    66    1
    28    41    40    1
    29    32    31    1
    30    40    37    1
    31    45    44    2
    32    54    44   am
    33    44    43    1
    34    78    81    1
    35    78    77    1
    36    81    82    1
    37    66    67    1
    38    31    29   am
    39    82    83    1
    40    73    72    2
    41    37    38    1
    42    37    36    1
    43    69    67    1
    44    38    42   am
    45    38    39    2
    46    42    43    1
    47    43    46    1
    48    77    72   am
    49    72    71    1
    50    83    84    1
    51    67    68    1
    52    84    85    2
    53    30    29    2
    54    29    28    1
    55    46    47    1
    56    87    85    1
    57    85    86    1
    58    71    70    1
    59    71    74    1
    60    28    27    1
    61    47    49   ar
    62    47    48   ar
    63    76    74    1
    64    74    75    1
    65    49    51   ar
    66    27    21   am
    67    12    11    2
    68    48    50   ar
    69    51    52   ar
    70    21    22    2
    71    21    20    1
    72    11    10    1
    73    11    19   am
    74    10     9    1
    75    10    13    1
    76    50    52   ar
    77    52    53    1
    78    20    19    1
    79    20    23    1
    80    13    14    1
    81    23    24    1
    82    14    16   ar
    83    14    15   ar
    84    16    18   ar
    85    26    24   ar
    86    24    25   ar
    87    15    17   ar
    88    18    17   ar
