@<TRIPOS>MOLECULE
tmp/6gz9A00.pdb
 191 182 0 0 0
SMALL
GASTEIGER

@<TRIPOS>ATOM
      1  N          0.8780   -6.8970  -15.6660 N.3    29  ARG29      -0.1245
      2  CA         1.4760   -5.5730  -15.5790 C.3    29  ARG29       0.1563
      3  C          2.4750   -5.4950  -14.4380 C.2    29  ARG29       0.2260
      4  O          3.4050   -4.6760  -14.4990 O.2    29  ARG29      -0.2867
      5  CB         0.3860   -4.4920  -15.4790 C.3    29  ARG29       0.0307
      6  CG        -0.3670   -4.2210  -16.8310 C.3    29  ARG29       0.0489
      7  CD         0.3850   -3.3040  -17.8990 C.3    29  ARG29       0.2205
      8  NE         1.0610   -3.9900  -19.0170 N.pl3  29  ARG29      -0.0865
      9  CZ         1.5050   -3.3830  -20.1270 C.cat  29  ARG29       0.5346
     10  NH1        1.3430   -2.0730  -20.2990 N.pl3  29  ARG29       0.1354
     11  NH2        2.0720   -4.0950  -21.0980 N.pl3  29  ARG29       0.1354
     12  N          6.1060   -4.0710  -15.7260 N.3    33  TYR33      -0.1241
     13  CA         6.7370   -2.8950  -15.1410 C.3    33  TYR33       0.1605
     14  C          7.8290   -3.2570  -14.1390 C.2    33  TYR33       0.2264
     15  O          8.4870   -2.3560  -13.5960 O.2    33  TYR33      -0.2867
     16  CB         5.6350   -2.0180  -14.5080 C.3    33  TYR33       0.0534
     17  CG         4.8380   -1.2180  -15.5260 C.ar   33  TYR33      -0.0201
     18  CD1        5.3670   -0.0660  -16.0770 C.ar   33  TYR33      -0.0009
     19  CD2        3.5800   -1.6290  -15.9600 C.ar   33  TYR33      -0.0009
     20  CE1        4.6880    0.6650  -17.0230 C.ar   33  TYR33       0.0417
     21  CE2        2.8770   -0.8900  -16.9340 C.ar   33  TYR33       0.0417
     22  CZ         3.4450    0.2600  -17.4550 C.ar   33  TYR33       0.1957
     23  OH         2.8080    1.0290  -18.4070 O.3    33  TYR33      -0.2866
     24  N          3.1950   -0.3810  -27.9490 N.3    71  TYR71      -0.1241
     25  CA         1.9600    0.3460  -28.1890 C.3    71  TYR71       0.1605
     26  C          1.5670    0.3900  -29.6530 C.2    71  TYR71       0.2264
     27  O          0.3700    0.4190  -29.9670 O.2    71  TYR71      -0.2867
     28  CB         2.1060    1.7650  -27.6290 C.3    71  TYR71       0.0534
     29  CG         2.0250    1.8450  -26.0970 C.ar   71  TYR71      -0.0201
     30  CD1        3.0130    1.2950  -25.2620 C.ar   71  TYR71      -0.0009
     31  CD2        0.9790    2.5290  -25.4940 C.ar   71  TYR71      -0.0009
     32  CE1        2.9030    1.3920  -23.8800 C.ar   71  TYR71       0.0417
     33  CE2        0.8880    2.6390  -24.1280 C.ar   71  TYR71       0.0417
     34  CZ         1.8330    2.0740  -23.3320 C.ar   71  TYR71       0.1957
     35  OH         1.6720    2.2200  -21.9840 O.3    71  TYR71      -0.2866
     36  N         -2.5730   -6.6830  -24.3530 N.3   129  LYS129     -0.1245
     37  CA        -2.9360   -5.3940  -23.7750 C.3   129  LYS129      0.1561
     38  C         -4.2190   -4.8250  -24.3550 C.2   129  LYS129      0.2260
     39  O         -5.1140   -4.4860  -23.5630 O.2   129  LYS129     -0.2867
     40  CB        -1.8150   -4.3590  -23.9310 C.3   129  LYS129      0.0271
     41  CG        -1.2350   -3.8990  -22.6140 C.3   129  LYS129      0.0035
     42  CD        -0.4010   -2.6700  -22.8740 C.3   129  LYS129      0.0206
     43  CE        -1.3570   -1.6070  -23.4510 C.3   129  LYS129      0.1093
     44  NZ        -0.7370   -0.3230  -23.8560 N.3   129  LYS129     -0.1314
     45  N         -8.2880   -0.8380  -14.5950 N.3   155  TYR155     -0.1241
     46  CA        -7.0220   -0.1280  -14.6540 C.3   155  TYR155      0.1605
     47  C         -6.4200    0.1100  -13.2790 C.2   155  TYR155      0.2264
     48  O         -5.3220    0.6650  -13.1840 O.2   155  TYR155     -0.2867
     49  CB        -7.1850    1.1890  -15.3980 C.3   155  TYR155      0.0534
     50  CG        -7.5370    0.9920  -16.8470 C.ar  155  TYR155     -0.0201
     51  CD1       -7.0580   -0.1020  -17.5540 C.ar  155  TYR155     -0.0009
     52  CD2       -8.2960    1.9350  -17.5290 C.ar  155  TYR155     -0.0009
     53  CE1       -7.3700   -0.2710  -18.8850 C.ar  155  TYR155      0.0417
     54  CE2       -8.6120    1.7820  -18.8560 C.ar  155  TYR155      0.0417
     55  CZ        -8.1520    0.6850  -19.5290 C.ar  155  TYR155      0.1957
     56  OH        -8.4870    0.5670  -20.8580 O.3   155  TYR155     -0.2866
     57  N         -3.6700   -2.3240  -13.1490 N.3   158  VAL158     -0.1231
     58  CA        -2.5960   -1.7250  -13.9380 C.3   158  VAL158      0.1692
     59  C         -1.6450   -0.9650  -13.0210 C.2   158  VAL158      0.2592
     60  O         -0.4420   -1.2220  -12.9960 O.2   158  VAL158     -0.2718
     61  CB        -3.1780   -0.8310  -15.0510 C.3   158  VAL158      0.0266
     62  CG1       -2.0930   -0.0540  -15.7320 C.3   158  VAL158      0.0020
     63  CG2       -3.8820   -1.6940  -16.0740 C.3   158  VAL158      0.0020
     64  N         -2.1790   -0.0820  -12.1970 N.am  159  ASN159     -0.1974
     65  CA        -1.3040    0.6640  -11.3190 C.3   159  ASN159      0.1688
     66  C         -0.8700   -0.1230  -10.0990 C.2   159  ASN159      0.2292
     67  O          0.0850    0.2890   -9.4340 O.2   159  ASN159     -0.2864
     68  CB        -1.9850    1.9310  -10.8420 C.3   159  ASN159      0.1181
     69  CG        -2.2870    2.8800  -11.9590 C.2   159  ASN159      0.2629
     70  OD1       -3.4230    3.3440  -12.0970 O.2   159  ASN159     -0.2716
     71  ND2       -1.2720    3.1760  -12.7790 N.am  159  ASN159     -0.0877
     72  N          2.1440   -2.1130  -11.2570 N.3   162  ALA162     -0.1245
     73  CA         3.2770   -1.2540  -11.5820 C.3   162  ALA162      0.1562
     74  C          3.8380   -0.5690  -10.3560 C.2   162  ALA162      0.2260
     75  O          4.9490   -0.0270  -10.4070 O.2   162  ALA162     -0.2867
     76  CB         2.8740   -0.2110  -12.6130 C.3   162  ALA162      0.0290
     77  N          3.7660   12.9440  -23.1520 N.3   299  TRP299     -0.1241
     78  CA         4.3140   11.6070  -22.9550 C.3   299  TRP299      0.1605
     79  C          5.7840   11.5190  -23.3300 C.2   299  TRP299      0.2264
     80  O          6.4630   10.5760  -22.9050 O.2   299  TRP299     -0.2867
     81  CB         3.5500   10.5660  -23.7640 C.3   299  TRP299      0.0550
     82  CG         2.1570   10.3410  -23.3390 C.ar  299  TRP299      0.0003
     83  CD1        1.0300   10.7260  -24.0010 C.ar  299  TRP299      0.0946
     84  CD2        1.7240    9.6490  -22.1710 C.ar  299  TRP299      0.0152
     85  NE1       -0.0880   10.3340  -23.3070 N.ar  299  TRP299     -0.2442
     86  CE2        0.3090    9.6630  -22.1810 C.ar  299  TRP299      0.0810
     87  CE3        2.3880    9.0240  -21.1170 C.ar  299  TRP299      0.0012
     88  CZ2       -0.4500    9.0700  -21.1830 C.ar  299  TRP299      0.0191
     89  CZ3        1.6390    8.4410  -20.1300 C.ar  299  TRP299      0.0001
     90  CH2        0.2300    8.4640  -20.1650 C.ar  299  TRP299      0.0015
     91  N          7.1510   12.3070  -19.8550 N.3   302  GLN302     -0.1231
     92  CA         6.7500   11.3290  -18.8510 C.3   302  GLN302      0.1698
     93  C          7.5040   10.0210  -19.0440 C.2   302  GLN302      0.2592
     94  O          8.1250    9.4990  -18.1090 O.2   302  GLN302     -0.2718
     95  CB         5.2470   11.0880  -18.9120 C.3   302  GLN302      0.0381
     96  CG         4.6700   10.3090  -17.7110 C.3   302  GLN302      0.0905
     97  CD         4.7260    8.7870  -17.8340 C.2   302  GLN302      0.2608
     98  OE1        5.1500    8.2410  -18.8500 O.2   302  GLN302     -0.2717
     99  NE2        4.2850    8.1000  -16.7850 N.am  302  GLN302     -0.0878
    100  N          7.4710    9.4790  -20.2630 N.am  303  GLU303     -0.1979
    101  CA         8.1250    8.2090  -20.5530 C.3   303  GLU303      0.1602
    102  C          9.6520    8.3110  -20.5500 C.2   303  GLU303      0.2287
    103  O         10.3320    7.2900  -20.7080 O.2   303  GLU303     -0.2864
    104  CB         7.6190    7.6730  -21.8970 C.3   303  GLU303      0.0415
    105  CG         6.1280    7.3410  -21.9500 C.3   303  GLU303      0.1163
    106  CD         5.8250    5.9220  -21.4690 C.2   303  GLU303      0.3649
    107  OE1        4.6240    5.5660  -21.2740 O.co2 303  GLU303     -0.2457
    108  OE2        6.8090    5.1740  -21.2410 O.co2 303  GLU303     -0.2457
    109  N         11.6600    7.0740  -17.2580 N.3   306  SER306     -0.1217
    110  CA        11.9420    5.6510  -17.1500 C.3   306  SER306      0.1889
    111  C         13.3110    5.2910  -17.7010 C.2   306  SER306      0.2288
    112  O         13.7160    4.1290  -17.6040 O.2   306  SER306     -0.2866
    113  CB        10.8540    4.8170  -17.8560 C.3   306  SER306      0.2089
    114  OG        10.8490    4.9890  -19.2720 O.3   306  SER306     -0.2183
    115  N         10.2420    4.1690  -10.3190 N.3   336  GLN336     -0.1245
    116  CA         9.1530    3.8630  -11.2230 C.3   336  GLN336      0.1566
    117  C          7.8590    3.6060  -10.4780 C.2   336  GLN336      0.2260
    118  O          6.8480    3.2820  -11.1260 O.2   336  GLN336     -0.2867
    119  CB         9.5180    2.6780  -12.1290 C.3   336  GLN336      0.0367
    120  CG        10.9440    2.7280  -12.6920 C.3   336  GLN336      0.0905
    121  CD        11.2300    3.9720  -13.5300 C.2   336  GLN336      0.2608
    122  OE1       10.3420    4.5310  -14.1720 O.2   336  GLN336     -0.2717
    123  NE2       12.4810    4.4150  -13.5150 N.am  336  GLN336     -0.0878
    124  N          5.1830    7.2570   -9.8880 N.3   339  ASN339     -0.1226
    125  CA         4.1830    7.5610  -10.9100 C.3   339  ASN339      0.1770
    126  C          2.8770    6.7820  -10.7580 C.2   339  ASN339      0.2439
    127  O          1.8140    7.4150  -10.8380 O.2   339  ASN339     -0.2733
    128  CB         4.8000    7.3650  -12.3020 C.3   339  ASN339      0.1168
    129  CG         3.9510    7.9490  -13.3960 C.2   339  ASN339      0.2627
    130  OD1        3.0250    7.3090  -13.8720 O.2   339  ASN339     -0.2716
    131  ND2        4.2510    9.1790  -13.7920 N.am  339  ASN339     -0.0877
    132  N          2.8580    5.4640  -10.5320 N.am  340  PRO340     -0.2729
    133  CA         1.5770    4.8320  -10.1670 C.3   340  PRO340      0.1401
    134  C          1.0670    5.1800   -8.7720 C.2   340  PRO340      0.2269
    135  O         -0.1490    5.3140   -8.6060 O.2   340  PRO340     -0.2865
    136  CB         1.8680    3.3330  -10.3060 C.3   340  PRO340      0.0296
    137  CG         3.3280    3.2250  -10.1100 C.3   340  PRO340      0.0237
    138  CD         3.9030    4.4560  -10.7530 C.3   340  PRO340      0.0939
    139  N         -1.0660    8.0250   -8.8120 N.3   343  ILE343     -0.1245
    140  CA        -2.2840    7.7360   -9.5380 C.3   343  ILE343      0.1561
    141  C         -3.2590    7.0170   -8.6240 C.2   343  ILE343      0.2260
    142  O         -4.3660    7.5000   -8.3870 O.2   343  ILE343     -0.2867
    143  CB        -1.9640    6.9500  -10.8220 C.3   343  ILE343      0.0252
    144  CG1       -1.2500    7.8780  -11.8280 C.3   343  ILE343      0.0019
    145  CG2       -3.2370    6.3590  -11.4060 C.3   343  ILE343      0.0019
    146  CD1       -0.6070    7.1810  -12.9710 C.3   343  ILE343      0.0001
    147  N         -0.1150   14.4330  -15.5120 N.3   410  GLU410     -0.1245
    148  CA        -0.8420   13.3360  -16.1280 C.3   410  GLU410      0.1567
    149  C         -2.2610   13.2320  -15.5880 C.2   410  GLU410      0.2260
    150  O         -3.1730   12.8160  -16.3070 O.2   410  GLU410     -0.2867
    151  CB        -0.0850   12.0430  -15.9090 C.3   410  GLU410      0.0388
    152  CG        -0.6020   10.9220  -16.7140 C.3   410  GLU410      0.1160
    153  CD         0.1510    9.6680  -16.4500 C.2   410  GLU410      0.3649
    154  OE1        1.3940    9.7440  -16.5230 O.co2 410  GLU410     -0.2457
    155  OE2       -0.4730    8.6240  -16.1610 O.co2 410  GLU410     -0.2457
    156  N         -4.1560   12.1820  -18.6800 N.3   414  SER414     -0.1217
    157  CA        -4.4340   10.7680  -18.9050 C.3   414  SER414      0.1889
    158  C         -5.9380   10.4940  -18.8440 C.2   414  SER414      0.2288
    159  O         -6.4460    9.7550  -19.6990 O.2   414  SER414     -0.2866
    160  CB        -3.6820    9.9020  -17.8890 C.3   414  SER414      0.2089
    161  OG        -3.9650    8.5250  -18.0410 O.3   414  SER414     -0.2183
    162  N         -8.3010    9.7730  -23.0550 N.3   418  ASN418     -0.1240
    163  CA        -8.9770    8.4880  -23.2330 C.3   418  ASN418      0.1653
    164  C        -10.4620    8.5370  -22.9150 C.2   418  ASN418      0.2266
    165  O        -11.2170    7.6930  -23.4070 O.2   418  ASN418     -0.2867
    166  CB        -8.3090    7.4080  -22.3710 C.3   418  ASN418      0.1155
    167  CG        -8.1960    7.8130  -20.9140 C.2   418  ASN418      0.2627
    168  OD1       -9.1500    8.3050  -20.3100 O.2   418  ASN418     -0.2716
    169  ND2       -6.9990    7.6460  -20.3490 N.am  418  ASN418     -0.0877
    170  N         -5.3410    8.2810  -30.2750 N.3   437  TRP437     -0.1227
    171  CA        -4.9350    8.7690  -28.9560 C.3   437  TRP437      0.1737
    172  C         -3.8000    7.9200  -28.3870 C.2   437  TRP437      0.2595
    173  O         -2.8260    8.4520  -27.8480 O.2   437  TRP437     -0.2718
    174  CB        -6.1350    8.8020  -27.9960 C.3   437  TRP437      0.0564
    175  CG        -5.7850    8.5070  -26.5330 C.ar  437  TRP437      0.0003
    176  CD1       -6.2160    7.4390  -25.7950 C.ar  437  TRP437      0.0946
    177  CD2       -4.9540    9.2930  -25.6350 C.ar  437  TRP437      0.0152
    178  NE1       -5.6920    7.4920  -24.5140 N.ar  437  TRP437     -0.2442
    179  CE2       -4.9190    8.6160  -24.3890 C.ar  437  TRP437      0.0810
    180  CE3       -4.2280   10.4850  -25.7650 C.ar  437  TRP437      0.0012
    181  CZ2       -4.1960    9.0960  -23.2850 C.ar  437  TRP437      0.0191
    182  CZ3       -3.5030   10.9600  -24.6460 C.ar  437  TRP437      0.0001
    183  CH2       -3.5000   10.2610  -23.4350 C.ar  437  TRP437      0.0015
    184  N         -3.8850    6.5980  -28.5460 N.am  438  LEU438     -0.1980
    185  CA        -2.8130    5.7210  -28.0890 C.3   438  LEU438      0.1596
    186  C         -1.4660    6.0860  -28.7040 C.2   438  LEU438      0.2287
    187  O         -0.4350    5.9950  -28.0280 O.2   438  LEU438     -0.2864
    188  CB        -3.1950    4.2690  -28.3870 C.3   438  LEU438      0.0297
    189  CG        -2.2300    3.0920  -28.2290 C.3   438  LEU438      0.0022
    190  CD1       -3.0430    1.8140  -28.1810 C.3   438  LEU438      0.0001
    191  CD2       -1.2430    3.0120  -29.4070 C.3   438  LEU438      0.0001
@<TRIPOS>BOND
     1   170   171    1
     2    27    26    2
     3    26    25    1
     4   191   189    1
     5   171   172    1
     6   171   174    1
     7   186   185    1
     8   186   187    2
     9   184   172   am
    10   184   185    1
    11   172   173    2
    12   188   189    1
    13   188   185    1
    14   189   190    1
    15    25    24    1
    16    25    28    1
    17   174   175    1
    18    28    29    1
    19   175   176   ar
    20   175   177   ar
    21    29    31   ar
    22    29    30   ar
    23   176   178   ar
    24   180   177   ar
    25   180   182   ar
    26   177   179   ar
    27    31    33   ar
    28    30    32   ar
    29   182   183   ar
    30   178   179   ar
    31   179   181   ar
    32    38    37    1
    33    38    39    2
    34    36    37    1
    35    33    34   ar
    36    83    82   ar
    37    83    85   ar
    38    40    37    1
    39    40    41    1
    40    32    34   ar
    41    44    43    1
    42    81    82    1
    43    81    78    1
    44    43    42    1
    45   183   181   ar
    46   165   164    2
    47    82    84   ar
    48    34    35    1
    49    79    78    1
    50    79    80    2
    51    85    86   ar
    52   163   162    1
    53   163   164    1
    54   163   166    1
    55    77    78    1
    56    42    41    1
    57   166   167    1
    58    86    84   ar
    59    86    88   ar
    60    84    87   ar
    61   105   104    1
    62   105   106    1
    63   104   101    1
    64   106   107   ar
    65   106   108   ar
    66    88    90   ar
    67    87    89   ar
    68    11     9    1
    69   167   169   am
    70   167   168    2
    71    56    55    1
    72   103   102    2
    73   101   102    1
    74   101   100    1
    75    10     9    1
    76   100    93   am
    77    90    89   ar
    78     9     8    2
    79    91    92    1
    80   159   158    2
    81    55    53   ar
    82    55    54   ar
    83   114   113    1
    84    93    92    1
    85    93    94    2
    86     8     7    1
    87    95    92    1
    88    95    96    1
    89   157   158    1
    90   157   156    1
    91   157   160    1
    92    53    51   ar
    93    54    52   ar
    94    98    97    2
    95    23    22    1
    96   161   160    1
    97     7     6    1
    98   113   110    1
    99    97    96    1
   100    97    99   am
   101   111   112    2
   102   111   110    1
   103    51    50   ar
   104    52    50   ar
   105    22    20   ar
   106    22    21   ar
   107   109   110    1
   108    20    18   ar
   109    21    19   ar
   110    50    49    1
   111     6     5    1
   112   152   153    1
   113   152   151    1
   114   154   153   ar
   115   153   155   ar
   116   150   149    2
   117   148   151    1
   118   148   149    1
   119   148   147    1
   120    18    17   ar
   121    63    61    1
   122    19    17   ar
   123    62    61    1
   124    12    13    1
   125     1     2    1
   126     2     5    1
   127     2     3    1
   128    17    16    1
   129    49    46    1
   130    13    16    1
   131    13    14    1
   132    61    58    1
   133    46    45    1
   134    46    47    1
   135     4     3    2
   136   122   121    2
   137    14    15    2
   138    58    57    1
   139    58    59    1
   140   130   129    2
   141   131   129   am
   142   121   123   am
   143   121   120    1
   144   129   128    1
   145    47    48    2
   146    59    60    2
   147    59    64   am
   148   146   144    1
   149    71    69   am
   150   120   119    1
   151    76    73    1
   152   128   125    1
   153    64    65    1
   154   119   116    1
   155    70    69    2
   156    69    68    1
   157   144   143    1
   158    73    72    1
   159    73    74    1
   160   145   143    1
   161    65    68    1
   162    65    66    1
   163   116   117    1
   164   116   115    1
   165   118   117    2
   166   125   126    1
   167   125   124    1
   168   127   126    2
   169   143   140    1
   170   126   132   am
   171   138   132    1
   172   138   137    1
   173   132   133    1
   174    75    74    2
   175   136   133    1
   176   136   137    1
   177   133   134    1
   178    66    67    2
   179   140   139    1
   180   140   141    1
   181   134   135    2
   182   141   142    2
