@<TRIPOS>MOLECULE
tmp/6gzdA07.pdb
 96 95 0 0 0
SMALL
GASTEIGER

@<TRIPOS>ATOM
      1  N         -0.1510  -34.1720   -3.5860 N.3   176  THR176     -0.1203
      2  CA        -1.1710  -34.8620   -4.3830 C.3   176  THR176      0.1994
      3  C         -0.6740  -36.2420   -4.7900 C.2   176  THR176      0.2618
      4  O          0.4390  -36.3810   -5.3000 O.2   176  THR176     -0.2717
      5  CB        -1.5390  -34.0320   -5.6330 C.3   176  THR176      0.1784
      6  OG1       -2.0450  -32.7580   -5.2160 O.3   176  THR176     -0.2211
      7  CG2       -2.5980  -34.7110   -6.4720 C.3   176  THR176      0.0376
      8  N         -1.5150  -37.2560   -4.5870 N.am  177  ALA177     -0.1965
      9  CA        -1.1080  -38.6590   -4.7460 C.3   177  ALA177      0.1728
     10  C         -0.8150  -39.0380   -6.1860 C.2   177  ALA177      0.2616
     11  O          0.0760  -39.8600   -6.4530 O.2   177  ALA177     -0.2715
     12  CB        -2.1710  -39.5890   -4.1710 C.3   177  ALA177      0.0334
     13  N         -1.5650  -38.4460   -7.1140 N.am  178  ARG178     -0.1977
     14  CA        -1.4230  -38.7410   -8.5400 C.3   178  ARG178      0.1597
     15  C         -0.0220  -38.4110   -9.0840 C.2   178  ARG178      0.2287
     16  O          0.5030  -39.1440   -9.9100 O.2   178  ARG178     -0.2864
     17  CB        -2.4810  -37.9820   -9.3510 C.3   178  ARG178      0.0334
     18  CG        -2.5500  -38.3760  -10.8270 C.3   178  ARG178      0.0492
     19  CD        -3.3210  -37.3570  -11.6410 C.3   178  ARG178      0.2205
     20  NE        -4.7570  -37.4150  -11.4410 N.pl3 178  ARG178     -0.0865
     21  CZ        -5.6320  -36.5490  -11.9470 C.cat 178  ARG178      0.5346
     22  NH1       -5.2510  -35.4790  -12.6460 N.pl3 178  ARG178      0.1354
     23  NH2       -6.9160  -36.7310  -11.6910 N.pl3 178  ARG178      0.1354
     24  N         -2.4560  -45.1120  -12.9840 N.3   213  TRP213     -0.1227
     25  CA        -2.8850  -45.1670  -11.6040 C.3   213  TRP213      0.1737
     26  C         -4.0540  -44.2450  -11.3240 C.2   213  TRP213      0.2595
     27  O         -4.3890  -44.0620  -10.1690 O.2   213  TRP213     -0.2718
     28  CB        -1.7170  -44.9100  -10.6310 C.3   213  TRP213      0.0564
     29  CG        -0.8330  -43.7430  -10.9310 C.ar  213  TRP213      0.0003
     30  CD1       -1.0100  -42.4460  -10.5480 C.ar  213  TRP213      0.0946
     31  CD2        0.3920  -43.7850  -11.6640 C.ar  213  TRP213      0.0152
     32  NE1        0.0310  -41.6710  -11.0050 N.ar  213  TRP213     -0.2442
     33  CE2        0.9060  -42.4730  -11.6950 C.ar  213  TRP213      0.0810
     34  CE3        1.1020  -44.8090  -12.3050 C.ar  213  TRP213      0.0012
     35  CZ2        2.1060  -42.1580  -12.3380 C.ar  213  TRP213      0.0191
     36  CZ3        2.2920  -44.4980  -12.9470 C.ar  213  TRP213      0.0001
     37  CH2        2.7850  -43.1810  -12.9550 C.ar  213  TRP213      0.0015
     38  N         -4.6790  -43.6790  -12.3610 N.am  214  GLN214     -0.1965
     39  CA        -5.9550  -42.9620  -12.2090 C.3   214  GLN214      0.1733
     40  C         -7.1610  -43.9240  -12.1430 C.2   214  GLN214      0.2617
     41  O         -7.0730  -45.0680  -12.5720 O.2   214  GLN214     -0.2715
     42  CB        -6.1500  -41.8890  -13.3130 C.3   214  GLN214      0.0408
     43  CG        -5.3620  -40.5950  -13.1050 C.3   214  GLN214      0.0908
     44  CD        -5.4610  -39.6150  -14.2650 C.2   214  GLN214      0.2608
     45  OE1       -4.5270  -39.4800  -15.0560 O.2   214  GLN214     -0.2717
     46  NE2       -6.5830  -38.9100  -14.3570 N.am  214  GLN214     -0.0878
     47  N         -8.2820  -43.4330  -11.6230 N.am  215  GLY215     -0.1940
     48  CA        -9.5010  -44.2260  -11.4300 C.3   215  GLY215      0.2014
     49  C         -9.5230  -45.3740  -10.4270 C.2   215  GLY215      0.2639
     50  O        -10.4450  -46.1890  -10.4670 O.2   215  GLY215     -0.2714
     51  N         -8.5350  -45.4490   -9.5360 N.am  216  LEU216     -0.1963
     52  CA        -8.4650  -46.5140   -8.5250 C.3   216  LEU216      0.1728
     53  C         -9.2940  -46.1810   -7.2940 C.2   216  LEU216      0.2616
     54  O         -9.4010  -45.0190   -6.9120 O.2   216  LEU216     -0.2715
     55  CB        -7.0250  -46.7700   -8.0900 C.3   216  LEU216      0.0311
     56  CG        -6.0210  -47.1180   -9.1810 C.3   216  LEU216      0.0022
     57  CD1       -4.6230  -47.1240   -8.5870 C.3   216  LEU216      0.0001
     58  CD2       -6.3460  -48.4620   -9.8080 C.3   216  LEU216      0.0001
     59  N         -9.8630  -47.2230   -6.6810 N.am  217  LYS217     -0.1977
     60  CA       -10.7300  -47.0950   -5.5030 C.3   217  LYS217      0.1596
     61  C        -10.3030  -48.0540   -4.3960 C.2   217  LYS217      0.2287
     62  O         -9.6830  -49.0870   -4.6500 O.2   217  LYS217     -0.2864
     63  CB       -12.1920  -47.3680   -5.8800 C.3   217  LYS217      0.0298
     64  CG       -12.7880  -46.3910   -6.8830 C.3   217  LYS217      0.0038
     65  CD       -13.0270  -45.0150   -6.2790 C.3   217  LYS217      0.0206
     66  CE       -13.5740  -44.0490   -7.3180 C.3   217  LYS217      0.1093
     67  NZ       -13.9630  -42.7400   -6.7240 N.3   217  LYS217     -0.1314
     68  N         -6.2000  -46.3210   -0.7900 N.3   224  LYS224     -0.1231
     69  CA        -6.1550  -45.7050   -2.1220 C.3   224  LYS224      0.1693
     70  C         -4.7300  -45.2520   -2.4750 C.2   224  LYS224      0.2592
     71  O         -4.2410  -45.5490   -3.5680 O.2   224  LYS224     -0.2718
     72  CB        -7.1140  -44.5110   -2.1990 C.3   224  LYS224      0.0285
     73  CG        -7.3020  -43.9400   -3.6030 C.3   224  LYS224      0.0035
     74  CD        -8.5010  -43.0060   -3.6420 C.3   224  LYS224      0.0206
     75  CE        -8.6150  -42.2680   -4.9650 C.3   224  LYS224      0.1093
     76  NZ        -9.6870  -41.2320   -4.9730 N.3   224  LYS224     -0.1314
     77  N         -4.0740  -44.5700   -1.5300 N.am  225  TYR225     -0.1976
     78  CA        -2.6620  -44.1630   -1.6720 C.3   225  TYR225      0.1639
     79  C         -1.7420  -45.3560   -1.8590 C.2   225  TYR225      0.2290
     80  O         -0.8020  -45.2900   -2.6390 O.2   225  TYR225     -0.2864
     81  CB        -2.1950  -43.3650   -0.4530 C.3   225  TYR225      0.0560
     82  CG        -2.7810  -41.9730   -0.3050 C.ar  225  TYR225     -0.0198
     83  CD1       -3.8150  -41.4990   -1.1400 C.ar  225  TYR225     -0.0009
     84  CD2       -2.3110  -41.1240    0.6950 C.ar  225  TYR225     -0.0009
     85  CE1       -4.3410  -40.2280   -0.9780 C.ar  225  TYR225      0.0417
     86  CE2       -2.8340  -39.8480    0.8580 C.ar  225  TYR225      0.0417
     87  CZ        -3.8460  -39.4060    0.0220 C.ar  225  TYR225      0.1957
     88  OH        -4.3660  -38.1450    0.1880 O.3   225  TYR225     -0.2866
     89  N         -2.2400  -46.6750   -5.4030 N.3   228  ILE228     -0.1245
     90  CA        -1.5310  -45.7680   -6.3240 C.3   228  ILE228      0.1561
     91  C         -0.0270  -46.0820   -6.2920 C.2   228  ILE228      0.2260
     92  O          0.5980  -46.2920   -7.3370 O.2   228  ILE228     -0.2867
     93  CB        -1.8240  -44.2900   -5.9850 C.3   228  ILE228      0.0252
     94  CG1       -3.3020  -43.9700   -6.2960 C.3   228  ILE228      0.0019
     95  CG2       -0.8960  -43.3530   -6.7700 C.3   228  ILE228      0.0019
     96  CD1       -3.8580  -42.7830   -5.5420 C.3   228  ILE228      0.0001
@<TRIPOS>BOND
     1    45    44    2
     2    46    44   am
     3    44    43    1
     4    42    43    1
     5    42    39    1
     6    24    25    1
     7    37    36   ar
     8    37    35   ar
     9    36    34   ar
    10    22    21    1
    11    41    40    2
    12    38    39    1
    13    38    26   am
    14    35    33   ar
    15    34    31   ar
    16    39    40    1
    17    40    47   am
    18    21    23    1
    19    21    20    2
    20    33    31   ar
    21    33    32   ar
    22    31    29   ar
    23    19    20    1
    24    19    18    1
    25    47    48    1
    26    25    26    1
    27    25    28    1
    28    48    49    1
    29    26    27    2
    30    32    30   ar
    31    29    28    1
    32    29    30   ar
    33    18    17    1
    34    50    49    2
    35    49    51   am
    36    16    15    2
    37    58    56    1
    38    51    52    1
    39    17    14    1
    40    56    57    1
    41    56    55    1
    42    15    14    1
    43    14    13    1
    44    52    55    1
    45    52    53    1
    46    92    91    2
    47    66    67    1
    48    66    65    1
    49    53    54    2
    50    53    59   am
    51    13    10   am
    52    64    65    1
    53    64    63    1
    54    95    93    1
    55    59    60    1
    56     7     5    1
    57    11    10    2
    58    90    91    1
    59    90    93    1
    60    90    89    1
    61    94    93    1
    62    94    96    1
    63    10     9    1
    64    63    60    1
    65     5     6    1
    66     5     2    1
    67    60    61    1
    68     4     3    2
    69    76    75    1
    70    75    74    1
    71     3     8   am
    72     3     2    1
    73     9     8    1
    74     9    12    1
    75    62    61    2
    76     2     1    1
    77    74    73    1
    78    73    72    1
    79    71    70    2
    80    80    79    2
    81    70    69    1
    82    70    77   am
    83    72    69    1
    84    69    68    1
    85    79    78    1
    86    78    77    1
    87    78    81    1
    88    83    85   ar
    89    83    82   ar
    90    85    87   ar
    91    81    82    1
    92    82    84   ar
    93    87    88    1
    94    87    86   ar
    95    84    86   ar
