@<TRIPOS>MOLECULE
tmp/6gzdA08.pdb
 169 160 0 0 0
SMALL
GASTEIGER

@<TRIPOS>ATOM
      1  N        -12.3680  -16.3630   -7.0200 N.3    15  ILE15      -0.1231
      2  CA       -11.7870  -16.9580   -8.2320 C.3    15  ILE15       0.1692
      3  C        -11.2570  -18.3860   -8.0140 C.2    15  ILE15       0.2593
      4  O        -10.8740  -19.0410   -8.9810 O.2    15  ILE15      -0.2718
      5  CB       -10.7090  -16.0420   -8.8740 C.3    15  ILE15       0.0266
      6  CG1       -9.6630  -15.5840   -7.8480 C.3    15  ILE15       0.0019
      7  CG2      -11.3740  -14.8310   -9.5140 C.3    15  ILE15       0.0020
      8  CD1       -8.3960  -15.0200   -8.4600 C.3    15  ILE15       0.0001
      9  N        -11.2640  -18.8740   -6.7690 N.am   16  GLY16      -0.1942
     10  CA       -10.8840  -20.2570   -6.4770 C.3    16  GLY16       0.2014
     11  C        -10.4750  -20.4950   -5.0350 C.2    16  GLY16       0.2640
     12  O        -10.6780  -19.6380   -4.1730 O.2    16  GLY16      -0.2714
     13  N         -9.9000  -21.6760   -4.7950 N.am   17  SER17      -0.1935
     14  CA        -9.3680  -22.0840   -3.4870 C.3    17  SER17       0.2055
     15  C         -7.9590  -22.6700   -3.6360 C.2    17  SER17       0.2643
     16  O         -7.6480  -23.3110   -4.6440 O.2    17  SER17      -0.2714
     17  CB       -10.2830  -23.1250   -2.8340 C.3    17  SER17       0.2130
     18  OG        -9.6970  -23.6520   -1.6510 O.3    17  SER17      -0.2179
     19  N         -7.1290  -22.4660   -2.6150 N.am   18  GLY18      -0.1954
     20  CA        -5.7420  -22.9260   -2.6180 C.3    18  GLY18       0.1869
     21  C         -5.4510  -24.0060   -1.6040 C.2    18  GLY18       0.2309
     22  O         -6.3190  -24.8220   -1.2800 O.2    18  GLY18      -0.2863
     23  N         -9.1760  -17.5390   -2.6300 N.3    23  ILE23      -0.1245
     24  CA        -8.5520  -16.5290   -3.4820 C.3    23  ILE23       0.1561
     25  C         -9.6300  -15.6740   -4.1360 C.2    23  ILE23       0.2260
     26  O        -10.5970  -16.2070   -4.6900 O.2    23  ILE23      -0.2867
     27  CB        -7.6750  -17.1480   -4.6090 C.3    23  ILE23       0.0252
     28  CG1       -6.8950  -18.3870   -4.1360 C.3    23  ILE23       0.0019
     29  CG2       -6.7150  -16.1050   -5.1750 C.3    23  ILE23       0.0019
     30  CD1       -5.9110  -18.1480   -3.0120 C.3    23  ILE23       0.0001
     31  N         -4.7790  -10.2610   -7.1040 N.3    36  ALA36      -0.1245
     32  CA        -5.3640  -11.4180   -6.4310 C.3    36  ALA36       0.1562
     33  C         -5.1490  -11.2990   -4.9310 C.2    36  ALA36       0.2260
     34  O         -4.1300  -10.7730   -4.4750 O.2    36  ALA36      -0.2867
     35  CB        -4.7780  -12.7180   -6.9670 C.3    36  ALA36       0.0290
     36  N         -5.5250  -13.4250   -1.1570 N.3    38  LYS38      -0.1245
     37  CA        -5.6510  -14.7190   -0.4870 C.3    38  LYS38       0.1561
     38  C         -6.0710  -14.4430    0.9410 C.2    38  LYS38       0.2260
     39  O         -5.3780  -13.7120    1.6550 O.2    38  LYS38      -0.2867
     40  CB        -4.3200  -15.4790   -0.5220 C.3    38  LYS38       0.0271
     41  CG        -4.3820  -16.9040    0.0110 C.3    38  LYS38       0.0035
     42  CD        -3.1420  -17.7010   -0.3850 C.3    38  LYS38       0.0206
     43  CE        -3.2200  -19.1590    0.0540 C.3    38  LYS38       0.1093
     44  NZ        -2.4230  -20.0670   -0.8270 N.3    38  LYS38      -0.1314
     45  N          3.8680  -18.6280    4.2220 N.3    52  GLU52      -0.1245
     46  CA         3.8630  -18.5420    2.7610 C.3    52  GLU52       0.1567
     47  C          4.2920  -17.1690    2.2390 C.2    52  GLU52       0.2260
     48  O          5.0140  -17.0870    1.2390 O.2    52  GLU52      -0.2867
     49  CB         2.4970  -18.9040    2.1870 C.3    52  GLU52       0.0388
     50  CG         2.5130  -19.1570    0.6850 C.3    52  GLU52       0.1160
     51  CD         1.1700  -19.5920    0.1300 C.2    52  GLU52       0.3649
     52  OE1        0.1560  -19.4910    0.8530 O.co2  52  GLU52      -0.2457
     53  OE2        1.1260  -20.0300   -1.0410 O.co2  52  GLU52      -0.2457
     54  N          7.3860  -16.3160   -0.3500 N.3    56  TYR56      -0.1241
     55  CA         7.2560  -15.4420   -1.5110 C.3    56  TYR56       0.1605
     56  C          8.2790  -14.3060   -1.4780 C.2    56  TYR56       0.2264
     57  O          8.8340  -13.9760   -2.5130 O.2    56  TYR56      -0.2867
     58  CB         5.8300  -14.8790   -1.6520 C.3    56  TYR56       0.0534
     59  CG         4.8600  -15.8020   -2.3520 C.ar   56  TYR56      -0.0201
     60  CD1        5.0410  -16.1350   -3.6880 C.ar   56  TYR56      -0.0009
     61  CD2        3.7470  -16.3170   -1.6950 C.ar   56  TYR56      -0.0009
     62  CE1        4.1560  -16.9700   -4.3510 C.ar   56  TYR56       0.0417
     63  CE2        2.8500  -17.1510   -2.3520 C.ar   56  TYR56       0.0417
     64  CZ         3.0630  -17.4720   -3.6830 C.ar   56  TYR56       0.1957
     65  OH         2.1980  -18.3000   -4.3600 O.3    56  TYR56      -0.2866
     66  N          5.3370  -14.5380   -8.4990 N.3    66  PRO66      -0.2116
     67  CA         4.4900  -13.3520   -8.3650 C.3    66  PRO66       0.1372
     68  C          4.9890  -12.3920   -7.2890 C.2    66  PRO66       0.2244
     69  O          5.5350  -12.8220   -6.2710 O.2    66  PRO66      -0.2868
     70  CB         3.1270  -13.9330   -7.9800 C.3    66  PRO66       0.0268
     71  CG         3.4400  -15.2270   -7.3160 C.3    66  PRO66       0.0207
     72  CD         4.6800  -15.7500   -7.9730 C.3    66  PRO66       0.0892
     73  N         -1.4080  -10.1650   -4.0420 N.3    82  MET82      -0.1230
     74  CA        -0.3520  -10.4540   -5.0290 C.3    82  MET82       0.1702
     75  C         -0.7740  -10.1730   -6.4700 C.2    82  MET82       0.2592
     76  O         -1.9460   -9.8990   -6.7320 O.2    82  MET82      -0.2718
     77  CB         0.0890  -11.9170   -4.8820 C.3    82  MET82       0.0401
     78  CG        -0.9950  -12.9450   -5.1990 C.3    82  MET82       0.0596
     79  SD        -0.9660  -14.4050   -4.1280 S.3    82  MET82      -0.1393
     80  CE         0.7400  -14.9110   -4.2910 C.3    82  MET82       0.0692
     81  N          0.1950  -10.2410   -7.3920 N.am   83  ASP83      -0.1960
     82  CA        -0.0680  -10.2220   -8.8450 C.3    83  ASP83       0.1840
     83  C         -1.2540  -11.0970   -9.1740 C.2    83  ASP83       0.2622
     84  O         -1.3540  -12.2120   -8.6480 O.2    83  ASP83      -0.2715
     85  CB         1.0930  -10.8320   -9.6630 C.3    83  ASP83       0.1450
     86  CG         2.3160   -9.9540   -9.7450 C.2    83  ASP83       0.3671
     87  OD1        2.2980   -8.8190   -9.2350 O.co2  83  ASP83      -0.2456
     88  OD2        3.3250  -10.4200  -10.3320 O.co2  83  ASP83      -0.2456
     89  N         -2.1300  -10.6070  -10.0500 N.am   84  LEU84      -0.1963
     90  CA        -3.1520  -11.4520  -10.6490 C.3    84  LEU84       0.1728
     91  C         -2.4890  -12.2130  -11.7860 C.2    84  LEU84       0.2616
     92  O         -1.7140  -11.6500  -12.5570 O.2    84  LEU84      -0.2715
     93  CB        -4.3120  -10.6210  -11.1870 C.3    84  LEU84       0.0311
     94  CG        -5.4740  -11.3650  -11.8560 C.3    84  LEU84       0.0022
     95  CD1       -6.2250  -12.2400  -10.8660 C.3    84  LEU84       0.0001
     96  CD2       -6.4300  -10.3700  -12.5050 C.3    84  LEU84       0.0001
     97  N         -2.8120  -13.4960  -11.8820 N.am   85  LEU85      -0.1963
     98  CA        -2.2580  -14.3730  -12.8890 C.3    85  LEU85       0.1728
     99  C         -3.4060  -14.9880  -13.6750 C.2    85  LEU85       0.2617
    100  O         -4.5670  -14.8900  -13.2700 O.2    85  LEU85      -0.2715
    101  CB        -1.4250  -15.4650  -12.2160 C.3    85  LEU85       0.0311
    102  CG        -0.2470  -15.0080  -11.3510 C.3    85  LEU85       0.0022
    103  CD1        0.4530  -16.2150  -10.7250 C.3    85  LEU85       0.0001
    104  CD2        0.7420  -14.1660  -12.1490 C.3    85  LEU85       0.0001
    105  N         -3.0520  -15.6250  -14.7890 N.am   86  GLY86      -0.1941
    106  CA        -3.9930  -16.2160  -15.7140 C.3    86  GLY86       0.1998
    107  C         -4.2940  -17.6540  -15.3470 C.2    86  GLY86       0.2481
    108  O         -4.0500  -18.0670  -14.2140 O.2    86  GLY86      -0.2729
    109  N         -4.8280  -18.4290  -16.3040 N.am   87  PRO87      -0.2715
    110  CA        -5.2820  -19.7880  -15.9970 C.3    87  PRO87       0.1536
    111  C         -4.1690  -20.8030  -15.6810 C.2    87  PRO87       0.2599
    112  O         -3.0230  -20.6340  -16.1060 O.2    87  PRO87      -0.2715
    113  CB        -6.0350  -20.2030  -17.2640 C.3    87  PRO87       0.0310
    114  CG        -5.4490  -19.3650  -18.3460 C.3    87  PRO87       0.0237
    115  CD        -5.1080  -18.0540  -17.7040 C.3    87  PRO87       0.0939
    116  N         -4.5420  -21.8610  -14.9600 N.am   88  SER88      -0.1950
    117  CA        -3.6350  -22.9440  -14.6290 C.3    88  SER88       0.1924
    118  C         -3.4170  -23.8160  -15.8470 C.2    88  SER88       0.2314
    119  O         -4.1310  -23.6870  -16.8370 O.2    88  SER88      -0.2863
    120  CB        -4.1950  -23.7890  -13.4770 C.3    88  SER88       0.2116
    121  OG        -5.1890  -24.7020  -13.9260 O.3    88  SER88      -0.2180
    122  N         -6.6110  -25.9140  -16.2850 N.3    91  ASP91      -0.1239
    123  CA        -7.6530  -25.1350  -16.9850 C.3    91  ASP91       0.1674
    124  C         -7.4110  -25.1650  -18.4890 C.2    91  ASP91       0.2266
    125  O         -8.3280  -25.4510  -19.2710 O.2    91  ASP91      -0.2867
    126  CB        -7.6770  -23.6640  -16.5350 C.3    91  ASP91       0.1410
    127  CG        -8.0360  -23.4820  -15.0690 C.2    91  ASP91       0.3668
    128  OD1       -8.6660  -24.3880  -14.4850 O.co2  91  ASP91      -0.2456
    129  OD2       -7.6930  -22.4060  -14.5000 O.co2  91  ASP91      -0.2456
    130  N         -2.3490  -27.7400  -11.6720 N.3   132  ASP132     -0.1225
    131  CA        -3.0840  -26.6690  -10.9730 C.3   132  ASP132      0.1805
    132  C         -2.1900  -25.5890  -10.3390 C.2   132  ASP132      0.2597
    133  O         -2.6550  -24.4770  -10.0970 O.2   132  ASP132     -0.2718
    134  CB        -3.9770  -27.2580   -9.8700 C.3   132  ASP132      0.1424
    135  CG        -4.8380  -28.4350  -10.3550 C.2   132  ASP132      0.3668
    136  OD1       -6.0630  -28.2450  -10.5090 O.co2 132  ASP132     -0.2456
    137  OD2       -4.2780  -29.5430  -10.5840 O.co2 132  ASP132     -0.2456
    138  N         -0.9300  -25.9230  -10.0390 N.am  133  ASN133     -0.1974
    139  CA         0.0130  -24.9790   -9.4120 C.3   133  ASN133      0.1688
    140  C          0.9290  -24.2540  -10.3950 C.2   133  ASN133      0.2292
    141  O          1.7510  -23.4410   -9.9790 O.2   133  ASN133     -0.2864
    142  CB         0.8310  -25.6850   -8.3220 C.3   133  ASN133      0.1181
    143  CG         0.0220  -25.9420   -7.0630 C.2   133  ASN133      0.2629
    144  OD1       -0.8820  -25.1730   -6.7290 O.2   133  ASN133     -0.2716
    145  ND2        0.3590  -27.0120   -6.3410 N.am  133  ASN133     -0.0877
    146  N          0.6110  -21.5740  -13.3880 N.3   135  LEU135     -0.1245
    147  CA        -0.2800  -20.5960  -14.0190 C.3   135  LEU135      0.1561
    148  C          0.4610  -19.7930  -15.0900 C.2   135  LEU135      0.2260
    149  O          1.5610  -19.3050  -14.8380 O.2   135  LEU135     -0.2867
    150  CB        -0.8190  -19.5910  -12.9880 C.3   135  LEU135      0.0270
    151  CG        -1.4740  -20.0810  -11.6930 C.3   135  LEU135      0.0019
    152  CD1       -2.0070  -18.8960  -10.9030 C.3   135  LEU135      0.0001
    153  CD2       -2.5820  -21.0810  -11.9390 C.3   135  LEU135      0.0001
    154  N          3.3090  -21.5200   -8.3160 N.3   148  ILE148     -0.1231
    155  CA         2.7200  -20.8790   -7.1430 C.3   148  ILE148      0.1692
    156  C          2.2930  -21.9170   -6.1060 C.2   148  ILE148      0.2592
    157  O          2.4600  -23.1340   -6.3110 O.2   148  ILE148     -0.2718
    158  CB         1.5610  -19.9170   -7.5430 C.3   148  ILE148      0.0266
    159  CG1        0.5000  -20.5910   -8.4180 C.3   148  ILE148      0.0019
    160  CG2        2.1160  -18.7240   -8.3100 C.3   148  ILE148      0.0020
    161  CD1       -0.3860  -21.5920   -7.7200 C.3   148  ILE148      0.0001
    162  N          1.7960  -21.4100   -4.9790 N.am  149  ASP149     -0.1974
    163  CA         1.3130  -22.1960   -3.8440 C.3   149  ASP149      0.1709
    164  C          2.4480  -22.9110   -3.0650 C.2   149  ASP149      0.2293
    165  O          2.7550  -24.0910   -3.2790 O.2   149  ASP149     -0.2864
    166  CB         0.1990  -23.1640   -4.2540 C.3   149  ASP149      0.1436
    167  CG        -0.6930  -23.5720   -3.0730 C.2   149  ASP149      0.3671
    168  OD1       -0.2980  -23.3780   -1.8960 O.co2 149  ASP149     -0.2456
    169  OD2       -1.8020  -24.0880   -3.3300 O.co2 149  ASP149     -0.2456
@<TRIPOS>BOND
     1   125   124    2
     2   124   123    1
     3   114   115    1
     4   114   113    1
     5   115   109    1
     6   113   110    1
     7   123   126    1
     8   123   122    1
     9   119   118    2
    10   126   127    1
    11   109   110    1
    12   109   107   am
    13   112   111    2
    14   110   111    1
    15   118   117    1
    16   106   107    1
    17   106   105    1
    18   111   116   am
    19   107   108    2
    20   148   149    2
    21   148   147    1
    22   127   129   ar
    23   127   128   ar
    24   116   117    1
    25   105    99   am
    26   117   120    1
    27   147   146    1
    28   147   150    1
    29   121   120    1
    30    99   100    2
    31    99    98    1
    32   150   151    1
    33    98   101    1
    34    98    97    1
    35    92    91    2
    36    96    94    1
    37   101   102    1
    38   104   102    1
    39   153   151    1
    40    97    91   am
    41    94    93    1
    42    94    95    1
    43    91    90    1
    44   151   152    1
    45   130   131    1
    46   102   103    1
    47    93    90    1
    48   131   132    1
    49   131   134    1
    50    90    89    1
    51   137   135   ar
    52   136   135   ar
    53   140   141    2
    54   140   139    1
    55   135   134    1
    56   132   133    2
    57   132   138   am
    58    88    86   ar
    59    89    83   am
    60   138   139    1
    61    86    85    1
    62    86    87   ar
    63    85    82    1
    64     7     5    1
    65   139   142    1
    66    83    82    1
    67    83    84    2
    68     4     3    2
    69     5     2    1
    70     5     6    1
    71    82    81    1
    72    66    67    1
    73    66    72    1
    74     8     6    1
    75   159   161    1
    76   159   158    1
    77    67    70    1
    78    67    68    1
    79   142   143    1
    80   154   155    1
    81   160   158    1
    82     2     3    1
    83     2     1    1
    84     3     9   am
    85    70    71    1
    86    72    71    1
    87   158   155    1
    88    81    75   am
    89    68    69    2
    90   155   156    1
    91    31    32    1
    92   143   144    2
    93   143   145   am
    94    35    32    1
    95     9    10    1
    96    76    75    2
    97    10    11    1
    98    75    74    1
    99    32    33    1
   100   157   156    2
   101   156   162   am
   102    78    77    1
   103    78    79    1
   104    29    27    1
   105    11    13   am
   106    11    12    2
   107    74    77    1
   108    74    73    1
   109   162   163    1
   110    33    34    2
   111    13    14    1
   112    26    25    2
   113    16    15    2
   114    27    28    1
   115    27    24    1
   116    65    64    1
   117    62    60   ar
   118    62    64   ar
   119    80    79    1
   120   166   163    1
   121   166   167    1
   122    25    24    1
   123    28    30    1
   124   163   164    1
   125    60    59   ar
   126    64    63   ar
   127    15    14    1
   128    15    19   am
   129    14    17    1
   130    24    23    1
   131   169   167   ar
   132   165   164    2
   133   167   168   ar
   134    17    18    1
   135    20    19    1
   136    20    21    1
   137    57    56    2
   138    59    61   ar
   139    59    58    1
   140    63    61   ar
   141    58    55    1
   142    21    22    2
   143    55    56    1
   144    55    54    1
   145    36    37    1
   146    53    51   ar
   147    44    43    1
   148    40    37    1
   149    40    41    1
   150    37    38    1
   151    42    41    1
   152    42    43    1
   153    51    50    1
   154    51    52   ar
   155    50    49    1
   156    38    39    2
   157    48    47    2
   158    49    46    1
   159    47    46    1
   160    46    45    1
