@<TRIPOS>MOLECULE
tmp/6gzdA06.pdb
 78 75 0 0 0
SMALL
GASTEIGER

@<TRIPOS>ATOM
      1  N          8.6950  -42.6800    7.6010 N.3   170  ASP170     -0.1225
      2  CA         7.4700  -42.4390    8.3700 C.3   170  ASP170      0.1805
      3  C          6.9440  -40.9790    8.2570 C.2   170  ASP170      0.2598
      4  O          6.4450  -40.4100    9.2330 O.2   170  ASP170     -0.2718
      5  CB         7.6440  -42.8700    9.8530 C.3   170  ASP170      0.1424
      6  CG         8.0570  -44.3550   10.0140 C.2   170  ASP170      0.3668
      7  OD1        7.7840  -45.1850    9.1120 O.co2 170  ASP170     -0.2456
      8  OD2        8.6520  -44.6930   11.0670 O.co2 170  ASP170     -0.2456
      9  N          7.0780  -40.3960    7.0630 N.am  171  LYS171     -0.1966
     10  CA         6.4630  -39.1140    6.7100 C.3   171  LYS171      0.1728
     11  C          5.1210  -39.3690    6.0290 C.2   171  LYS171      0.2616
     12  O          4.9970  -40.2900    5.2180 O.2   171  LYS171     -0.2715
     13  CB         7.3450  -38.3410    5.7270 C.3   171  LYS171      0.0311
     14  CG         8.7700  -38.0710    6.1900 C.3   171  LYS171      0.0038
     15  CD         8.8330  -37.1020    7.3590 C.3   171  LYS171      0.0206
     16  CE         8.3080  -35.7280    6.9840 C.3   171  LYS171      0.1093
     17  NZ         8.7440  -34.6990    7.9660 N.3   171  LYS171     -0.1314
     18  N          4.1240  -38.5440    6.3430 N.am  172  ASN172     -0.1958
     19  CA         2.8480  -38.5670    5.6210 C.3   172  ASN172      0.1819
     20  C          3.0120  -37.9690    4.2260 C.2   172  ASN172      0.2621
     21  O          3.6940  -36.9490    4.0550 O.2   172  ASN172     -0.2715
     22  CB         1.7830  -37.7720    6.3770 C.3   172  ASN172      0.1195
     23  CG         1.4030  -38.4180    7.6910 C.2   172  ASN172      0.2630
     24  OD1        1.0530  -39.6020    7.7350 O.2   172  ASN172     -0.2716
     25  ND2        1.4770  -37.6490    8.7720 N.am  172  ASN172     -0.0877
     26  N          2.3820  -38.6000    3.2340 N.am  173  LEU173     -0.1977
     27  CA         2.3310  -38.0510    1.8840 C.3   173  LEU173      0.1596
     28  C          1.5300  -36.7520    1.9400 C.2   173  LEU173      0.2287
     29  O          0.3140  -36.7640    2.1180 O.2   173  LEU173     -0.2864
     30  CB         1.7090  -39.0500    0.8970 C.3   173  LEU173      0.0297
     31  CG         1.5550  -38.6030   -0.5670 C.3   173  LEU173      0.0022
     32  CD1        2.8160  -37.9410   -1.1080 C.3   173  LEU173      0.0001
     33  CD2        1.1700  -39.7870   -1.4470 C.3   173  LEU173      0.0001
     34  N          8.0670  -40.7190   -1.9060 N.3   184  ALA184     -0.1231
     35  CA         7.0900  -40.0190   -1.0660 C.3   184  ALA184      0.1694
     36  C          5.9680  -40.9670   -0.6010 C.2   184  ALA184      0.2592
     37  O          5.5200  -40.8790    0.5430 O.2   184  ALA184     -0.2718
     38  CB         6.5030  -38.8310   -1.8000 C.3   184  ALA184      0.0304
     39  N          5.5300  -41.8640   -1.4850 N.am  185  HIS185     -0.1962
     40  CA         4.5360  -42.8780   -1.1270 C.3   185  HIS185      0.1787
     41  C          5.0330  -43.7820    0.0130 C.2   185  HIS185      0.2620
     42  O          4.2650  -44.1060    0.9240 O.2   185  HIS185     -0.2715
     43  CB         4.1680  -43.7480   -2.3290 C.3   185  HIS185      0.0785
     44  CG         3.1420  -43.1450   -3.2270 C.ar  185  HIS185      0.0821
     45  ND1        1.8390  -42.9360   -2.8290 N.ar  185  HIS185     -0.2267
     46  CD2        3.2110  -42.7510   -4.5190 C.ar  185  HIS185      0.1154
     47  CE1        1.1530  -42.4200   -3.8340 C.ar  185  HIS185      0.1986
     48  NE2        1.9640  -42.2920   -4.8690 N.ar  185  HIS185     -0.2212
     49  N          6.3200  -44.1390   -0.0340 N.am  186  LEU186     -0.1963
     50  CA         6.9600  -44.9870    0.9840 C.3   186  LEU186      0.1728
     51  C          7.2570  -44.2640    2.2940 C.2   186  LEU186      0.2616
     52  O          7.7880  -44.8700    3.2200 O.2   186  LEU186     -0.2715
     53  CB         8.2600  -45.5900    0.4410 C.3   186  LEU186      0.0311
     54  CG         8.1710  -46.3580   -0.8820 C.3   186  LEU186      0.0022
     55  CD1        9.5560  -46.7820   -1.3420 C.3   186  LEU186      0.0001
     56  CD2        7.2380  -47.5610   -0.7630 C.3   186  LEU186      0.0001
     57  N          6.9310  -42.9750    2.3740 N.am  187  GLY187     -0.1955
     58  CA         7.0920  -42.2030    3.5980 C.3   187  GLY187      0.1869
     59  C          8.4830  -41.6340    3.7750 C.2   187  GLY187      0.2309
     60  O          8.7800  -41.1000    4.8270 O.2   187  GLY187     -0.2863
     61  N         -5.7360  -44.1240    3.0050 N.3   222  LYS222     -0.1245
     62  CA        -4.4450  -44.7870    3.0660 C.3   222  LYS222      0.1561
     63  C         -4.3570  -45.9390    2.0660 C.2   222  LYS222      0.2260
     64  O         -3.3140  -46.1270    1.4390 O.2   222  LYS222     -0.2867
     65  CB        -4.1730  -45.2740    4.4890 C.3   222  LYS222      0.0271
     66  CG        -2.7920  -45.8660    4.6940 C.3   222  LYS222      0.0035
     67  CD        -2.4280  -45.9190    6.1670 C.3   222  LYS222      0.0206
     68  CE        -1.1350  -46.6850    6.3950 C.3   222  LYS222      0.1093
     69  NZ        -0.7440  -46.6720    7.8320 N.3   222  LYS222     -0.1314
     70  N         -2.0270  -46.4480   -1.1550 N.3   226  GLU226     -0.1245
     71  CA        -1.2260  -47.6770   -1.2730 C.3   226  GLU226      0.1567
     72  C         -1.4210  -48.3840   -2.6140 C.2   226  GLU226      0.2260
     73  O         -0.4660  -48.9300   -3.1720 O.2   226  GLU226     -0.2867
     74  CB        -1.4770  -48.6250   -0.0800 C.3   226  GLU226      0.0388
     75  CG        -0.5360  -48.3680    1.1030 C.3   226  GLU226      0.1160
     76  CD        -1.1880  -48.4510    2.4860 C.2   226  GLU226      0.3649
     77  OE1       -2.2320  -49.1230    2.6620 O.co2 226  GLU226     -0.2457
     78  OE2       -0.6270  -47.8410    3.4230 O.co2 226  GLU226     -0.2457
@<TRIPOS>BOND
     1    48    46   ar
     2    48    47   ar
     3    46    44   ar
     4    47    45   ar
     5    44    45   ar
     6    44    43    1
     7    73    72    2
     8    72    71    1
     9    43    40    1
    10    34    35    1
    11    38    35    1
    12    39    40    1
    13    39    36   am
    14    33    31    1
    15    55    54    1
    16    71    70    1
    17    71    74    1
    18    40    41    1
    19    32    31    1
    20    35    36    1
    21    54    56    1
    22    54    53    1
    23    36    37    2
    24    31    30    1
    25    74    75    1
    26    49    41   am
    27    49    50    1
    28    41    42    2
    29    53    50    1
    30    30    27    1
    31    50    51    1
    32    75    76    1
    33    64    63    2
    34    27    28    1
    35    27    26    1
    36    28    29    2
    37    63    62    1
    38    51    57   am
    39    51    52    2
    40    57    58    1
    41    76    77   ar
    42    76    78   ar
    43    61    62    1
    44    62    65    1
    45    26    20   am
    46    58    59    1
    47    59    60    2
    48    21    20    2
    49    20    19    1
    50    65    66    1
    51    66    67    1
    52    12    11    2
    53    19    18    1
    54    19    22    1
    55    13    14    1
    56    13    10    1
    57    11    18   am
    58    11    10    1
    59    67    68    1
    60    14    15    1
    61    22    23    1
    62    68    69    1
    63    10     9    1
    64    16    15    1
    65    16    17    1
    66     9     3   am
    67     1     2    1
    68    23    24    2
    69    23    25   am
    70     3     2    1
    71     3     4    2
    72     2     5    1
    73     7     6   ar
    74     5     6    1
    75     6     8   ar
