@<TRIPOS>MOLECULE
tmp/6gzhA00.pdb
 157 151 0 0 0
SMALL
GASTEIGER

@<TRIPOS>ATOM
      1  N        -46.8590   38.6880   51.6070 N.3    18  ILE18      -0.1231
      2  CA       -46.9560   39.1920   50.2380 C.3    18  ILE18       0.1696
      3  C        -47.1620   38.1180   49.1620 C.2    18  ILE18       0.2632
      4  O        -47.3000   38.4670   47.9870 O.2    18  ILE18      -0.2714
      5  CB       -45.7470   40.0880   49.8820 C.3    18  ILE18       0.0266
      6  CG1      -44.4200   39.3720   50.1380 C.3    18  ILE18       0.0019
      7  CG2      -45.7930   41.3680   50.6990 C.3    18  ILE18       0.0020
      8  CD1      -43.2210   40.0690   49.5290 C.3    18  ILE18       0.0001
      9  N        -47.1980   36.8330   49.5300 N.am   19  GLY19      -0.1718
     10  CA       -47.5550   35.7990   48.5540 C.2    19  GLY19       0.1480
     11  C        -47.4990   34.3410   48.9810 C.2    19  GLY19       0.2820
     12  O        -46.6060   33.9280   49.7260 O.2    19  GLY19      -0.2669
     13  N        -48.4600   33.5680   48.4740 N.am   20  GLN20      -0.1943
     14  CA       -48.5070   32.1200   48.6490 C.3    20  GLN20       0.1604
     15  C        -47.7760   31.4350   47.5020 C.2    20  GLN20       0.2287
     16  O        -47.4730   32.0660   46.4860 O.2    20  GLN20      -0.2864
     17  CB       -49.9660   31.6350   48.6980 C.3    20  GLN20       0.0394
     18  CG       -50.7530   32.1270   49.9050 C.3    20  GLN20       0.0908
     19  CD       -50.0720   31.7960   51.2240 C.2    20  GLN20       0.2608
     20  OE1      -49.9960   32.6330   52.1210 O.2    20  GLN20      -0.2717
     21  NE2      -49.5480   30.5790   51.3360 N.am   20  GLN20      -0.0878
     22  N        -42.8800   27.7770   47.8930 N.3    23  PHE23      -0.1241
     23  CA       -42.2270   28.5450   48.9810 C.3    23  PHE23       0.1605
     24  C        -43.1080   28.8380   50.2150 C.2    23  PHE23       0.2264
     25  O        -42.6240   28.7930   51.3490 O.2    23  PHE23      -0.2867
     26  CB       -41.6500   29.8740   48.4290 C.3    23  PHE23       0.0534
     27  CG       -42.6090   30.6530   47.5450 C.ar   23  PHE23      -0.0203
     28  CD1      -43.5410   31.5320   48.0990 C.ar   23  PHE23      -0.0042
     29  CD2      -42.5760   30.5110   46.1540 C.ar   23  PHE23      -0.0042
     30  CE1      -44.4240   32.2380   47.2910 C.ar   23  PHE23      -0.0003
     31  CE2      -43.4580   31.2150   45.3440 C.ar   23  PHE23      -0.0003
     32  CZ       -44.3800   32.0820   45.9120 C.ar   23  PHE23      -0.0000
     33  N        -43.6510   34.2540   52.3400 N.3    26  VAL26      -0.1245
     34  CA       -42.8090   35.4220   52.0110 C.3    26  VAL26       0.1561
     35  C        -43.4020   36.7020   52.6020 C.2    26  VAL26       0.2260
     36  O        -44.5430   37.0540   52.3090 O.2    26  VAL26      -0.2867
     37  CB       -42.6350   35.6300   50.4880 C.3    26  VAL26       0.0252
     38  CG1      -41.4900   36.6030   50.2070 C.3    26  VAL26       0.0019
     39  CG2      -42.4070   34.2990   49.7800 C.3    26  VAL26       0.0019
     40  N        -37.5650   41.4840   51.3160 N.3    39  ALA39      -0.1245
     41  CA       -38.5230   40.3890   51.3640 C.3    39  ALA39       0.1562
     42  C        -37.8830   39.2140   52.0710 C.2    39  ALA39       0.2260
     43  O        -36.7950   38.7950   51.6930 O.2    39  ALA39      -0.2867
     44  CB       -38.9430   39.9870   49.9620 C.3    39  ALA39       0.0290
     45  N        -38.0530   35.2770   53.1530 N.3    41  LYS41      -0.1245
     46  CA       -38.6270   33.9700   52.8320 C.3    41  LYS41       0.1561
     47  C        -38.0750   32.9340   53.8050 C.2    41  LYS41       0.2260
     48  O        -36.8700   32.7500   53.8780 O.2    41  LYS41      -0.2867
     49  CB       -38.2890   33.5920   51.3880 C.3    41  LYS41       0.0271
     50  CG       -39.1050   32.4280   50.8280 C.3    41  LYS41       0.0035
     51  CD       -39.0340   32.3400   49.2970 C.3    41  LYS41       0.0206
     52  CE       -38.0280   31.3090   48.7820 C.3    41  LYS41       0.1093
     53  NZ       -37.7920   31.4140   47.3090 N.3    41  LYS41      -0.1314
     54  N        -33.1850   38.5200   40.6620 N.3    72  VAL72      -0.1245
     55  CA       -33.4750   38.9910   42.0270 C.3    72  VAL72       0.1561
     56  C        -32.2670   38.8400   42.9500 C.2    72  VAL72       0.2260
     57  O        -31.6040   37.8130   42.9160 O.2    72  VAL72      -0.2867
     58  CB       -34.7080   38.2620   42.6240 C.3    72  VAL72       0.0252
     59  CG1      -34.4280   36.7850   42.8990 C.3    72  VAL72       0.0019
     60  CG2      -35.2000   38.9700   43.8800 C.3    72  VAL72       0.0019
     61  N        -34.2050   39.2060   50.5130 N.3    90  PHE90      -0.1227
     62  CA       -34.0820   39.7030   49.1380 C.3    90  PHE90       0.1736
     63  C        -34.3580   41.1940   49.0250 C.2    90  PHE90       0.2595
     64  O        -35.2340   41.7100   49.7170 O.2    90  PHE90      -0.2718
     65  CB       -35.1020   39.0170   48.2480 C.3    90  PHE90       0.0547
     66  CG       -34.9720   37.5300   48.1940 C.ar   90  PHE90      -0.0202
     67  CD1      -35.5850   36.7350   49.1480 C.ar   90  PHE90      -0.0042
     68  CD2      -34.2740   36.9210   47.1660 C.ar   90  PHE90      -0.0042
     69  CE1      -35.4900   35.3560   49.0920 C.ar   90  PHE90      -0.0003
     70  CE2      -34.1740   35.5420   47.1020 C.ar   90  PHE90      -0.0003
     71  CZ       -34.7800   34.7570   48.0690 C.ar   90  PHE90      -0.0000
     72  N        -33.6420   41.8730   48.1250 N.am   91  ASP91      -0.1960
     73  CA       -33.9410   43.2730   47.7810 C.3    91  ASP91       0.1840
     74  C        -35.3710   43.3000   47.2760 C.2    91  ASP91       0.2622
     75  O        -35.6950   42.5400   46.3680 O.2    91  ASP91      -0.2715
     76  CB       -33.0070   43.8130   46.6750 C.3    91  ASP91       0.1450
     77  CG       -31.6810   44.3810   47.2050 C.2    91  ASP91       0.3671
     78  OD1      -31.6490   45.0010   48.2950 O.co2  91  ASP91      -0.2456
     79  OD2      -30.6610   44.2360   46.4890 O.co2  91  ASP91      -0.2456
     80  N        -36.2100   44.1590   47.8600 N.am   92  PHE92      -0.1960
     81  CA       -37.6630   44.1460   47.6070 C.3    92  PHE92       0.1771
     82  C        -38.0470   44.6900   46.2340 C.2    92  PHE92       0.2620
     83  O        -37.4480   45.6530   45.7610 O.2    92  PHE92      -0.2715
     84  CB       -38.3980   44.9440   48.6830 C.3    92  PHE92       0.0574
     85  CG       -39.8930   44.9270   48.5390 C.ar   92  PHE92      -0.0200
     86  CD1      -40.6240   43.8100   48.9130 C.ar   92  PHE92      -0.0042
     87  CD2      -40.5720   46.0290   48.0330 C.ar   92  PHE92      -0.0042
     88  CE1      -42.0070   43.7900   48.7810 C.ar   92  PHE92      -0.0003
     89  CE2      -41.9540   46.0180   47.9030 C.ar   92  PHE92      -0.0003
     90  CZ       -42.6740   44.8970   48.2760 C.ar   92  PHE92      -0.0000
     91  N        -39.0620   44.0650   45.6300 N.am   93  CYS93      -0.1954
     92  CA       -39.5780   44.4100   44.3010 C.3    93  CYS93       0.1843
     93  C        -41.0750   44.6380   44.3930 C.2    93  CYS93       0.2625
     94  O        -41.8090   43.7600   44.8410 O.2    93  CYS93      -0.2714
     95  CB       -39.3190   43.2820   43.3090 C.3    93  CYS93       0.0997
     96  SG       -37.5690   42.9590   43.0150 S.3    93  CYS93      -0.0797
     97  N        -41.5210   45.8080   43.9460 N.am   94  GLU94      -0.1963
     98  CA       -42.9050   46.2430   44.1230 C.3    94  GLU94       0.1733
     99  C        -43.9380   45.2810   43.5080 C.2    94  GLU94       0.2616
    100  O        -44.8470   44.8340   44.2050 O.2    94  GLU94      -0.2715
    101  CB       -43.0640   47.6560   43.5440 C.3    94  GLU94       0.0429
    102  CG       -44.4260   48.3110   43.7390 C.3    94  GLU94       0.1163
    103  CD       -44.7670   48.6200   45.1790 C.2    94  GLU94       0.3649
    104  OE1      -43.8470   48.7090   46.0260 O.co2  94  GLU94      -0.2457
    105  OE2      -45.9770   48.7770   45.4520 O.co2  94  GLU94      -0.2457
    106  N        -43.7800   44.9570   42.2220 N.am   95  HIS95      -0.1959
    107  CA       -44.8000   44.2180   41.4550 C.3    95  HIS95       0.1787
    108  C        -44.3040   42.8860   40.9140 C.2    95  HIS95       0.2620
    109  O        -43.1060   42.6300   40.8870 O.2    95  HIS95      -0.2715
    110  CB       -45.2650   45.0400   40.2460 C.3    95  HIS95       0.0785
    111  CG       -45.4890   46.4890   40.5360 C.ar   95  HIS95       0.0821
    112  ND1      -44.6000   47.4670   40.1460 N.ar   95  HIS95      -0.2267
    113  CD2      -46.5020   47.1280   41.1650 C.ar   95  HIS95       0.1154
    114  CE1      -45.0520   48.6460   40.5290 C.ar   95  HIS95       0.1986
    115  NE2      -46.2040   48.4680   41.1520 N.ar   95  HIS95      -0.2212
    116  N        -45.2530   42.0560   40.4750 N.am   96  ASP96      -0.1971
    117  CA       -44.9940   40.9310   39.5600 C.3    96  ASP96       0.1709
    118  C        -45.8100   41.1270   38.2850 C.2    96  ASP96       0.2293
    119  O        -46.7830   41.8780   38.2710 O.2    96  ASP96      -0.2864
    120  CB       -45.3270   39.5740   40.1900 C.3    96  ASP96       0.1436
    121  CG       -46.7920   39.4480   40.6010 C.2    96  ASP96       0.3671
    122  OD1      -47.1630   39.9550   41.6770 O.co2  96  ASP96      -0.2456
    123  OD2      -47.5810   38.8520   39.8340 O.co2  96  ASP96      -0.2456
    124  N        -45.9110   35.1260   37.2310 N.3   140  ALA140     -0.1231
    125  CA       -45.7560   35.3950   38.6740 C.3   140  ALA140      0.1694
    126  C        -44.2880   35.5120   39.1380 C.2   140  ALA140      0.2592
    127  O        -43.9820   36.3130   40.0200 O.2   140  ALA140     -0.2718
    128  CB       -46.4890   34.3340   39.4850 C.3   140  ALA140      0.0304
    129  N        -43.3920   34.7390   38.5160 N.am  141  ASN141     -0.1974
    130  CA       -41.9420   34.7740   38.8110 C.3   141  ASN141      0.1688
    131  C        -41.1580   35.8760   38.0650 C.2   141  ASN141      0.2292
    132  O        -39.9160   35.8540   38.0560 O.2   141  ASN141     -0.2864
    133  CB       -41.3040   33.4080   38.4950 C.3   141  ASN141      0.1181
    134  CG       -41.8780   32.2830   39.3290 C.2   141  ASN141      0.2629
    135  OD1      -42.2560   32.4780   40.4840 O.2   141  ASN141     -0.2716
    136  ND2      -41.9400   31.0910   38.7460 N.am  141  ASN141     -0.0877
    137  N        -40.6500   39.6050   38.4550 N.3   143  LEU143     -0.1245
    138  CA       -40.8220   40.7510   39.3250 C.3   143  LEU143      0.1561
    139  C        -40.3020   42.0080   38.6410 C.2   143  LEU143      0.2260
    140  O        -39.3160   41.9560   37.9040 O.2   143  LEU143     -0.2867
    141  CB       -40.0850   40.5300   40.6530 C.3   143  LEU143      0.0270
    142  CG       -40.3940   39.2360   41.4120 C.3   143  LEU143      0.0019
    143  CD1      -39.7250   39.2490   42.7760 C.3   143  LEU143      0.0001
    144  CD2      -41.8930   39.0150   41.5490 C.3   143  LEU143      0.0001
    145  N        -37.1960   35.5780   39.3620 N.3   153  ALA153     -0.1231
    146  CA       -37.4040   35.1580   40.7450 C.3   153  ALA153      0.1694
    147  C        -37.8020   33.6860   40.9050 C.2   153  ALA153      0.2592
    148  O        -38.0760   32.9850   39.9260 O.2   153  ALA153     -0.2718
    149  CB       -38.4460   36.0600   41.3840 C.3   153  ALA153      0.0304
    150  N        -37.8150   33.2500   42.1680 N.am  154  ASP154     -0.1974
    151  CA       -38.1000   31.8710   42.5890 C.3   154  ASP154      0.1709
    152  C        -37.2650   30.8150   41.8430 C.2   154  ASP154      0.2293
    153  O        -37.7070   30.2020   40.8630 O.2   154  ASP154     -0.2864
    154  CB       -39.6090   31.5550   42.5500 C.3   154  ASP154      0.1436
    155  CG       -40.0100   30.4370   43.5280 C.2   154  ASP154      0.3671
    156  OD1      -39.3570   30.2840   44.5840 O.co2 154  ASP154     -0.2456
    157  OD2      -40.9930   29.7170   43.2480 O.co2 154  ASP154     -0.2456
@<TRIPOS>BOND
     1   124   125    1
     2   140   139    2
     3   132   131    2
     4   131   130    1
     5   119   118    2
     6   118   117    1
     7   137   138    1
     8   133   130    1
     9   133   134    1
    10   129   130    1
    11   129   126   am
    12   139   138    1
    13   125   126    1
    14   125   128    1
    15   136   134   am
    16   126   127    2
    17   138   141    1
    18   134   135    2
    19   145   146    1
    20   117   120    1
    21   117   116    1
    22   123   121   ar
    23   148   147    2
    24   112   114   ar
    25   112   111   ar
    26   120   121    1
    27   110   111    1
    28   110   107    1
    29   116   108   am
    30   114   115   ar
    31   111   113   ar
    32   121   122   ar
    33   141   142    1
    34    54    55    1
    35   146   147    1
    36   146   149    1
    37   153   152    2
    38   109   108    2
    39   147   150   am
    40   108   107    1
    41   115   113   ar
    42   142   144    1
    43   142   143    1
    44   107   106    1
    45   152   151    1
    46    55    58    1
    47    55    56    1
    48   150   151    1
    49   106    99   am
    50   154   151    1
    51   154   155    1
    52    58    59    1
    53    58    60    1
    54    57    56    2
    55    96    95    1
    56   157   155   ar
    57    95    92    1
    58    99    98    1
    59    99   100    2
    60   155   156   ar
    61   101   102    1
    62   101    98    1
    63   102   103    1
    64    97    98    1
    65    97    93   am
    66    92    93    1
    67    92    91    1
    68    93    94    2
    69   103   105   ar
    70   103   104   ar
    71    31    32   ar
    72    31    29   ar
    73    91    82   am
    74    83    82    2
    75    32    30   ar
    76    29    27   ar
    77    82    81    1
    78    75    74    2
    79    16    15    2
    80    79    77   ar
    81    76    77    1
    82    76    73    1
    83    70    68   ar
    84    70    71   ar
    85    68    66   ar
    86    77    78   ar
    87    74    73    1
    88    74    80   am
    89    30    28   ar
    90    53    52    1
    91    15    14    1
    92    27    28   ar
    93    27    26    1
    94    81    80    1
    95    81    84    1
    96    73    72    1
    97    22    23    1
    98    89    87   ar
    99    89    90   ar
   100     4     3    2
   101    87    85   ar
   102    71    69   ar
   103    72    63   am
   104    66    65    1
   105    66    67   ar
   106    65    62    1
   107    90    88   ar
   108    26    23    1
   109    13    14    1
   110    13    11   am
   111    85    84    1
   112    85    86   ar
   113    10    11    1
   114    10     9    2
   115    14    17    1
   116    17    18    1
   117    88    86   ar
   118    52    51    1
   119    11    12    2
   120    23    24    1
   121    63    62    1
   122    63    64    2
   123    69    67   ar
   124    62    61    1
   125     3     9    1
   126     3     2    1
   127    51    50    1
   128     8     6    1
   129    39    37    1
   130     5     6    1
   131     5     2    1
   132     5     7    1
   133    18    19    1
   134    44    41    1
   135    38    37    1
   136    24    25    2
   137     2     1    1
   138    37    34    1
   139    50    49    1
   140    19    21   am
   141    19    20    2
   142    40    41    1
   143    41    42    1
   144    49    46    1
   145    43    42    2
   146    34    33    1
   147    34    35    1
   148    36    35    2
   149    46    45    1
   150    46    47    1
   151    47    48    2
