@<TRIPOS>MOLECULE
tmp/6gzmB00.pdb
 162 153 0 0 0
SMALL
GASTEIGER

@<TRIPOS>ATOM
      1  N          2.6140   10.2460    1.3620 N.3    15  ILE15      -0.1231
      2  CA         3.5830    9.2150    0.9060 C.3    15  ILE15       0.1692
      3  C          4.0920    9.4580   -0.5270 C.2    15  ILE15       0.2593
      4  O          5.0360    8.7850   -0.9750 O.2    15  ILE15      -0.2718
      5  CB         3.0330    7.7580    1.0530 C.3    15  ILE15       0.0266
      6  CG1        1.7170    7.5550    0.3160 C.3    15  ILE15       0.0019
      7  CG2        2.8090    7.3980    2.5240 C.3    15  ILE15       0.0020
      8  CD1        1.1770    6.1380    0.4440 C.3    15  ILE15       0.0001
      9  N          3.5190   10.4470   -1.2120 N.am   16  GLY16      -0.1942
     10  CA         3.8730   10.7840   -2.5720 C.3    16  GLY16       0.2014
     11  C          2.7250   11.4410   -3.3340 C.2    16  GLY16       0.2640
     12  O          1.7420   11.8950   -2.7460 O.2    16  GLY16      -0.2714
     13  N          2.8300   11.4530   -4.6600 N.am   17  SER17      -0.1935
     14  CA         1.8080   12.0630   -5.5100 C.3    17  SER17       0.2055
     15  C          1.5240   11.1920   -6.7190 C.2    17  SER17       0.2643
     16  O          2.3520   10.3930   -7.1260 O.2    17  SER17      -0.2714
     17  CB         2.2290   13.4670   -5.9730 C.3    17  SER17       0.2130
     18  OG         3.2990   13.4250   -6.9000 O.3    17  SER17      -0.2179
     19  N          0.3390   11.3540   -7.2570 N.am   18  GLY18      -0.1954
     20  CA        -0.0140   10.7220   -8.5120 C.3    18  GLY18       0.1869
     21  C         -0.6400   11.7530   -9.4020 C.2    18  GLY18       0.2309
     22  O         -0.5380   12.9550   -9.1570 O.2    18  GLY18      -0.2863
     23  N         -0.9570   11.4210   -2.3800 N.3    23  ILE23      -0.1245
     24  CA        -1.3530   10.1790   -1.7340 C.3    23  ILE23       0.1561
     25  C         -0.8740   10.1880   -0.2850 C.2    23  ILE23       0.2260
     26  O          0.2600   10.5920   -0.0000 O.2    23  ILE23      -0.2867
     27  CB        -0.7760    8.9150   -2.4370 C.3    23  ILE23       0.0252
     28  CG1       -0.8070    9.0290   -3.9720 C.3    23  ILE23       0.0019
     29  CG2       -1.5150    7.6530   -1.9620 C.3    23  ILE23       0.0019
     30  CD1       -2.1740    9.0710   -4.5880 C.3    23  ILE23       0.0001
     31  N         -0.9030    7.8490    3.5660 N.3    25  LEU25      -0.1245
     32  CA        -1.1560    6.6200    4.2970 C.3    25  LEU25       0.1561
     33  C         -2.3370    6.9130    5.2440 C.2    25  LEU25       0.2260
     34  O         -2.5100    8.0450    5.7170 O.2    25  LEU25      -0.2867
     35  CB         0.1090    6.1540    5.0270 C.3    25  LEU25       0.0270
     36  CG        -0.0390    4.8080    5.7620 C.3    25  LEU25       0.0019
     37  CD1       -0.2660    3.6630    4.7890 C.3    25  LEU25       0.0001
     38  CD2        1.1830    4.5260    6.6230 C.3    25  LEU25       0.0001
     39  N         -4.6230    3.3890    1.4840 N.3    36  ALA36      -0.1245
     40  CA        -4.0160    4.5390    0.8520 C.3    36  ALA36       0.1562
     41  C         -5.1310    5.4890    0.4850 C.2    36  ALA36       0.2260
     42  O         -6.2380    5.0290    0.1280 O.2    36  ALA36      -0.2867
     43  CB        -3.2360    4.0990   -0.4040 C.3    36  ALA36       0.0290
     44  N         -6.1260    9.0620   -1.6820 N.3    38  LYS38      -0.1245
     45  CA        -5.8160   10.0280   -2.7190 C.3    38  LYS38       0.1561
     46  C         -6.7160   11.2500   -2.5360 C.2    38  LYS38       0.2260
     47  O         -7.9370   11.1060   -2.4030 O.2    38  LYS38      -0.2867
     48  CB        -6.0270    9.4110   -4.1140 C.3    38  LYS38       0.0271
     49  CG        -5.5600   10.3140   -5.2280 C.3    38  LYS38       0.0035
     50  CD        -5.4500    9.6250   -6.5800 C.3    38  LYS38       0.0206
     51  CE        -4.8680   10.5880   -7.5950 C.3    38  LYS38       0.1093
     52  NZ        -4.5700    9.9370   -8.8850 N.3    38  LYS38      -0.1314
     53  N        -11.1700    2.2840  -12.1350 N.3    56  TYR56      -0.1241
     54  CA       -10.8020    1.2120  -11.1970 C.3    56  TYR56       0.1605
     55  C        -11.9590    0.2080  -10.9720 C.2    56  TYR56       0.2264
     56  O        -11.7480   -0.9930  -10.9280 O.2    56  TYR56      -0.2867
     57  CB       -10.3930    1.7880   -9.8520 C.3    56  TYR56       0.0534
     58  CG        -8.9640    2.2650   -9.7210 C.ar   56  TYR56      -0.0201
     59  CD1       -7.9320    1.3440   -9.5860 C.ar   56  TYR56      -0.0009
     60  CD2       -8.6510    3.6130   -9.6400 C.ar   56  TYR56      -0.0009
     61  CE1       -6.6230    1.7620   -9.4090 C.ar   56  TYR56       0.0417
     62  CE2       -7.3380    4.0520   -9.4650 C.ar   56  TYR56       0.0417
     63  CZ        -6.3170    3.1170   -9.3560 C.ar   56  TYR56       0.1957
     64  OH        -5.0370    3.5380   -9.1450 O.3    56  TYR56      -0.2866
     65  N         -8.2910    3.5510   -1.0800 N.3    82  MET82      -0.1230
     66  CA        -7.8830    2.3600   -1.8080 C.3    82  MET82       0.1702
     67  C         -7.1720    1.3590   -0.9170 C.2    82  MET82       0.2592
     68  O         -6.5240    1.7460    0.0760 O.2    82  MET82      -0.2718
     69  CB        -6.8760    2.7560   -2.8850 C.3    82  MET82       0.0401
     70  CG        -7.2600    3.9450   -3.7240 C.3    82  MET82       0.0596
     71  SD        -5.8550    4.5130   -4.6510 S.3    82  MET82      -0.1393
     72  CE        -5.7170    3.1820   -5.8350 C.3    82  MET82       0.0692
     73  N         -7.2470    0.0940   -1.3210 N.am   83  GLU83      -0.1966
     74  CA        -6.3760   -0.9560   -0.8280 C.3    83  GLU83       0.1733
     75  C         -4.9080   -0.5270   -0.7730 C.2    83  GLU83       0.2616
     76  O         -4.3920   -0.0760   -1.7560 O.2    83  GLU83      -0.2715
     77  CB        -6.5080   -2.1590   -1.7710 C.3    83  GLU83       0.0429
     78  CG        -5.6330   -3.3570   -1.4580 C.3    83  GLU83       0.1163
     79  CD        -5.9570   -4.5520   -2.3280 C.2    83  GLU83       0.3649
     80  OE1       -6.6900   -4.4290   -3.3430 O.co2  83  GLU83      -0.2457
     81  OE2       -5.4820   -5.6390   -1.9750 O.co2  83  GLU83      -0.2457
     82  N         -4.2700   -0.6430    0.3890 N.am   84  LEU84      -0.1963
     83  CA        -2.8390   -0.3610    0.5260 C.3    84  LEU84       0.1728
     84  C         -2.0080   -1.4350   -0.0980 C.2    84  LEU84       0.2616
     85  O         -2.2540   -2.6380    0.1510 O.2    84  LEU84      -0.2715
     86  CB        -2.4550   -0.2300    1.9990 C.3    84  LEU84       0.0311
     87  CG        -1.0030    0.1520    2.2940 C.3    84  LEU84       0.0022
     88  CD1       -0.6910    1.5420    1.8040 C.3    84  LEU84       0.0001
     89  CD2       -0.7260    0.0380    3.7770 C.3    84  LEU84       0.0001
     90  N         -1.0150   -1.0110   -0.9040 N.am   85  LEU85      -0.1963
     91  CA        -0.0970   -1.9180   -1.5670 C.3    85  LEU85       0.1728
     92  C          1.3200   -1.6030   -1.1010 C.2    85  LEU85       0.2617
     93  O          1.5490   -0.6460   -0.3160 O.2    85  LEU85      -0.2715
     94  CB        -0.2290   -1.8320   -3.1050 C.3    85  LEU85       0.0311
     95  CG        -1.6000   -2.2210   -3.6590 C.3    85  LEU85       0.0022
     96  CD1       -1.7320   -1.7840   -5.1180 C.3    85  LEU85       0.0001
     97  CD2       -1.8960   -3.7030   -3.4980 C.3    85  LEU85       0.0001
     98  N          2.2530   -2.4460   -1.5550 N.am   86  GLY86      -0.1941
     99  CA         3.6420   -2.3720   -1.2050 C.3    86  GLY86       0.1998
    100  C          4.4410   -1.3850   -2.0420 C.2    86  GLY86       0.2481
    101  O          3.8600   -0.5760   -2.7780 O.2    86  GLY86      -0.2729
    102  N          5.7660   -1.4690   -1.9520 N.am   87  PRO87      -0.2715
    103  CA         6.6130   -0.5060   -2.6100 C.3    87  PRO87       0.1536
    104  C          6.5060   -0.5300   -4.1310 C.2    87  PRO87       0.2599
    105  O          6.2580   -1.5730   -4.7430 O.2    87  PRO87      -0.2715
    106  CB         8.0240   -0.9110   -2.2040 C.3    87  PRO87       0.0310
    107  CG         7.8930   -2.0450   -1.2770 C.3    87  PRO87       0.0237
    108  CD         6.5360   -2.6240   -1.4850 C.3    87  PRO87       0.0939
    109  N          6.7850    0.6060   -4.7210 N.am   88  SER88      -0.1950
    110  CA         6.8220    0.7120   -6.1730 C.3    88  SER88       0.1924
    111  C          8.0970    0.1120   -6.7360 C.2    88  SER88       0.2314
    112  O          9.0990   -0.0640   -6.0330 O.2    88  SER88      -0.2863
    113  CB         6.7520    2.1770   -6.5940 C.3    88  SER88       0.2116
    114  OG         8.0040    2.7960   -6.5370 O.3    88  SER88      -0.2180
    115  N         10.8760    2.5880   -6.0580 N.3    91  ASP91      -0.1239
    116  CA        11.3380    2.3700   -4.6790 C.3    91  ASP91       0.1674
    117  C         12.3010    1.1880   -4.5560 C.2    91  ASP91       0.2266
    118  O         13.3550    1.2920   -3.9230 O.2    91  ASP91      -0.2867
    119  CB        10.1700    2.1010   -3.7190 C.3    91  ASP91       0.1410
    120  CG         9.2110    3.2890   -3.5350 C.2    91  ASP91       0.3668
    121  OD1        9.6280    4.4630   -3.6330 O.co2  91  ASP91      -0.2456
    122  OD2        8.0030    3.0190   -3.2620 O.co2  91  ASP91      -0.2456
    123  N          7.1750    3.8530  -11.2880 N.3   132  ASP132     -0.1225
    124  CA         6.4130    4.3820  -10.1770 C.3   132  ASP132      0.1805
    125  C          4.9390    3.9050  -10.1640 C.2   132  ASP132      0.2597
    126  O          4.2580    3.9630   -9.1240 O.2   132  ASP132     -0.2718
    127  CB         6.4860    5.9240  -10.2380 C.3   132  ASP132      0.1424
    128  CG         7.8630    6.4470  -10.7610 C.2   132  ASP132      0.3668
    129  OD1        8.2880    6.2130  -11.9680 O.co2 132  ASP132     -0.2456
    130  OD2        8.5420    7.0910   -9.9380 O.co2 132  ASP132     -0.2456
    131  N          4.4160    3.4810  -11.3220 N.am  133  ASN133     -0.1974
    132  CA         3.0220    3.0270  -11.4120 C.3   133  ASN133      0.1688
    133  C          2.8450    1.4930  -11.3690 C.2   133  ASN133      0.2292
    134  O          1.7560    0.9880  -11.7110 O.2   133  ASN133     -0.2864
    135  CB         2.3120    3.6180  -12.6380 C.3   133  ASN133      0.1181
    136  CG         1.9890    5.0800  -12.4670 C.2   133  ASN133      0.2629
    137  OD1        1.8220    5.5300  -11.3480 O.2   133  ASN133     -0.2716
    138  ND2        1.8300    5.8060  -13.5710 N.am  133  ASN133     -0.0877
    139  N          3.2910   -1.4030   -8.3130 N.3   135  LEU135     -0.1245
    140  CA         3.5730   -1.6760   -6.9050 C.3   135  LEU135      0.1561
    141  C          3.5360   -3.1750   -6.6500 C.2   135  LEU135      0.2260
    142  O          2.7460   -3.8510   -7.2240 O.2   135  LEU135     -0.2867
    143  CB         2.5280   -1.0470   -6.0240 C.3   135  LEU135      0.0270
    144  CG         2.2090    0.4480   -6.2060 C.3   135  LEU135      0.0019
    145  CD1        1.1510    0.9470   -5.2140 C.3   135  LEU135      0.0001
    146  CD2        3.4470    1.3010   -6.2180 C.3   135  LEU135      0.0001
    147  N         -1.1290    0.6680  -11.1440 N.3   148  ILE148     -0.1231
    148  CA        -1.9140    1.7500  -10.5060 C.3   148  ILE148      0.1692
    149  C         -1.9730    2.9910  -11.3710 C.2   148  ILE148      0.2592
    150  O         -1.2020    3.1450  -12.3260 O.2   148  ILE148     -0.2718
    151  CB        -1.3510    2.1950   -9.1370 C.3   148  ILE148      0.0266
    152  CG1        0.1040    2.7010   -9.2780 C.3   148  ILE148      0.0019
    153  CG2       -1.4590    1.1110   -8.1000 C.3   148  ILE148      0.0020
    154  CD1        0.5510    3.6020   -8.1290 C.3   148  ILE148      0.0001
    155  N         -2.8820    3.8540  -10.9740 N.am  149  ASP149     -0.1974
    156  CA        -3.0250    5.2210  -11.4590 C.3   149  ASP149      0.1709
    157  C         -3.6570    5.2470  -12.8490 C.2   149  ASP149      0.2293
    158  O         -2.9700    5.1490  -13.8710 O.2   149  ASP149     -0.2864
    159  CB        -1.7310    6.0300  -11.4020 C.3   149  ASP149      0.1436
    160  CG        -2.0030    7.5460  -11.4480 C.2   149  ASP149      0.3671
    161  OD1       -2.9280    7.9890  -12.1960 O.co2 149  ASP149     -0.2456
    162  OD2       -1.2760    8.2790  -10.7400 O.co2 149  ASP149     -0.2456
@<TRIPOS>BOND
     1   158   157    2
     2   138   136   am
     3   157   156    1
     4   135   136    1
     5   135   132    1
     6   136   137    2
     7   150   149    2
     8   161   160   ar
     9    53    54    1
    10   129   128   ar
    11   134   133    2
    12   156   159    1
    13   156   155    1
    14   160   159    1
    15   160   162   ar
    16   132   133    1
    17   132   131    1
    18   149   155   am
    19   149   148    1
    20   131   125   am
    21   123   124    1
    22    54    55    1
    23    54    57    1
    24   147   148    1
    25    55    56    2
    26   128   127    1
    27   128   130   ar
    28   148   151    1
    29   127   124    1
    30   124   125    1
    31   125   126    2
    32    57    58    1
    33    58    60   ar
    34    58    59   ar
    35    60    62   ar
    36    59    61   ar
    37    62    63   ar
    38    61    63   ar
    39    21    22    2
    40    21    20    1
    41    63    64    1
    42   152   151    1
    43   152   154    1
    44   151   153    1
    45    52    51    1
    46    20    19    1
    47   139   140    1
    48    51    50    1
    49    19    15   am
    50   142   141    2
    51    16    15    2
    52   140   141    1
    53   140   143    1
    54    18    17    1
    55   111   110    1
    56   111   112    2
    57    15    14    1
    58   113   114    1
    59   113   110    1
    60    50    49    1
    61   146   144    1
    62   144   143    1
    63   144   145    1
    64   110   109    1
    65   115   116    1
    66    17    14    1
    67    72    71    1
    68    14    13    1
    69    49    48    1
    70    96    95    1
    71   105   104    2
    72   109   104   am
    73   116   117    1
    74   116   119    1
    75    13    11   am
    76    71    70    1
    77    30    28    1
    78   117   118    2
    79   104   103    1
    80    48    45    1
    81    28    27    1
    82    70    69    1
    83   119   120    1
    84    95    97    1
    85    95    94    1
    86   121   120   ar
    87   120   122   ar
    88    80    79   ar
    89    11    12    2
    90    11    10    1
    91    94    91    1
    92    69    66    1
    93   101   100    2
    94    45    46    1
    95    45    44    1
    96   103   106    1
    97   103   102    1
    98    10     9    1
    99    46    47    2
   100    27    29    1
   101    27    24    1
   102    23    24    1
   103    79    81   ar
   104    79    78    1
   105   106   107    1
   106   100   102   am
   107   100    99    1
   108   102   108    1
   109    66    65    1
   110    66    67    1
   111    77    78    1
   112    77    74    1
   113    76    75    2
   114    24    25    1
   115    91    92    1
   116    91    90    1
   117    98    99    1
   118    98    92   am
   119   108   107    1
   120    73    67   am
   121    73    74    1
   122     9     3   am
   123    92    93    2
   124     4     3    2
   125    67    68    2
   126    90    84   am
   127    74    75    1
   128    75    82   am
   129     3     2    1
   130    43    40    1
   131    25    26    2
   132    84    85    2
   133    84    83    1
   134    42    41    2
   135     6     8    1
   136     6     5    1
   137    82    83    1
   138    41    40    1
   139    83    86    1
   140    40    39    1
   141     2     5    1
   142     2     1    1
   143     5     7    1
   144    88    87    1
   145    86    87    1
   146    87    89    1
   147    31    32    1
   148    32    35    1
   149    32    33    1
   150    37    36    1
   151    35    36    1
   152    33    34    2
   153    36    38    1
