@<TRIPOS>MOLECULE
tmp/6gztA00.pdb
 144 135 0 0 0
SMALL
GASTEIGER

@<TRIPOS>ATOM
      1  N         11.5710  -29.8510  -51.4490 N.3    31  ALA31      -0.1245
      2  CA        10.4170  -30.7050  -51.1840 C.3    31  ALA31       0.1562
      3  C         10.2200  -31.0200  -49.7060 C.2    31  ALA31       0.2260
      4  O         11.1740  -31.3130  -48.9840 O.2    31  ALA31      -0.2867
      5  CB        10.5230  -31.9910  -51.9820 C.3    31  ALA31       0.0290
      6  N         -0.6400  -38.2640  -57.9830 N.3   115  HIS115     -0.1241
      7  CA         0.1200  -38.3790  -59.2130 C.3   115  HIS115      0.1621
      8  C         -0.8720  -38.6860  -60.3290 C.2   115  HIS115      0.2264
      9  O         -1.7830  -39.4880  -60.1380 O.2   115  HIS115     -0.2867
     10  CB         1.1650  -39.4890  -59.0930 C.3   115  HIS115      0.0745
     11  CG         2.1610  -39.5120  -60.2110 C.ar  115  HIS115      0.0817
     12  ND1        1.8660  -40.0160  -61.4610 N.ar  115  HIS115     -0.2268
     13  CD2        3.4510  -39.1090  -60.2640 C.ar  115  HIS115      0.1154
     14  CE1        2.9310  -39.9180  -62.2360 C.ar  115  HIS115      0.1986
     15  NE2        3.9090  -39.3660  -61.5330 N.ar  115  HIS115     -0.2212
     16  N         -0.7090  -40.4040  -63.0380 N.3   117  THR117     -0.1218
     17  CA        -0.7050  -41.7470  -63.6310 C.3   117  THR117      0.1862
     18  C         -1.5080  -42.8390  -62.9000 C.2   117  THR117      0.2287
     19  O         -2.3480  -43.4890  -63.5210 O.2   117  THR117     -0.2866
     20  CB         0.7270  -42.2350  -63.9120 C.3   117  THR117      0.1770
     21  OG1        1.3460  -41.3440  -64.8450 O.3   117  THR117     -0.2211
     22  CG2        0.7110  -43.6430  -64.4860 C.3   117  THR117      0.0375
     23  N          3.5430  -45.9760  -56.7740 N.3   127  THR127     -0.1218
     24  CA         4.1930  -44.8470  -57.4330 C.3   127  THR127      0.1862
     25  C          4.9750  -44.0120  -56.4260 C.2   127  THR127      0.2287
     26  O          6.1010  -43.5840  -56.6850 O.2   127  THR127     -0.2866
     27  CB         3.1590  -43.9540  -58.1270 C.3   127  THR127      0.1770
     28  OG1        2.4470  -44.7270  -59.1020 O.3   127  THR127     -0.2211
     29  CG2        3.8390  -42.7710  -58.8030 C.3   127  THR127      0.0375
     30  N          8.2820  -45.9160  -55.5630 N.3   130  GLN130     -0.1231
     31  CA         9.2640  -45.7950  -56.6420 C.3   130  GLN130      0.1698
     32  C          9.9410  -44.4270  -56.6670 C.2   130  GLN130      0.2592
     33  O         11.1560  -44.3340  -56.8230 O.2   130  GLN130     -0.2718
     34  CB         8.6070  -46.0560  -58.0000 C.3   130  GLN130      0.0381
     35  CG         7.9210  -47.4080  -58.1310 C.3   130  GLN130      0.0905
     36  CD         7.3620  -47.6410  -59.5270 C.2   130  GLN130      0.2608
     37  OE1        7.6700  -46.9030  -60.4630 O.2   130  GLN130     -0.2717
     38  NE2        6.5360  -48.6720  -59.6710 N.am  130  GLN130     -0.0878
     39  N          9.1520  -43.3660  -56.5220 N.am  131  LEU131     -0.1980
     40  CA         9.6960  -42.0090  -56.5560 C.3   131  LEU131      0.1596
     41  C         10.5870  -41.7430  -55.3420 C.2   131  LEU131      0.2287
     42  O         11.6160  -41.0770  -55.4480 O.2   131  LEU131     -0.2864
     43  CB         8.5670  -40.9730  -56.6320 C.3   131  LEU131      0.0297
     44  CG         7.7540  -40.9060  -57.9300 C.3   131  LEU131      0.0022
     45  CD1        6.6160  -39.8950  -57.8300 C.3   131  LEU131      0.0001
     46  CD2        8.6500  -40.5430  -59.0810 C.3   131  LEU131      0.0001
     47  N         14.0810  -43.4190  -55.8140 N.3   134  LYS134     -0.1245
     48  CA        14.9810  -42.7370  -56.7450 C.3   134  LYS134      0.1561
     49  C         15.2020  -41.2630  -56.3930 C.2   134  LYS134      0.2260
     50  O         15.8860  -40.5390  -57.1180 O.2   134  LYS134     -0.2867
     51  CB        14.4970  -42.8850  -58.1920 C.3   134  LYS134      0.0271
     52  CG        13.1770  -42.2050  -58.5010 C.3   134  LYS134      0.0035
     53  CD        12.9050  -42.2230  -60.0090 C.3   134  LYS134      0.0206
     54  CE        12.9720  -43.6350  -60.5680 C.3   134  LYS134      0.1093
     55  NZ        13.1100  -43.6580  -62.0510 N.3   134  LYS134     -0.1314
     56  N         13.0590  -38.7290  -56.3270 N.3   136  SER136     -0.1202
     57  CA        12.4400  -37.8410  -57.3020 C.3   136  SER136      0.2020
     58  C         11.0240  -37.4170  -56.9130 C.2   136  SER136      0.2619
     59  O         10.2340  -38.2280  -56.4290 O.2   136  SER136     -0.2717
     60  CB        12.4190  -38.5140  -58.6750 C.3   136  SER136      0.2103
     61  OG        11.6410  -37.7710  -59.5940 O.3   136  SER136     -0.2182
     62  N         10.7180  -36.1390  -57.1330 N.am  137  VAL137     -0.1965
     63  CA         9.3640  -35.6090  -56.9780 C.3   137  VAL137      0.1727
     64  C          8.5200  -35.9680  -58.2020 C.2   137  VAL137      0.2617
     65  O          7.4000  -36.4770  -58.0830 O.2   137  VAL137     -0.2715
     66  CB         9.3830  -34.0710  -56.8210 C.3   137  VAL137      0.0290
     67  CG1        7.9820  -33.5010  -56.9360 C.3   137  VAL137      0.0023
     68  CG2       10.0150  -33.6750  -55.4970 C.3   137  VAL137      0.0023
     69  N          9.0700  -35.7000  -59.3830 N.am  138  GLY138     -0.1940
     70  CA         8.3870  -36.0060  -60.6250 C.3   138  GLY138      0.2014
     71  C          7.1080  -35.2080  -60.7750 C.2   138  GLY138      0.2639
     72  O          7.0450  -34.0430  -60.3880 O.2   138  GLY138     -0.2714
     73  N          6.0840  -35.8450  -61.3330 N.am  139  ALA139     -0.1963
     74  CA         4.7900  -35.2000  -61.5320 C.3   139  ALA139      0.1728
     75  C          3.8750  -35.3440  -60.3110 C.2   139  ALA139      0.2617
     76  O          2.6590  -35.1680  -60.4190 O.2   139  ALA139     -0.2715
     77  CB         4.1110  -35.7590  -62.7770 C.3   139  ALA139      0.0334
     78  N          4.4580  -35.6630  -59.1560 N.am  140  SER140     -0.1936
     79  CA         3.6790  -35.8300  -57.9300 C.3   140  SER140      0.2055
     80  C          3.3550  -34.4800  -57.3040 C.2   140  SER140      0.2643
     81  O          4.0080  -33.4800  -57.5930 O.2   140  SER140     -0.2714
     82  CB         4.4280  -36.7030  -56.9230 C.3   140  SER140      0.2130
     83  OG         5.4860  -35.9970  -56.3020 O.3   140  SER140     -0.2179
     84  N          2.3620  -34.4570  -56.4210 N.am  141  HIS141     -0.1973
     85  CA         1.8590  -33.1970  -55.8870 C.3   141  HIS141      0.1656
     86  C          1.1780  -33.4030  -54.5310 C.2   141  HIS141      0.2291
     87  O          0.5430  -34.4290  -54.3060 O.2   141  HIS141     -0.2864
     88  CB         0.8760  -32.6000  -56.9060 C.3   141  HIS141      0.0771
     89  CG         0.3890  -31.2240  -56.5600 C.ar  141  HIS141      0.0820
     90  ND1        1.2150  -30.2520  -56.0550 N.ar  141  HIS141     -0.2267
     91  CD2       -0.8400  -30.6670  -56.6660 C.ar  141  HIS141      0.1154
     92  CE1        0.5160  -29.1460  -55.8490 C.ar  141  HIS141      0.1986
     93  NE2       -0.7340  -29.3740  -56.2140 N.ar  141  HIS141     -0.2212
     94  N         -1.1120  -25.5960  -57.2290 N.3   160  LEU160     -0.1245
     95  CA        -1.0420  -25.5730  -58.6870 C.3   160  LEU160      0.1561
     96  C         -2.4170  -25.3190  -59.3110 C.2   160  LEU160      0.2260
     97  O         -2.6080  -25.5350  -60.5070 O.2   160  LEU160     -0.2867
     98  CB        -0.4590  -26.8840  -59.2220 C.3   160  LEU160      0.0270
     99  CG         1.0110  -27.1550  -58.9110 C.3   160  LEU160      0.0019
    100  CD1        1.3940  -28.5800  -59.2780 C.3   160  LEU160      0.0001
    101  CD2        1.8850  -26.1650  -59.6570 C.3   160  LEU160      0.0001
    102  N         -4.3890  -28.8390  -60.8650 N.3   163  TYR163     -0.1241
    103  CA        -3.5360  -29.9700  -61.2320 C.3   163  TYR163      0.1605
    104  C         -4.3070  -31.2890  -61.3150 C.2   163  TYR163      0.2264
    105  O         -4.0340  -32.1210  -62.1760 O.2   163  TYR163     -0.2867
    106  CB        -2.3640  -30.0860  -60.2460 C.3   163  TYR163      0.0534
    107  CG        -1.2480  -30.9940  -60.7060 C.ar  163  TYR163     -0.0201
    108  CD1       -0.4890  -30.6770  -61.8270 C.ar  163  TYR163     -0.0009
    109  CD2       -0.9390  -32.1580  -60.0110 C.ar  163  TYR163     -0.0009
    110  CE1        0.5350  -31.5030  -62.2530 C.ar  163  TYR163      0.0417
    111  CE2        0.0900  -32.9910  -60.4280 C.ar  163  TYR163      0.0417
    112  CZ         0.8230  -32.6550  -61.5500 C.ar  163  TYR163      0.1957
    113  OH         1.8420  -33.4710  -61.9800 O.3   163  TYR163     -0.2866
    114  N          2.2100  -21.6340  -56.5890 N.3   204  GLN204     -0.1245
    115  CA         3.6410  -21.9380  -56.5930 C.3   204  GLN204      0.1566
    116  C          4.2980  -21.8080  -57.9690 C.2   204  GLN204      0.2260
    117  O          5.1170  -22.6450  -58.3600 O.2   204  GLN204     -0.2867
    118  CB         3.9030  -23.3340  -56.0220 C.3   204  GLN204      0.0367
    119  CG         3.3590  -24.4770  -56.8530 C.3   204  GLN204      0.0905
    120  CD         3.7330  -25.8270  -56.2810 C.2   204  GLN204      0.2608
    121  OE1        3.2400  -26.2120  -55.2260 O.2   204  GLN204     -0.2717
    122  NE2        4.6150  -26.5490  -56.9700 N.am  204  GLN204     -0.0878
    123  N          7.9880  -23.2860  -59.4020 N.3   207  SER207     -0.1202
    124  CA         8.5140  -24.3620  -58.5540 C.3   207  SER207      0.2020
    125  C          7.8910  -25.7170  -58.8550 C.2   207  SER207      0.2619
    126  O          6.6950  -25.8150  -59.1220 O.2   207  SER207     -0.2717
    127  CB         8.3010  -24.0430  -57.0720 C.3   207  SER207      0.2103
    128  OG         8.8320  -25.0710  -56.2480 O.3   207  SER207     -0.2182
    129  N          8.7080  -26.7620  -58.8000 N.am  208  GLY208     -0.1942
    130  CA         8.2070  -28.1170  -58.9320 C.3   208  GLY208      0.2014
    131  C          8.3530  -28.8980  -57.6370 C.2   208  GLY208      0.2639
    132  O          8.2190  -30.1200  -57.6320 O.2   208  GLY208     -0.2714
    133  N          8.6090  -28.1900  -56.5370 N.am  209  SER209     -0.1949
    134  CA         8.9730  -28.8370  -55.2800 C.3   209  SER209      0.1924
    135  C          8.3850  -28.1930  -54.0200 C.2   209  SER209      0.2314
    136  O          8.4750  -28.7600  -52.9310 O.2   209  SER209     -0.2863
    137  CB        10.5000  -28.9030  -55.1540 C.3   209  SER209      0.2116
    138  OG        11.0770  -29.5500  -56.2800 O.3   209  SER209     -0.2180
    139  N          5.2450  -27.5740  -53.0680 N.3   211  CYS211     -0.1235
    140  CA         3.8450  -27.8580  -52.7150 C.3   211  CYS211      0.1677
    141  C          3.6020  -28.1900  -51.2400 C.2   211  CYS211      0.2270
    142  O          2.6740  -27.6570  -50.6270 O.2   211  CYS211     -0.2867
    143  CB         3.2590  -28.9510  -53.6180 C.3   211  CYS211      0.0956
    144  SG         4.1560  -30.5320  -53.6070 S.3   211  CYS211     -0.0801
@<TRIPOS>BOND
     1    21    20    1
     2    22    20    1
     3    20    17    1
     4    17    16    1
     5    17    18    1
     6    19    18    2
     7    77    74    1
     8   110   108   ar
     9   110   112   ar
    10    14    15   ar
    11    14    12   ar
    12   105   104    2
    13    55    54    1
    14   113   112    1
    15   108   107   ar
    16   112   111   ar
    17    15    13   ar
    18    74    73    1
    19    74    75    1
    20    12    11   ar
    21    73    71   am
    22   104   103    1
    23   103   102    1
    24   103   106    1
    25    71    70    1
    26    71    72    2
    27   107   106    1
    28   107   109   ar
    29    70    69    1
    30    54    53    1
    31    97    96    2
    32    37    36    2
    33   111   109   ar
    34    76    75    2
    35     8     9    2
    36     8     7    1
    37    75    78   am
    38    13    11   ar
    39    11    10    1
    40    53    52    1
    41    38    36   am
    42   101    99    1
    43    61    60    1
    44    36    35    1
    45   123   124    1
    46    69    64   am
    47    96    95    1
    48   100    99    1
    49    98    99    1
    50    98    95    1
    51     7    10    1
    52     7     6    1
    53    78    79    1
    54   126   125    2
    55    28    27    1
    56    46    44    1
    57   130   129    1
    58   130   131    1
    59   125   129   am
    60   125   124    1
    61    29    27    1
    62    95    94    1
    63    60    57    1
    64   124   127    1
    65    52    51    1
    66   117   116    2
    67    64    65    2
    68    64    63    1
    69    51    48    1
    70    35    34    1
    71    27    24    1
    72    34    31    1
    73   116   115    1
    74    44    45    1
    75    44    43    1
    76    79    80    1
    77    79    82    1
    78   131   132    2
    79   131   133   am
    80    81    80    2
    81    24    23    1
    82    24    25    1
    83    80    84   am
    84    57    58    1
    85    57    56    1
    86    62    63    1
    87    62    58   am
    88    50    49    2
    89   127   128    1
    90    63    66    1
    91   122   120   am
    92    67    66    1
    93    82    83    1
    94    58    59    2
    95    88    89    1
    96    88    85    1
    97   119   120    1
    98   119   118    1
    99    33    32    2
   100    66    68    1
   101    48    49    1
   102    48    47    1
   103    26    25    2
   104    32    31    1
   105    32    39   am
   106    91    89   ar
   107    91    93   ar
   108    31    30    1
   109    43    40    1
   110   115   114    1
   111   115   118    1
   112    89    90   ar
   113    40    39    1
   114    40    41    1
   115   133   134    1
   116    84    85    1
   117   120   121    2
   118   138   137    1
   119    93    92   ar
   120    90    92   ar
   121    85    86    1
   122    42    41    2
   123   134   137    1
   124   134   135    1
   125    86    87    2
   126   135   136    2
   127   143   144    1
   128   143   140    1
   129   139   140    1
   130   140   141    1
   131     5     2    1
   132     1     2    1
   133   141   142    2
   134     2     3    1
   135     3     4    2
