@<TRIPOS>MOLECULE
tmp/6gzyA00.pdb
 103 99 0 0 0
SMALL
GASTEIGER

@<TRIPOS>ATOM
      1  N        141.9630  123.4900   48.2550 N.3    12  ILE12      -0.1245
      2  CA       140.8410  122.5970   48.0020 C.3    12  ILE12       0.1561
      3  C        140.5950  121.7820   49.2620 C.2    12  ILE12       0.2260
      4  O        141.5120  121.1260   49.7700 O.2    12  ILE12      -0.2867
      5  CB       141.1080  121.6830   46.7930 C.3    12  ILE12       0.0252
      6  CG1      141.2870  122.5400   45.5340 C.3    12  ILE12       0.0019
      7  CG2      139.9820  120.6720   46.6190 C.3    12  ILE12       0.0019
      8  CD1      141.6640  121.7610   44.2920 C.3    12  ILE12       0.0001
      9  N        143.9250  120.5690   50.8000 N.3    21  TYR21      -0.1241
     10  CA       145.0180  120.5470   49.8400 C.3    21  TYR21       0.1605
     11  C        145.3270  121.9750   49.4100 C.2    21  TYR21       0.2264
     12  O        144.4140  122.7580   49.1260 O.2    21  TYR21      -0.2867
     13  CB       144.6690  119.7090   48.6080 C.3    21  TYR21       0.0534
     14  CG       144.2220  118.2940   48.9030 C.ar   21  TYR21      -0.0201
     15  CD1      142.8860  118.0090   49.1560 C.ar   21  TYR21      -0.0009
     16  CD2      145.1290  117.2420   48.9130 C.ar   21  TYR21      -0.0009
     17  CE1      142.4650  116.7150   49.4160 C.ar   21  TYR21       0.0417
     18  CE2      144.7180  115.9440   49.1740 C.ar   21  TYR21       0.0417
     19  CZ       143.3840  115.6870   49.4250 C.ar   21  TYR21       0.1957
     20  OH       142.9670  114.4000   49.6850 O.3    21  TYR21      -0.2866
     21  N        146.3730  123.5530   46.6460 N.3    23  LEU23      -0.1231
     22  CA       146.5280  123.3640   45.2150 C.3    23  LEU23       0.1693
     23  C        145.5860  124.2900   44.4660 C.2    23  LEU23       0.2592
     24  O        144.4930  124.6110   44.9390 O.2    23  LEU23      -0.2718
     25  CB       146.2490  121.9080   44.8110 C.3    23  LEU23       0.0284
     26  CG       147.2850  120.8780   45.2600 C.3    23  LEU23       0.0019
     27  CD1      146.7220  119.4710   45.1710 C.3    23  LEU23       0.0001
     28  CD2      148.5530  120.9960   44.4170 C.3    23  LEU23       0.0001
     29  N        146.0300  124.7180   43.2920 N.am   24  ALA24      -0.1966
     30  CA       145.1940  125.4540   42.3600 C.3    24  ALA24       0.1728
     31  C        144.4160  124.4840   41.4770 C.2    24  ALA24       0.2616
     32  O        144.8170  123.3360   41.2670 O.2    24  ALA24      -0.2715
     33  CB       146.0400  126.3850   41.4920 C.3    24  ALA24       0.0334
     34  N        143.2880  124.9640   40.9570 N.am   25  ARG25      -0.1977
     35  CA       142.4240  124.1430   40.1220 C.3    25  ARG25       0.1597
     36  C        142.7720  124.2400   38.6450 C.2    25  ARG25       0.2287
     37  O        142.5740  123.2690   37.9060 O.2    25  ARG25      -0.2864
     38  CB       140.9610  124.5540   40.3140 C.3    25  ARG25       0.0334
     39  CG       140.4830  124.4940   41.7550 C.3    25  ARG25       0.0492
     40  CD       139.5760  125.6630   42.0880 C.3    25  ARG25       0.2205
     41  NE       138.8160  125.4360   43.3130 N.pl3  25  ARG25      -0.0865
     42  CZ       139.2820  125.6610   44.5380 C.cat  25  ARG25       0.5346
     43  NH1      138.5120  125.4240   45.5910 N.pl3  25  ARG25       0.1354
     44  NH2      140.5170  126.1130   44.7140 N.pl3  25  ARG25       0.1354
     45  N        141.2180  122.0180   35.6700 N.3    28  CYS28      -0.1235
     46  CA       140.9190  120.6390   36.0390 C.3    28  CYS28       0.1677
     47  C        139.8700  120.6440   37.1450 C.2    28  CYS28       0.2270
     48  O        140.1470  121.0640   38.2740 O.2    28  CYS28      -0.2867
     49  CB       142.1850  119.9200   36.4930 C.3    28  CYS28       0.0956
     50  SG       141.9380  118.1670   36.8300 S.3    28  CYS28      -0.0801
     51  N        137.9050  117.7930   38.0320 N.3    30  HIS30      -0.1226
     52  CA       137.7310  116.4940   38.6720 C.3    30  HIS30       0.1752
     53  C        138.7920  116.3250   39.7490 C.2    30  HIS30       0.2596
     54  O        139.9790  116.1830   39.4420 O.2    30  HIS30      -0.2718
     55  CB       137.8230  115.3700   37.6460 C.3    30  HIS30       0.0759
     56  CG       137.7450  114.0030   38.2480 C.ar   30  HIS30       0.0818
     57  ND1      138.7260  113.0520   38.0700 N.ar   30  HIS30      -0.2268
     58  CD2      136.8040  113.4310   39.0350 C.ar   30  HIS30       0.1154
     59  CE1      138.3900  111.9500   38.7170 C.ar   30  HIS30       0.1986
     60  NE2      137.2280  112.1540   39.3110 N.ar   30  HIS30      -0.2212
     61  N        138.3680  116.3270   41.0070 N.am   31  PHE31      -0.1962
     62  CA       139.2750  116.1480   42.1290 C.3    31  PHE31       0.1771
     63  C        138.9370  114.8570   42.8580 C.2    31  PHE31       0.2619
     64  O        137.7620  114.5450   43.0760 O.2    31  PHE31      -0.2715
     65  CB       139.2060  117.3260   43.1000 C.3    31  PHE31       0.0574
     66  CG       140.3800  117.4030   44.0330 C.ar   31  PHE31      -0.0200
     67  CD1      140.3810  116.7100   45.2320 C.ar   31  PHE31      -0.0042
     68  CD2      141.4920  118.1550   43.6990 C.ar   31  PHE31      -0.0042
     69  CE1      141.4650  116.7780   46.0850 C.ar   31  PHE31      -0.0003
     70  CE2      142.5780  118.2270   44.5480 C.ar   31  PHE31      -0.0003
     71  CZ       142.5660  117.5350   45.7410 C.ar   31  PHE31      -0.0000
     72  N        139.9730  114.1090   43.2250 N.am   32  HIS32      -0.1973
     73  CA       139.8280  112.8340   43.9190 C.3    32  HIS32       0.1656
     74  C        140.6310  112.8990   45.2120 C.2    32  HIS32       0.2291
     75  O        141.8540  113.0670   45.1750 O.2    32  HIS32      -0.2864
     76  CB       140.3000  111.6760   43.0380 C.3    32  HIS32       0.0771
     77  CG       140.2830  110.3480   43.7280 C.ar   32  HIS32       0.0820
     78  ND1      141.2640  109.9550   44.6130 N.ar   32  HIS32      -0.2267
     79  CD2      139.4000  109.3240   43.6650 C.ar   32  HIS32       0.1154
     80  CE1      140.9880  108.7440   45.0630 C.ar   32  HIS32       0.1986
     81  NE2      139.8610  108.3390   44.5040 N.ar   32  HIS32      -0.2212
     82  N        142.6840  111.7920   48.2400 N.3    34  THR34      -0.1218
     83  CA       143.5110  110.6600   48.6360 C.3    34  THR34       0.1862
     84  C        142.9890  110.0060   49.9070 C.2    34  THR34       0.2287
     85  O        143.0100  108.7760   50.0390 O.2    34  THR34      -0.2866
     86  CB       144.9520  111.1220   48.8570 C.3    34  THR34       0.1770
     87  OG1      145.4530  111.7310   47.6630 O.3    34  THR34      -0.2211
     88  CG2      145.8400  109.9490   49.2450 C.3    34  THR34       0.0375
     89  N        136.0860  120.4960   42.0380 N.3    42  SER42      -0.1217
     90  CA       136.8800  121.4520   42.7960 C.3    42  SER42       0.1889
     91  C        136.3540  122.8790   42.6940 C.2    42  SER42       0.2288
     92  O        136.8700  123.7570   43.3930 O.2    42  SER42      -0.2866
     93  CB       138.3320  121.4080   42.3190 C.3    42  SER42       0.2089
     94  OG       138.4280  121.7810   40.9540 O.3    42  SER42      -0.2183
     95  N        151.1100  118.9920   40.8870 N.3   108  GLN108     -0.1245
     96  CA       151.7060  117.6720   41.0610 C.3   108  GLN108      0.1566
     97  C        151.9520  117.0090   39.7100 C.2   108  GLN108      0.2260
     98  O        151.6550  117.5840   38.6640 O.2   108  GLN108     -0.2867
     99  CB       150.7940  116.7620   41.8880 C.3   108  GLN108      0.0367
    100  CG       150.6410  117.1200   43.3530 C.3   108  GLN108      0.0905
    101  CD       149.7560  116.1240   44.0800 C.2   108  GLN108      0.2608
    102  OE1      149.0570  115.3290   43.4500 O.2   108  GLN108     -0.2717
    103  NE2      149.7870  116.1550   45.4060 N.am  108  GLN108     -0.0878
@<TRIPOS>BOND
     1    45    46    1
     2    46    49    1
     3    46    47    1
     4    49    50    1
     5    47    48    2
     6    55    56    1
     7    55    52    1
     8    37    36    2
     9    51    52    1
    10    57    56   ar
    11    57    59   ar
    12    56    58   ar
    13    36    35    1
    14    98    97    2
    15    52    53    1
    16    59    60   ar
    17    58    60   ar
    18    54    53    2
    19    97    96    1
    20    53    61   am
    21    35    38    1
    22    35    34    1
    23    38    39    1
    24    95    96    1
    25    94    93    1
    26    34    31   am
    27    61    62    1
    28    96    99    1
    29    32    31    2
    30    31    30    1
    31    33    30    1
    32    39    40    1
    33    99   100    1
    34    89    90    1
    35    40    41    1
    36    62    63    1
    37    62    65    1
    38    93    90    1
    39    30    29    1
    40    91    90    1
    41    91    92    2
    42    63    64    2
    43    63    72   am
    44    76    77    1
    45    76    73    1
    46    65    66    1
    47    72    73    1
    48    29    23   am
    49    41    42    2
    50   100   101    1
    51   102   101    2
    52    79    77   ar
    53    79    81   ar
    54    68    66   ar
    55    68    70   ar
    56    77    78   ar
    57    73    74    1
    58    66    67   ar
    59   101   103   am
    60     8     6    1
    61    28    26    1
    62    23    24    2
    63    23    22    1
    64    81    80   ar
    65    42    44    1
    66    42    43    1
    67    70    71   ar
    68    78    80   ar
    69    25    22    1
    70    25    26    1
    71    27    26    1
    72    75    74    2
    73    22    21    1
    74    67    69   ar
    75     6     5    1
    76    71    69   ar
    77     7     5    1
    78     5     2    1
    79    87    86    1
    80     2     1    1
    81     2     3    1
    82    82    83    1
    83    13    14    1
    84    13    10    1
    85    83    86    1
    86    83    84    1
    87    86    88    1
    88    14    16   ar
    89    14    15   ar
    90    16    18   ar
    91    12    11    2
    92    15    17   ar
    93    18    19   ar
    94     3     4    2
    95    11    10    1
    96    17    19   ar
    97    19    20    1
    98    10     9    1
    99    84    85    2
