@<TRIPOS>MOLECULE
tmp/6h04X00.pdb
 80 76 0 0 0
SMALL
GASTEIGER

@<TRIPOS>ATOM
      1  N        207.0880  280.6130  217.4040 N.3   204  ASN204     -0.1225
      2  CA       207.6290  279.4900  218.1590 C.3   204  ASN204      0.1785
      3  C        208.9740  279.0910  217.5750 C.2   204  ASN204      0.2597
      4  O        209.1010  278.9290  216.3580 O.2   204  ASN204     -0.2718
      5  CB       206.6690  278.2940  218.1410 C.3   204  ASN204      0.1169
      6  CG       205.3590  278.5880  218.8470 C.2   204  ASN204      0.2627
      7  OD1      204.2970  278.6060  218.2260 O.2   204  ASN204     -0.2716
      8  ND2      205.4300  278.8210  220.1520 N.am  204  ASN204     -0.0877
      9  N        209.9690  278.9350  218.4440 N.am  205  VAL205     -0.1966
     10  CA       211.3150  278.5370  218.0510 C.3   205  VAL205      0.1727
     11  C        211.7110  277.3220  218.8770 C.2   205  VAL205      0.2616
     12  O        211.6570  277.3610  220.1110 O.2   205  VAL205     -0.2715
     13  CB       212.3320  279.6770  218.2430 C.3   205  VAL205      0.0290
     14  CG1      213.7410  279.1890  217.9440 C.3   205  VAL205      0.0023
     15  CG2      211.9750  280.8640  217.3610 C.3   205  VAL205      0.0023
     16  N        212.1090  276.2480  218.1990 N.am  206  GLY206     -0.1955
     17  CA       212.5090  275.0320  218.8780 C.3   206  GLY206      0.1869
     18  C        213.8030  274.4580  218.3410 C.2   206  GLY206      0.2309
     19  O        214.0530  274.4960  217.1320 O.2   206  GLY206     -0.2863
     20  N        215.5540  271.1720  217.9860 N.3   208  GLU208     -0.1245
     21  CA       215.4590  269.7180  218.0140 C.3   208  GLU208      0.1567
     22  C        216.3630  269.0940  216.9570 C.2   208  GLU208      0.2260
     23  O        215.9230  268.2290  216.1930 O.2   208  GLU208     -0.2867
     24  CB       214.0100  269.2720  217.8060 C.3   208  GLU208      0.0388
     25  CG       213.3500  269.3780  216.4670 C.3   208  GLU208      0.1160
     26  CD       212.9600  270.7550  216.0210 C.2   208  GLU208      0.3649
     27  OE1      213.1200  271.7080  216.8330 O.co2 208  GLU208     -0.2457
     28  OE2      212.5420  270.9350  214.8810 O.co2 208  GLU208     -0.2457
     29  N        218.3700  267.6750  210.3650 N.3   282  LYS282     -0.1231
     30  CA       217.2520  268.5580  210.7010 C.3   282  LYS282      0.1693
     31  C        217.6980  269.5490  211.7770 C.2   282  LYS282      0.2591
     32  O        217.3380  269.4610  212.9520 O.2   282  LYS282     -0.2718
     33  CB       216.0450  267.7420  211.1460 C.3   282  LYS282      0.0285
     34  CG       215.5950  266.7440  210.0470 C.3   282  LYS282      0.0035
     35  CD       214.8950  267.4670  208.9270 C.3   282  LYS282      0.0206
     36  CE       213.5850  266.8720  208.4690 C.3   282  LYS282      0.1093
     37  NZ       213.7280  265.5920  207.7370 N.3   282  LYS282     -0.1314
     38  N        218.5030  270.5150  211.3400 N.am  283  VAL283     -0.1980
     39  CA       219.0570  271.5340  212.2250 C.3   283  VAL283      0.1595
     40  C        217.9470  272.4700  212.6830 C.2   283  VAL283      0.2287
     41  O        216.8130  272.3910  212.1970 O.2   283  VAL283     -0.2864
     42  CB       220.1960  272.3140  211.5420 C.3   283  VAL283      0.0276
     43  CG1      220.9750  273.0280  212.6490 C.3   283  VAL283      0.0022
     44  CG2      221.1020  271.3030  210.8410 C.3   283  VAL283      0.0022
     45  N        215.1900  275.2050  213.5800 N.3   285  ASN285     -0.1225
     46  CA       214.2310  275.8550  212.6960 C.3   285  ASN285      0.1785
     47  C        213.4460  276.8790  213.5100 C.2   285  ASN285      0.2597
     48  O        213.7910  277.1900  214.6540 O.2   285  ASN285     -0.2718
     49  CB       213.3170  274.8160  212.0310 C.3   285  ASN285      0.1169
     50  CG       212.5500  273.9750  213.0410 C.2   285  ASN285      0.2627
     51  OD1      212.7340  274.1160  214.2510 O.2   285  ASN285     -0.2716
     52  ND2      211.6820  273.0980  212.5430 N.am  285  ASN285     -0.0877
     53  N        212.3770  277.4040  212.9150 N.am  286  PHE286     -0.1962
     54  CA       211.5200  278.3720  213.5840 C.3   286  PHE286      0.1771
     55  C        210.1840  278.4280  212.8600 C.2   286  PHE286      0.2620
     56  O        210.0840  278.0990  211.6750 O.2   286  PHE286     -0.2715
     57  CB       212.1680  279.7600  213.6350 C.3   286  PHE286      0.0574
     58  CG       213.6270  279.7650  214.1800 C.ar  286  PHE286     -0.0200
     59  CD1      214.6700  279.5040  213.3010 C.ar  286  PHE286     -0.0042
     60  CD2      213.8870  280.0010  215.5140 C.ar  286  PHE286     -0.0042
     61  CE1      215.9900  279.4900  213.7310 C.ar  286  PHE286     -0.0003
     62  CE2      215.2280  279.9860  215.9620 C.ar  286  PHE286     -0.0003
     63  CZ       216.2800  279.7360  215.0480 C.ar  286  PHE286     -0.0000
     64  N        209.1570  278.8510  213.5920 N.am  287  THR287     -0.1951
     65  CA       207.7960  278.9420  213.0760 C.3   287  THR287      0.1897
     66  C        207.4020  280.4090  212.9660 C.2   287  THR287      0.2313
     67  O        207.4230  281.1370  213.9640 O.2   287  THR287     -0.2863
     68  CB       206.8150  278.1900  213.9760 C.3   287  THR287      0.1794
     69  OG1      207.1900  276.8090  214.0450 O.3   287  THR287     -0.2208
     70  CG2      205.3990  278.2990  213.4280 C.3   287  THR287      0.0378
     71  N        208.6660  275.3400  208.7370 N.3   330  GLY330     -0.1210
     72  CA       209.5320  274.4480  207.9920 C.3   330  GLY330      0.1956
     73  C        210.7680  274.0920  208.7810 C.2   330  GLY330      0.2612
     74  O        210.7640  274.1070  210.0130 O.2   330  GLY330     -0.2717
     75  N        211.8330  273.7670  208.0500 N.am  331  SER331     -0.1952
     76  CA       213.0870  273.3470  208.6560 C.3   331  SER331      0.1924
     77  C        214.2500  273.9590  207.8890 C.2   331  SER331      0.2314
     78  O        214.1180  274.3640  206.7320 O.2   331  SER331     -0.2863
     79  CB       213.2160  271.8180  208.6790 C.3   331  SER331      0.2116
     80  OG       212.1710  271.2320  209.4350 O.3   331  SER331     -0.2180
@<TRIPOS>BOND
     1    78    77    2
     2    37    36    1
     3    77    76    1
     4    72    71    1
     5    72    73    1
     6    75    76    1
     7    75    73   am
     8    36    35    1
     9    76    79    1
    10    79    80    1
    11    73    74    2
    12    35    34    1
    13    34    33    1
    14    29    30    1
    15    30    33    1
    16    30    31    1
    17    44    42    1
    18    38    31   am
    19    38    39    1
    20    42    39    1
    21    42    43    1
    22    56    55    2
    23    31    32    2
    24    49    46    1
    25    49    50    1
    26    41    40    2
    27    39    40    1
    28    52    50   am
    29    46    47    1
    30    46    45    1
    31    55    54    1
    32    55    64   am
    33    53    47   am
    34    53    54    1
    35    66    65    1
    36    66    67    2
    37    50    51    2
    38    65    64    1
    39    65    68    1
    40    59    61   ar
    41    59    58   ar
    42    70    68    1
    43    47    48    2
    44    54    57    1
    45    57    58    1
    46    61    63   ar
    47    68    69    1
    48    58    60   ar
    49    28    26   ar
    50    63    62   ar
    51    60    62   ar
    52    26    25    1
    53    26    27   ar
    54    23    22    2
    55     4     3    2
    56    25    24    1
    57    22    21    1
    58    19    18    2
    59    15    13    1
    60     1     2    1
    61     3     2    1
    62     3     9   am
    63    24    21    1
    64    14    13    1
    65    20    21    1
    66    10    13    1
    67    10     9    1
    68    10    11    1
    69     5     2    1
    70     5     6    1
    71    16    11   am
    72    16    17    1
    73     7     6    2
    74    18    17    1
    75     6     8   am
    76    11    12    2
