@<TRIPOS>MOLECULE
tmp/6h0bB00.pdb
 199 196 0 0 0
SMALL
GASTEIGER

@<TRIPOS>ATOM
      1  N         38.2150  -35.5730   20.3510 N.3    85  ALA85      -0.1231
      2  CA        38.4570  -36.7200   21.2330 C.3    85  ALA85       0.1694
      3  C         37.1740  -37.3330   21.5740 C.2    85  ALA85       0.2592
      4  O         36.1190  -36.6550   21.7540 O.2    85  ALA85      -0.2718
      5  CB        39.2140  -36.3400   22.4940 C.3    85  ALA85       0.0304
      6  N         37.1790  -38.6650   21.6350 N.am   86  PHE86      -0.1962
      7  CA        36.0080  -39.3820   22.0900 C.3    86  PHE86       0.1771
      8  C         36.3310  -40.5880   22.9790 C.2    86  PHE86       0.2619
      9  O         37.3680  -41.2860   22.8000 O.2    86  PHE86      -0.2715
     10  CB        35.0880  -39.7940   20.9340 C.3    86  PHE86       0.0574
     11  CG        35.6550  -40.8550   20.0240 C.ar   86  PHE86      -0.0200
     12  CD1       35.4570  -42.1910   20.3050 C.ar   86  PHE86      -0.0042
     13  CD2       36.3420  -40.5230   18.8930 C.ar   86  PHE86      -0.0042
     14  CE1       35.9320  -43.1860   19.4610 C.ar   86  PHE86      -0.0003
     15  CE2       36.8340  -41.5090   18.0480 C.ar   86  PHE86      -0.0003
     16  CZ        36.6290  -42.8460   18.3320 C.ar   86  PHE86      -0.0000
     17  N         35.4020  -40.8550   23.8950 N.am   87  TYR87      -0.1974
     18  CA        35.4720  -41.9920   24.7760 C.3    87  TYR87       0.1639
     19  C         34.1010  -42.5780   24.9280 C.2    87  TYR87       0.2290
     20  O         33.2630  -41.9870   25.6070 O.2    87  TYR87      -0.2864
     21  CB        36.0210  -41.6080   26.1450 C.3    87  TYR87       0.0560
     22  CG        35.9050  -42.7320   27.1180 C.ar   87  TYR87      -0.0198
     23  CD1       36.5510  -43.9490   26.8570 C.ar   87  TYR87      -0.0009
     24  CD2       35.1460  -42.6090   28.3090 C.ar   87  TYR87      -0.0009
     25  CE1       36.4430  -45.0200   27.7340 C.ar   87  TYR87       0.0417
     26  CE2       35.0160  -43.6830   29.1910 C.ar   87  TYR87       0.0417
     27  CZ        35.6680  -44.8800   28.9010 C.ar   87  TYR87       0.1957
     28  OH        35.5610  -45.9450   29.7450 O.3    87  TYR87      -0.2866
     29  N         31.5380  -42.8450   23.0170 N.3    89  GLU89      -0.1245
     30  CA        30.3650  -42.1680   22.4240 C.3    89  GLU89       0.1567
     31  C         29.4590  -43.1390   21.6750 C.2    89  GLU89       0.2260
     32  O         29.9180  -44.0680   21.0100 O.2    89  GLU89      -0.2867
     33  CB        30.8080  -41.0400   21.4910 C.3    89  GLU89       0.0388
     34  CG        29.6870  -40.0750   21.0890 C.3    89  GLU89       0.1160
     35  CD        29.0550  -39.3290   22.2660 C.2    89  GLU89       0.3649
     36  OE1       29.7260  -39.1630   23.2960 O.co2  89  GLU89      -0.2457
     37  OE2       27.9010  -38.8260   22.1590 O.co2  89  GLU89      -0.2457
     38  N         40.0130  -42.4660   22.6510 N.3   118  ASP118     -0.1239
     39  CA        40.6450  -42.5420   23.9400 C.3   118  ASP118      0.1674
     40  C         40.3280  -43.8520   24.6690 C.2   118  ASP118      0.2266
     41  O         39.6540  -43.8850   25.6880 O.2   118  ASP118     -0.2867
     42  CB        40.2750  -41.3600   24.8080 C.3   118  ASP118      0.1410
     43  CG        41.1440  -41.2650   26.0160 C.2   118  ASP118      0.3668
     44  OD1       42.2150  -41.9330   26.0210 O.co2 118  ASP118     -0.2456
     45  OD2       40.7840  -40.5480   26.9740 O.co2 118  ASP118     -0.2456
     46  N         43.9720  -45.2370   28.5550 N.3   147  ARG147     -0.1245
     47  CA        42.9940  -44.2380   28.9020 C.3   147  ARG147      0.1563
     48  C         43.7050  -42.9180   29.2540 C.2   147  ARG147      0.2260
     49  O         44.3260  -42.8120   30.3090 O.2   147  ARG147     -0.2867
     50  CB        42.2600  -44.7960   30.0660 C.3   147  ARG147      0.0307
     51  CG        40.9880  -44.1360   30.3400 C.3   147  ARG147      0.0489
     52  CD        39.8170  -44.7640   29.5950 C.3   147  ARG147      0.2205
     53  NE        38.7530  -43.9250   30.0850 N.pl3 147  ARG147     -0.0865
     54  CZ        38.5610  -42.6810   29.6770 C.cat 147  ARG147      0.5346
     55  NH1       39.2650  -42.1990   28.6570 N.pl3 147  ARG147      0.1354
     56  NH2       37.6080  -41.9490   30.2460 N.pl3 147  ARG147      0.1354
     57  N         42.4450  -39.5330   29.0940 N.3   149  GLY149     -0.1210
     58  CA        41.6910  -38.3920   29.5470 C.3   149  GLY149      0.1956
     59  C         41.5830  -37.3350   28.4440 C.2   149  GLY149      0.2611
     60  O         42.3930  -37.2960   27.5100 O.2   149  GLY149     -0.2717
     61  N         40.5910  -36.4500   28.5830 N.am  150  LEU150     -0.1979
     62  CA        40.2470  -35.5080   27.5110 C.3   150  LEU150      0.1596
     63  C         41.3710  -34.6100   27.1610 C.2   150  LEU150      0.2287
     64  O         41.6420  -34.4140   25.9730 O.2   150  LEU150     -0.2864
     65  CB        38.9630  -34.7610   27.8150 C.3   150  LEU150      0.0297
     66  CG        38.8810  -33.7650   28.9350 C.3   150  LEU150      0.0022
     67  CD1       39.3340  -32.3750   28.4700 C.3   150  LEU150      0.0001
     68  CD2       37.4330  -33.7130   29.4420 C.3   150  LEU150      0.0001
     69  N         44.2210  -36.6990   25.4140 N.3   153  ALA153     -0.1231
     70  CA        43.7060  -37.1470   24.1460 C.3   153  ALA153      0.1694
     71  C         43.6540  -35.9820   23.1720 C.2   153  ALA153      0.2591
     72  O         44.1010  -36.1040   22.0340 O.2   153  ALA153     -0.2718
     73  CB        42.3240  -37.7940   24.3090 C.3   153  ALA153      0.0304
     74  N         43.1750  -34.8100   23.6280 N.am  154  ARG154     -0.1980
     75  CA        43.2640  -33.5980   22.7690 C.3   154  ARG154      0.1597
     76  C         44.6620  -33.2360   22.3450 C.2   154  ARG154      0.2287
     77  O         44.9010  -32.9460   21.1660 O.2   154  ARG154     -0.2864
     78  CB        42.6170  -32.3790   23.4520 C.3   154  ARG154      0.0334
     79  CG        41.1150  -32.5270   23.4650 C.3   154  ARG154      0.0492
     80  CD        40.4160  -31.3060   24.0960 C.3   154  ARG154      0.2205
     81  NE        39.0400  -31.2360   23.6090 N.pl3 154  ARG154     -0.0865
     82  CZ        37.9150  -30.8440   24.2090 C.cat 154  ARG154      0.5346
     83  NH1       37.9300  -30.5000   25.4800 N.pl3 154  ARG154      0.1354
     84  NH2       36.7010  -30.8790   23.4760 N.pl3 154  ARG154      0.1354
     85  N         36.3620  -29.6640   19.0590 N.3   169  LEU169     -0.1231
     86  CA        34.9100  -29.9010   19.2960 C.3   169  LEU169      0.1693
     87  C         34.7060  -31.1420   20.1030 C.2   169  LEU169      0.2592
     88  O         35.5380  -32.0280   20.0590 O.2   169  LEU169     -0.2718
     89  CB        34.1750  -30.0050   17.9740 C.3   169  LEU169      0.0284
     90  CG        34.2090  -28.8310   16.9990 C.3   169  LEU169      0.0019
     91  CD1       33.4150  -29.1960   15.7380 C.3   169  LEU169      0.0001
     92  CD2       33.6080  -27.5520   17.5950 C.3   169  LEU169      0.0001
     93  N         33.5710  -31.3070   20.7410 N.am  170  ASP170     -0.1960
     94  CA        33.2950  -32.5620   21.3970 C.3   170  ASP170      0.1840
     95  C         32.6480  -33.5040   20.3790 C.2   170  ASP170      0.2622
     96  O         32.2540  -33.1310   19.2930 O.2   170  ASP170     -0.2715
     97  CB        32.3340  -32.3970   22.5590 C.3   170  ASP170      0.1450
     98  CG        32.8930  -31.8060   23.7800 C.2   170  ASP170      0.3671
     99  OD1       34.1160  -31.5200   23.9690 O.co2 170  ASP170     -0.2456
    100  OD2       31.9930  -31.6400   24.6280 O.co2 170  ASP170     -0.2456
    101  N         32.4890  -34.7620   20.7800 N.am  171  CYS171     -0.1954
    102  CA        31.9540  -35.7720   19.8940 C.3   171  CYS171      0.1843
    103  C         30.4440  -35.8980   19.8770 C.2   171  CYS171      0.2625
    104  O         29.9470  -36.8870   19.4200 O.2   171  CYS171     -0.2714
    105  CB        32.5740  -37.1240   20.2420 C.3   171  CYS171      0.0997
    106  SG        32.2780  -37.7440   21.8600 S.3   171  CYS171     -0.0797
    107  N         29.7060  -34.9440   20.4380 N.am  172  HIS172     -0.1973
    108  CA        28.2520  -34.9190   20.3020 C.3   172  HIS172      0.1656
    109  C         27.8020  -33.5070   20.0960 C.2   172  HIS172      0.2291
    110  O         27.1430  -32.9050   20.9570 O.2   172  HIS172     -0.2864
    111  CB        27.6180  -35.5290   21.5550 C.3   172  HIS172      0.0771
    112  CG        28.4460  -35.2140   22.7800 C.ar  172  HIS172      0.0820
    113  ND1       29.3460  -36.1070   23.3180 N.ar  172  HIS172     -0.2267
    114  CD2       28.6730  -34.0370   23.4250 C.ar  172  HIS172      0.1154
    115  CE1       30.0020  -35.5360   24.3130 C.ar  172  HIS172      0.1986
    116  NE2       29.6440  -34.2670   24.3650 N.ar  172  HIS172     -0.2212
    117  N         35.0310  -27.1870   25.7820 N.3   255  GLY255     -0.1225
    118  CA        34.9930  -28.2790   24.8450 C.3   255  GLY255      0.1811
    119  C         35.1390  -27.7410   23.4510 C.2   255  GLY255      0.2280
    120  O         35.5690  -28.4570   22.4890 O.2   255  GLY255     -0.2866
    121  N         41.7000  -37.3040   33.2240 N.3   276  VAL276     -0.1231
    122  CA        40.3700  -37.6020   32.6010 C.3   276  VAL276      0.1692
    123  C         39.4480  -36.3960   32.3310 C.2   276  VAL276      0.2592
    124  O         39.0870  -36.2290   31.1700 O.2   276  VAL276     -0.2718
    125  CB        39.6630  -38.8780   33.1120 C.3   276  VAL276      0.0266
    126  CG1       40.4230  -39.6150   34.1860 C.3   276  VAL276      0.0020
    127  CG2       38.1960  -38.7090   33.4540 C.3   276  VAL276      0.0020
    128  N         39.0860  -35.6000   33.3370 N.am  277  TRP277     -0.1976
    129  CA        38.1410  -34.4850   33.1090 C.3   277  TRP277      0.1640
    130  C         38.2000  -33.4830   34.2580 C.2   277  TRP277      0.2290
    131  O         38.4440  -33.8710   35.4010 O.2   277  TRP277     -0.2864
    132  CB        36.7190  -35.0510   32.9820 C.3   277  TRP277      0.0576
    133  CG        35.5870  -34.0770   32.8550 C.ar  277  TRP277      0.0006
    134  CD1       34.9510  -33.7160   31.7070 C.ar  277  TRP277      0.0946
    135  CD2       34.8870  -33.4020   33.9120 C.ar  277  TRP277      0.0152
    136  NE1       33.9370  -32.8420   31.9690 N.ar  277  TRP277     -0.2442
    137  CE2       33.8730  -32.6300   33.3130 C.ar  277  TRP277      0.0810
    138  CE3       35.0250  -33.3610   35.2980 C.ar  277  TRP277      0.0012
    139  CZ2       33.0100  -31.8260   34.0530 C.ar  277  TRP277      0.0191
    140  CZ3       34.1740  -32.5650   36.0270 C.ar  277  TRP277      0.0001
    141  CH2       33.1780  -31.8130   35.4130 C.ar  277  TRP277      0.0015
    142  N         25.6150  -28.6470   21.4880 N.3   305  HIS305     -0.1241
    143  CA        26.2630  -29.6590   22.2470 C.3   305  HIS305      0.1621
    144  C         25.2210  -30.4300   23.0610 C.2   305  HIS305      0.2264
    145  O         24.3660  -29.8370   23.7120 O.2   305  HIS305     -0.2867
    146  CB        27.2240  -28.9470   23.1520 C.3   305  HIS305      0.0745
    147  CG        27.8760  -29.8280   24.1420 C.ar  305  HIS305      0.0817
    148  ND1       27.3410  -30.1050   25.3850 N.ar  305  HIS305     -0.2268
    149  CD2       29.0190  -30.5460   24.0510 C.ar  305  HIS305      0.1154
    150  CE1       28.1320  -30.9480   26.0260 C.ar  305  HIS305      0.1986
    151  NE2       29.1660  -31.2060   25.2460 N.ar  305  HIS305     -0.2212
    152  N         24.3080  -31.7300   26.0670 N.3   307  PHE307     -0.1228
    153  CA        24.5700  -31.8240   27.4970 C.3   307  PHE307      0.1721
    154  C         23.8580  -33.0710   28.0070 C.2   307  PHE307      0.2437
    155  O         22.6640  -33.2910   27.7510 O.2   307  PHE307     -0.2733
    156  CB        24.1100  -30.5590   28.2540 C.3   307  PHE307      0.0547
    157  CG        24.9350  -29.3430   27.9320 C.ar  307  PHE307     -0.0202
    158  CD1       26.0930  -29.0670   28.6570 C.ar  307  PHE307     -0.0042
    159  CD2       24.5820  -28.4950   26.8550 C.ar  307  PHE307     -0.0042
    160  CE1       26.8790  -27.9670   28.3520 C.ar  307  PHE307     -0.0003
    161  CE2       25.3610  -27.3880   26.5680 C.ar  307  PHE307     -0.0003
    162  CZ        26.5150  -27.1250   27.3140 C.ar  307  PHE307     -0.0000
    163  N         24.6000  -33.9560   28.6780 N.am  308  PRO308     -0.2729
    164  CA        23.9310  -35.2310   29.0490 C.3   308  PRO308      0.1401
    165  C         23.0510  -35.0880   30.3000 C.2   308  PRO308      0.2269
    166  O         23.1110  -34.0680   31.0100 O.2   308  PRO308     -0.2865
    167  CB        25.1030  -36.1870   29.2930 C.3   308  PRO308      0.0296
    168  CG        26.2430  -35.2900   29.6360 C.3   308  PRO308      0.0237
    169  CD        26.0220  -33.9430   29.0330 C.3   308  PRO308      0.0939
    170  N         28.4900  -38.9250   32.0570 N.3   312  PRO312     -0.2102
    171  CA        28.3720  -40.2810   31.4200 C.3   312  PRO312      0.1504
    172  C         29.3580  -41.3430   31.9260 C.2   312  PRO312      0.2575
    173  O         29.1710  -42.5090   31.6470 O.2   312  PRO312     -0.2718
    174  CB        28.6270  -40.0140   29.9100 C.3   312  PRO312      0.0282
    175  CG        28.4270  -38.5380   29.7440 C.3   312  PRO312      0.0208
    176  CD        28.8820  -37.9100   31.0500 C.3   312  PRO312      0.0893
    177  N         30.4230  -40.9190   32.6020 N.am  313  TYR313     -0.1977
    178  CA        31.5180  -41.7990   33.0410 C.3   313  TYR313      0.1639
    179  C         32.0220  -41.1420   34.3180 C.2   313  TYR313      0.2290
    180  O         31.6350  -39.9830   34.6170 O.2   313  TYR313     -0.2864
    181  CB        32.6370  -41.9270   31.9570 C.3   313  TYR313      0.0560
    182  CG        33.1250  -40.5760   31.4380 C.ar  313  TYR313     -0.0198
    183  CD1       34.0570  -39.8470   32.1520 C.ar  313  TYR313     -0.0009
    184  CD2       32.6110  -40.0070   30.2660 C.ar  313  TYR313     -0.0009
    185  CE1       34.4910  -38.5940   31.7170 C.ar  313  TYR313      0.0417
    186  CE2       33.0520  -38.7300   29.8070 C.ar  313  TYR313      0.0417
    187  CZ        33.9860  -38.0240   30.5350 C.ar  313  TYR313      0.1957
    188  OH        34.4660  -36.7350   30.1790 O.3   313  TYR313     -0.2866
    189  N         34.1680  -39.1570   36.9210 N.3   315  ARG315     -0.1245
    190  CA        35.0820  -37.9970   36.8210 C.3   315  ARG315      0.1563
    191  C         35.7650  -37.6480   38.1670 C.2   315  ARG315      0.2260
    192  O         35.5780  -36.5450   38.7250 O.2   315  ARG315     -0.2867
    193  CB        34.2870  -36.8040   36.2950 C.3   315  ARG315      0.0307
    194  CG        33.7880  -36.9380   34.8460 C.3   315  ARG315      0.0489
    195  CD        32.6330  -35.9880   34.4930 C.3   315  ARG315      0.2205
    196  NE        32.4320  -35.9970   33.0480 N.pl3 315  ARG315     -0.0865
    197  CZ        31.4940  -35.3090   32.3850 C.cat 315  ARG315      0.5346
    198  NH1       30.6430  -34.5120   33.0340 N.pl3 315  ARG315      0.1354
    199  NH2       31.4050  -35.4180   31.0530 N.pl3 315  ARG315      0.1354
@<TRIPOS>BOND
     1    91    90    1
     2    90    92    1
     3    90    89    1
     4    89    86    1
     5    15    16   ar
     6    15    13   ar
     7    16    14   ar
     8    13    11   ar
     9    85    86    1
    10    96    95    2
    11    86    87    1
    12   104   103    2
    13    14    12   ar
    14   103   102    1
    15   103   107   am
    16   102   105    1
    17   102   101    1
    18    11    12   ar
    19    11    10    1
    20    88    87    2
    21   109   108    1
    22   109   110    2
    23    87    93   am
    24   105   106    1
    25   108   107    1
    26   108   111    1
    27     1     2    1
    28    95   101   am
    29    95    94    1
    30    93    94    1
    31    10     7    1
    32    32    31    2
    33    34    33    1
    34    34    35    1
    35    77    76    2
    36     2     3    1
    37     2     5    1
    38    94    97    1
    39   142   143    1
    40    33    30    1
    41   111   112    1
    42     3     6   am
    43     3     4    2
    44     6     7    1
    45    31    30    1
    46    72    71    2
    47     7     8    1
    48    37    35   ar
    49   143   144    1
    50   143   146    1
    51    35    36   ar
    52    76    75    1
    53    30    29    1
    54   120   119    2
    55    97    98    1
    56    38    39    1
    57    75    78    1
    58    75    74    1
    59   112   113   ar
    60   112   114   ar
    61     9     8    2
    62     8    17   am
    63   144   145    2
    64   146   147    1
    65    71    74   am
    66    71    70    1
    67   113   115   ar
    68   114   116   ar
    69   119   118    1
    70    78    79    1
    71    79    80    1
    72    84    82    1
    73    81    80    1
    74    81    82    2
    75    98    99   ar
    76    98   100   ar
    77    17    18    1
    78    39    40    1
    79    39    42    1
    80   149   147   ar
    81   149   151   ar
    82   147   148   ar
    83    70    73    1
    84    70    69    1
    85    82    83    1
    86   115   116   ar
    87    40    41    2
    88    18    19    1
    89    18    21    1
    90    42    43    1
    91   118   117    1
    92    19    20    2
    93   151   150   ar
    94   148   150   ar
    95    64    63    2
    96    43    44   ar
    97    43    45   ar
    98   152   153    1
    99    21    22    1
   100   161   159   ar
   101   161   162   ar
   102   159   157   ar
   103    23    22   ar
   104    23    25   ar
   105    22    24   ar
   106    63    62    1
   107   162   160   ar
   108   153   154    1
   109   153   156    1
   110    60    59    2
   111    62    65    1
   112    62    61    1
   113    25    27   ar
   114   155   154    2
   115    65    66    1
   116   157   156    1
   117   157   158   ar
   118   154   163   am
   119    24    26   ar
   120   160   158   ar
   121    59    61   am
   122    59    58    1
   123    67    66    1
   124    46    47    1
   125    55    54    1
   126   163   169    1
   127   163   164    1
   128    27    26   ar
   129    27    28    1
   130    47    48    1
   131    47    50    1
   132    66    68    1
   133   169   168    1
   134   164   167    1
   135   164   165    1
   136    57    58    1
   137    48    49    2
   138   167   168    1
   139    52    53    1
   140    52    51    1
   141    54    53    2
   142    54    56    1
   143   175   174    1
   144   175   176    1
   145   186   184   ar
   146   186   187   ar
   147   174   171    1
   148    50    51    1
   149   188   187    1
   150   184   182   ar
   151   165   166    2
   152   187   185   ar
   153   176   170    1
   154   199   197    1
   155   124   123    2
   156   171   172    1
   157   171   170    1
   158   182   181    1
   159   182   183   ar
   160   173   172    2
   161   134   136   ar
   162   134   133   ar
   163   185   183   ar
   164   172   177   am
   165   181   178    1
   166   136   137   ar
   167   123   122    1
   168   123   128   am
   169   197   198    1
   170   197   196    2
   171   122   125    1
   172   122   121    1
   173   177   178    1
   174   133   132    1
   175   133   135   ar
   176   132   129    1
   177   178   179    1
   178   196   195    1
   179   129   128    1
   180   129   130    1
   181   125   127    1
   182   125   126    1
   183   137   135   ar
   184   137   139   ar
   185   135   138   ar
   186   139   141   ar
   187   130   131    2
   188   179   180    2
   189   195   194    1
   190   194   193    1
   191   138   140   ar
   192   141   140   ar
   193   193   190    1
   194   190   189    1
   195   190   191    1
   196   191   192    2
