@<TRIPOS>MOLECULE
tmp/6h0cA00.pdb
 165 160 0 0 0
SMALL
GASTEIGER

@<TRIPOS>ATOM
      1  N         21.7120   38.9010   35.6450 N.3    26  LYS26      -0.1245
      2  CA        22.1680   38.1140   36.7940 C.3    26  LYS26       0.1561
      3  C         21.3890   36.8020   36.9220 C.2    26  LYS26       0.2260
      4  O         20.2010   36.7490   36.6180 O.2    26  LYS26      -0.2867
      5  CB        22.0260   38.8930   38.1110 C.3    26  LYS26       0.0271
      6  CG        22.0840   40.4190   38.0410 C.3    26  LYS26       0.0035
      7  CD        21.5600   41.0070   39.3680 C.3    26  LYS26       0.0206
      8  CE        21.5450   42.5320   39.3950 C.3    26  LYS26       0.1093
      9  NZ        22.9020   43.1060   39.6260 N.3    26  LYS26      -0.1314
     10  N         19.6200   35.3410   39.1920 N.3    28  GLU28      -0.1245
     11  CA        18.8690   35.4150   40.4320 C.3    28  GLU28       0.1567
     12  C         17.4510   34.9970   40.1200 C.2    28  GLU28       0.2260
     13  O         16.9600   35.2790   39.0320 O.2    28  GLU28      -0.2867
     14  CB        18.9350   36.8140   41.0260 C.3    28  GLU28       0.0388
     15  CG        20.3250   37.1640   41.5110 C.3    28  GLU28       0.1160
     16  CD        20.4270   38.5960   41.9580 C.2    28  GLU28       0.3649
     17  OE1       19.3840   39.2810   42.0080 O.co2  28  GLU28      -0.2457
     18  OE2       21.5550   39.0400   42.2540 O.co2  28  GLU28      -0.2457
     19  N         14.5820   35.9100   40.7050 N.3    30  GLU30      -0.1231
     20  CA        13.5550   36.8960   40.3580 C.3    30  GLU30       0.1699
     21  C         13.5610   37.2970   38.8790 C.2    30  GLU30       0.2592
     22  O         12.5720   37.8340   38.3890 O.2    30  GLU30      -0.2718
     23  CB        13.7040   38.1470   41.2250 C.3    30  GLU30       0.0402
     24  CG        14.9530   38.9530   40.9310 C.3    30  GLU30       0.1161
     25  CD        15.3650   39.8090   42.1090 C.2    30  GLU30       0.3649
     26  OE1       14.9840   41.0040   42.1590 O.co2  30  GLU30      -0.2457
     27  OE2       16.0670   39.2750   42.9900 O.co2  30  GLU30      -0.2457
     28  N         14.6580   37.0380   38.1690 N.am   31  TYR31      -0.1976
     29  CA        14.7140   37.3100   36.7270 C.3    31  TYR31       0.1639
     30  C         14.2960   36.0830   35.9100 C.2    31  TYR31       0.2290
     31  O         14.5150   36.0290   34.7000 O.2    31  TYR31      -0.2864
     32  CB        16.1240   37.7790   36.3090 C.3    31  TYR31       0.0560
     33  CG        16.5710   38.9990   37.0770 C.ar   31  TYR31      -0.0198
     34  CD1       15.9490   40.2260   36.8840 C.ar   31  TYR31      -0.0009
     35  CD2       17.5900   38.9200   38.0190 C.ar   31  TYR31      -0.0009
     36  CE1       16.3330   41.3530   37.6060 C.ar   31  TYR31       0.0417
     37  CE2       17.9810   40.0390   38.7480 C.ar   31  TYR31       0.0417
     38  CZ        17.3470   41.2520   38.5360 C.ar   31  TYR31       0.1957
     39  OH        17.7210   42.3660   39.2520 O.3    31  TYR31      -0.2866
     40  N         22.6600   50.2210   39.4140 N.3    56  GLY56      -0.1210
     41  CA        23.8530   49.4650   39.7560 C.3    56  GLY56       0.1956
     42  C         24.9200   49.3430   38.6730 C.2    56  GLY56       0.2612
     43  O         24.8560   50.0150   37.6420 O.2    56  GLY56      -0.2717
     44  N         25.8860   48.4540   38.9150 N.am   57  GLU57      -0.1965
     45  CA        27.1110   48.3410   38.1110 C.3    57  GLU57       0.1733
     46  C         26.8910   48.1320   36.6190 C.2    57  GLU57       0.2617
     47  O         27.6620   48.6450   35.8090 O.2    57  GLU57      -0.2715
     48  CB        27.9890   47.1890   38.6170 C.3    57  GLU57       0.0429
     49  CG        28.2250   47.1550   40.1150 C.3    57  GLU57       0.1163
     50  CD        29.3360   46.1850   40.5090 C.2    57  GLU57       0.3649
     51  OE1       30.4230   46.2540   39.8900 O.co2  57  GLU57      -0.2457
     52  OE2       29.1190   45.3600   41.4320 O.co2  57  GLU57      -0.2457
     53  N         25.8700   47.3590   36.2520 N.am   58  SER58      -0.1936
     54  CA        25.5950   47.0890   34.8370 C.3    58  SER58       0.2055
     55  C         25.2520   48.3620   34.0850 C.2    58  SER58       0.2643
     56  O         25.3300   48.3960   32.8630 O.2    58  SER58      -0.2714
     57  CB        24.4360   46.1030   34.6730 C.3    58  SER58       0.2130
     58  OG        24.6370   44.9400   35.4400 O.3    58  SER58      -0.2179
     59  N         24.8560   49.4000   34.8210 N.am   59  PHE59      -0.1973
     60  CA        24.2550   50.5820   34.2160 C.3    59  PHE59       0.1639
     61  C         25.0380   51.8550   34.4750 C.2    59  PHE59       0.2290
     62  O         24.7220   52.9090   33.9090 O.2    59  PHE59      -0.2864
     63  CB        22.8280   50.7770   34.7280 C.3    59  PHE59       0.0560
     64  CG        21.8900   49.6700   34.3510 C.ar   59  PHE59      -0.0200
     65  CD1       21.5470   49.4560   33.0280 C.ar   59  PHE59      -0.0042
     66  CD2       21.3320   48.8570   35.3260 C.ar   59  PHE59      -0.0042
     67  CE1       20.6750   48.4490   32.6820 C.ar   59  PHE59      -0.0003
     68  CE2       20.4590   47.8520   34.9910 C.ar   59  PHE59      -0.0003
     69  CZ        20.1300   47.6440   33.6670 C.ar   59  PHE59      -0.0000
     70  N         17.5010   52.0000   48.9720 N.3    83  HIS83      -0.1241
     71  CA        18.1640   50.8140   49.5110 C.3    83  HIS83       0.1621
     72  C         19.6260   50.8740   49.1060 C.2    83  HIS83       0.2264
     73  O         19.9920   51.6590   48.2300 O.2    83  HIS83      -0.2867
     74  CB        17.5170   49.5200   49.0150 C.3    83  HIS83       0.0745
     75  CG        17.8510   49.1840   47.5960 C.ar   83  HIS83       0.0817
     76  ND1       17.2420   49.7980   46.5230 N.ar   83  HIS83      -0.2268
     77  CD2       18.7310   48.2970   47.0720 C.ar   83  HIS83       0.1154
     78  CE1       17.7340   49.3060   45.3990 C.ar   83  HIS83       0.1986
     79  NE2       18.6420   48.3950   45.7050 N.ar   83  HIS83      -0.2212
     80  N         23.5000   48.5950   48.5820 N.3    85  ASN85      -0.1240
     81  CA        24.3790   47.4340   48.5580 C.3    85  ASN85       0.1653
     82  C         25.6450   47.7550   47.7600 C.2    85  ASN85       0.2266
     83  O         25.7680   48.8450   47.2000 O.2    85  ASN85      -0.2867
     84  CB        23.6640   46.2060   47.9830 C.3    85  ASN85       0.1155
     85  CG        23.0390   46.4670   46.6280 C.2    85  ASN85       0.2627
     86  OD1       23.7210   46.8580   45.6750 O.2    85  ASN85      -0.2716
     87  ND2       21.7320   46.2280   46.5270 N.am   85  ASN85      -0.0877
     88  N         26.7500   46.7620   44.9540 N.3    87  ASN87      -0.1225
     89  CA        26.5000   46.9670   43.5380 C.3    87  ASN87       0.1785
     90  C         26.0960   48.4250   43.2700 C.2    87  ASN87       0.2597
     91  O         26.6880   49.1030   42.4300 O.2    87  ASN87      -0.2718
     92  CB        25.4200   45.9810   43.0600 C.3    87  ASN87       0.1169
     93  CG        25.3450   45.8700   41.5450 C.2    87  ASN87       0.2627
     94  OD1       24.9370   46.8080   40.8600 O.2    87  ASN87      -0.2716
     95  ND2       25.7160   44.7080   41.0180 N.am   87  ASN87      -0.0877
     96  N         25.0950   48.9080   44.0020 N.am   88  ARG88      -0.1979
     97  CA        24.6890   50.3030   43.9100 C.3    88  ARG88       0.1597
     98  C         25.8130   51.2450   44.3640 C.2    88  ARG88       0.2287
     99  O         25.9850   52.3420   43.8230 O.2    88  ARG88      -0.2864
    100  CB        23.4320   50.5550   44.7530 C.3    88  ARG88       0.0334
    101  CG        22.1850   49.7820   44.3160 C.3    88  ARG88       0.0492
    102  CD        21.5310   50.3820   43.0870 C.3    88  ARG88       0.2205
    103  NE        20.4000   49.5700   42.6320 N.pl3  88  ARG88      -0.0865
    104  CZ        19.2920   50.0700   42.0890 C.cat  88  ARG88       0.5346
    105  NH1       19.1580   51.3840   41.9320 N.pl3  88  ARG88       0.1354
    106  NH2       18.3170   49.2560   41.7080 N.pl3  88  ARG88       0.1354
    107  N         15.9330   41.2260   53.4000 N.3   153  ARG153     -0.1231
    108  CA        16.7670   41.4040   52.2250 C.3   153  ARG153      0.1694
    109  C         17.1440   42.8690   51.9970 C.2   153  ARG153      0.2592
    110  O         18.1890   43.1690   51.4080 O.2   153  ARG153     -0.2718
    111  CB        16.0650   40.8380   50.9930 C.3   153  ARG153      0.0321
    112  CG        16.9740   40.7850   49.7920 C.3   153  ARG153      0.0489
    113  CD        16.3790   40.0090   48.6520 C.3   153  ARG153      0.2205
    114  NE        17.1720   40.2330   47.4550 N.pl3 153  ARG153     -0.0865
    115  CZ        16.8030   39.8480   46.2440 C.cat 153  ARG153      0.5346
    116  NH1       17.5830   40.1020   45.2060 N.pl3 153  ARG153      0.1354
    117  NH2       15.6520   39.2100   46.0770 N.pl3 153  ARG153      0.1354
    118  N         16.2930   43.7810   52.4590 N.am  154  TYR154     -0.1976
    119  CA        16.5650   45.2130   52.3210 C.3   154  TYR154      0.1639
    120  C         16.4280   45.9070   53.6610 C.2   154  TYR154      0.2290
    121  O         15.4590   46.6290   53.9040 O.2   154  TYR154     -0.2864
    122  CB        15.6320   45.8410   51.2830 C.3   154  TYR154      0.0560
    123  CG        15.8120   45.1840   49.9450 C.ar  154  TYR154     -0.0198
    124  CD1       16.9640   45.4120   49.1960 C.ar  154  TYR154     -0.0009
    125  CD2       14.8680   44.2880   49.4540 C.ar  154  TYR154     -0.0009
    126  CE1       17.1560   44.7860   47.9750 C.ar  154  TYR154      0.0417
    127  CE2       15.0570   43.6490   48.2300 C.ar  154  TYR154      0.0417
    128  CZ        16.2000   43.9090   47.4950 C.ar  154  TYR154      0.1957
    129  OH        16.3970   43.2990   46.2810 O.3   154  TYR154     -0.2866
    130  N         11.8420   48.8570   46.3260 N.3   172  LYS172     -0.1245
    131  CA        11.6150   47.4780   45.9270 C.3   172  LYS172      0.1561
    132  C         10.1510   47.0530   46.0190 C.2   172  LYS172      0.2260
    133  O          9.7840   46.0070   45.4950 O.2   172  LYS172     -0.2867
    134  CB        12.4880   46.5410   46.7590 C.3   172  LYS172      0.0271
    135  CG        13.9690   46.6520   46.4290 C.3   172  LYS172      0.0035
    136  CD        14.3110   45.9060   45.1310 C.3   172  LYS172      0.0206
    137  CE        15.7680   46.1520   44.7240 C.3   172  LYS172      0.1093
    138  NZ        16.2200   45.2530   43.6130 N.3   172  LYS172     -0.1314
    139  N         11.7520   49.0290   39.8040 N.3   229  HIS229     -0.1241
    140  CA        11.7720   48.1860   38.6060 C.3   229  HIS229      0.1621
    141  C         10.4580   48.1980   37.8450 C.2   229  HIS229      0.2264
    142  O          9.3870   48.0240   38.4390 O.2   229  HIS229     -0.2867
    143  CB        12.1060   46.7360   38.9770 C.3   229  HIS229      0.0745
    144  CG        13.3230   46.5990   39.8320 C.ar  229  HIS229      0.0817
    145  ND1       14.5930   46.8560   39.3630 N.ar  229  HIS229     -0.2268
    146  CD2       13.4650   46.2440   41.1320 C.ar  229  HIS229      0.1154
    147  CE1       15.4650   46.6620   40.3350 C.ar  229  HIS229      0.1986
    148  NE2       14.8060   46.2910   41.4180 N.ar  229  HIS229     -0.2212
    149  N         22.3890   39.9660   53.2860 N.3   265  ALA265     -0.1231
    150  CA        21.3970   40.3010   52.2610 C.3   265  ALA265      0.1694
    151  C         21.8990   40.1350   50.8350 C.2   265  ALA265      0.2592
    152  O         21.1230   39.8630   49.9270 O.2   265  ALA265     -0.2718
    153  CB        20.9090   41.7380   52.4590 C.3   265  ALA265      0.0304
    154  N         23.1920   40.3260   50.6380 N.am  266  TYR266     -0.1976
    155  CA        23.7370   40.4010   49.2960 C.3   266  TYR266      0.1639
    156  C         24.9400   39.4610   49.2070 C.2   266  TYR266      0.2290
    157  O         25.7290   39.3740   50.1410 O.2   266  TYR266     -0.2864
    158  CB        24.1040   41.8640   48.9610 C.3   266  TYR266      0.0560
    159  CG        24.5810   42.0960   47.5390 C.ar  266  TYR266     -0.0198
    160  CD1       23.6800   42.1560   46.4770 C.ar  266  TYR266     -0.0009
    161  CD2       25.9380   42.2560   47.2580 C.ar  266  TYR266     -0.0009
    162  CE1       24.1220   42.3620   45.1770 C.ar  266  TYR266      0.0417
    163  CE2       26.3860   42.4620   45.9710 C.ar  266  TYR266      0.0417
    164  CZ        25.4790   42.5160   44.9340 C.ar  266  TYR266      0.1957
    165  OH        25.9370   42.7230   43.6510 O.3   266  TYR266     -0.2866
@<TRIPOS>BOND
     1    67    65   ar
     2    67    69   ar
     3    56    55    2
     4    65    64   ar
     5    69    68   ar
     6    62    61    2
     7    55    59   am
     8    55    54    1
     9    60    61    1
    10    60    63    1
    11    60    59    1
    12    64    63    1
    13    64    66   ar
    14    57    54    1
    15    57    58    1
    16    31    30    2
    17    54    53    1
    18    68    66   ar
    19     1     2    1
    20    47    46    2
    21    30    29    1
    22    53    46   am
    23    32    29    1
    24    32    33    1
    25     4     3    2
    26    46    45    1
    27    29    28    1
    28     2     3    1
    29     2     5    1
    30    34    33   ar
    31    34    36   ar
    32    33    35   ar
    33    36    38   ar
    34    43    42    2
    35   141   142    2
    36   141   140    1
    37    35    37   ar
    38     6     5    1
    39     6     7    1
    40    45    48    1
    41    45    44    1
    42    28    21   am
    43    22    21    2
    44    38    37   ar
    45    38    39    1
    46   140   143    1
    47   140   139    1
    48    48    49    1
    49    42    44   am
    50    42    41    1
    51    21    20    1
    52   143   144    1
    53    13    12    2
    54    10    11    1
    55   145   144   ar
    56   145   147   ar
    57     7     8    1
    58     8     9    1
    59    40    41    1
    60   144   146   ar
    61    51    50   ar
    62    49    50    1
    63    12    11    1
    64   147   148   ar
    65    20    19    1
    66    20    23    1
    67    11    14    1
    68    50    52   ar
    69    94    93    2
    70    24    23    1
    71    24    25    1
    72    95    93   am
    73    14    15    1
    74   146   148   ar
    75    15    16    1
    76    93    92    1
    77   106   104    1
    78   105   104    1
    79    16    17   ar
    80    16    18   ar
    81   104   103    2
    82    25    26   ar
    83    25    27   ar
    84    91    90    2
    85   103   102    1
    86    92    89    1
    87   102   101    1
    88    90    89    1
    89    90    96   am
    90    89    88    1
    91   138   137    1
    92   165   164    1
    93    99    98    2
    94    97    96    1
    95    97    98    1
    96    97   100    1
    97   101   100    1
    98   137   136    1
    99   164   162   ar
   100   164   163   ar
   101   136   135    1
   102   162   160   ar
   103   116   115    1
   104    78    79   ar
   105    78    76   ar
   106   133   132    2
   107    86    85    2
   108    79    77   ar
   109   131   132    1
   110   131   130    1
   111   131   134    1
   112   163   161   ar
   113   117   115    1
   114   115   114    2
   115   129   128    1
   116   135   134    1
   117   160   159   ar
   118    76    75   ar
   119    87    85   am
   120    85    84    1
   121    77    75   ar
   122    83    82    2
   123   161   159   ar
   124   114   113    1
   125   128   126   ar
   126   128   127   ar
   127   159   158    1
   128    75    74    1
   129    82    81    1
   130   126   124   ar
   131    84    81    1
   132    73    72    2
   133   127   125   ar
   134    81    80    1
   135   113   112    1
   136   158   155    1
   137    70    71    1
   138    74    71    1
   139    72    71    1
   140   124   123   ar
   141   156   155    1
   142   156   157    2
   143   155   154    1
   144   125   123   ar
   145   112   111    1
   146   152   151    2
   147   123   122    1
   148   154   151   am
   149   151   150    1
   150   111   108    1
   151   122   119    1
   152   110   109    2
   153   109   108    1
   154   109   118   am
   155   108   107    1
   156   150   153    1
   157   150   149    1
   158   119   118    1
   159   119   120    1
   160   120   121    2
