@<TRIPOS>MOLECULE
tmp/6h0gE00.pdb
 113 118 0 0 0
SMALL
GASTEIGER

@<TRIPOS>ATOM
      1  N        -55.9030   20.8450  -61.3460 N.3   310  ASN310     -0.1226
      2  CA       -55.2490   19.8510  -62.1910 C.3   310  ASN310      0.1770
      3  C        -56.2840   18.9940  -62.8730 C.2   310  ASN310      0.2439
      4  O        -57.4490   19.0190  -62.4910 O.2   310  ASN310     -0.2733
      5  CB       -54.2770   19.0190  -61.3880 C.3   310  ASN310      0.1168
      6  CG       -54.8860   17.8630  -60.6960 C.2   310  ASN310      0.2627
      7  OD1      -56.0420   17.8720  -60.3330 O.2   310  ASN310     -0.2716
      8  ND2      -54.1350   16.8480  -60.4810 N.am  310  ASN310     -0.0877
      9  N        -55.8960   18.1850  -63.8490 N.am  311  PRO311     -0.2718
     10  CA       -56.8850   17.3870  -64.5590 C.3   311  PRO311      0.1535
     11  C        -57.8060   16.5500  -63.6900 C.2   311  PRO311      0.2598
     12  O        -59.0000   16.4270  -63.9930 O.2   311  PRO311     -0.2715
     13  CB       -56.0310   16.5150  -65.4690 C.3   311  PRO311      0.0310
     14  CG       -54.8300   17.2540  -65.6580 C.3   311  PRO311      0.0237
     15  CD       -54.5670   17.9970  -64.4250 C.3   311  PRO311      0.0939
     16  N        -57.2800   16.0540  -62.5720 N.am  312  HIS312     -0.1974
     17  CA       -58.0190   15.1760  -61.6840 C.3   312  HIS312      0.1656
     18  C        -58.7500   15.9270  -60.5520 C.2   312  HIS312      0.2291
     19  O        -59.1040   15.3290  -59.5420 O.2   312  HIS312     -0.2864
     20  CB       -57.0820   14.0870  -61.1260 C.3   312  HIS312      0.0771
     21  CG       -56.4280   13.2030  -62.1580 C.ar  312  HIS312      0.0820
     22  ND1      -56.9290   11.9620  -62.4700 N.ar  312  HIS312     -0.2267
     23  CD2      -55.3060   13.4010  -62.8810 C.ar  312  HIS312      0.1154
     24  CE1      -56.1220   11.4680  -63.3950 C.ar  312  HIS312      0.1986
     25  NE2      -55.1360   12.3000  -63.6690 N.ar  312  HIS312     -0.2212
     26  N        -53.9500   23.3320  -56.2860 N.3   316  HIS316     -0.1241
     27  CA       -52.6290   23.6800  -55.7700 C.3   316  HIS316      0.1621
     28  C        -52.4710   25.1680  -55.7120 C.2   316  HIS316      0.2264
     29  O        -52.6790   25.8320  -56.7230 O.2   316  HIS316     -0.2867
     30  CB       -51.5250   23.1550  -56.6850 C.3   316  HIS316      0.0745
     31  CG       -51.4200   21.6780  -56.7190 C.ar  316  HIS316      0.0817
     32  ND1      -50.5000   21.0080  -55.9410 N.ar  316  HIS316     -0.2268
     33  CD2      -52.1160   20.7720  -57.4460 C.ar  316  HIS316      0.1154
     34  CE1      -50.7070   19.7120  -56.1680 C.ar  316  HIS316      0.1986
     35  NE2      -51.6520   19.5220  -57.0870 N.ar  316  HIS316     -0.2212
     36  N        -49.1040   18.8800  -71.4760 N.3   336  GLU336     -0.1231
     37  CA       -50.4450   18.4340  -71.1260 C.3   336  GLU336      0.1699
     38  C        -51.0450   19.2780  -70.0480 C.2   336  GLU336      0.2592
     39  O        -50.4810   19.4010  -68.9630 O.2   336  GLU336     -0.2718
     40  CB       -50.4120   16.9890  -70.6230 C.3   336  GLU336      0.0402
     41  CG       -51.7430   16.2790  -70.5660 C.3   336  GLU336      0.1161
     42  CD       -51.7200   15.1140  -69.5950 C.2   336  GLU336      0.3649
     43  OE1      -52.6880   14.9910  -68.8130 O.co2 336  GLU336     -0.2457
     44  OE2      -50.7200   14.3580  -69.5770 O.co2 336  GLU336     -0.2457
     45  N        -52.2020   19.8410  -70.3320 N.am  337  HIS337     -0.1962
     46  CA       -52.9660   20.6270  -69.3760 C.3   337  HIS337      0.1787
     47  C        -52.1120   21.7120  -68.7280 C.2   337  HIS337      0.2621
     48  O        -52.3760   22.0980  -67.5990 O.2   337  HIS337     -0.2715
     49  CB       -53.5910   19.6950  -68.3210 C.3   337  HIS337      0.0785
     50  CG       -54.9000   20.1680  -67.7500 C.ar  337  HIS337      0.0821
     51  ND1      -54.9640   20.7900  -66.5340 N.ar  337  HIS337     -0.2267
     52  CD2      -56.1590   20.0490  -68.2350 C.ar  337  HIS337      0.1154
     53  CE1      -56.2400   21.0570  -66.3210 C.ar  337  HIS337      0.1986
     54  NE2      -56.9980   20.6410  -67.3260 N.ar  337  HIS337     -0.2212
     55  N        -51.1380   22.2470  -69.4660 N.am  338  SER338     -0.1936
     56  CA       -50.2340   23.2350  -68.9340 C.3   338  SER338      0.2055
     57  C        -50.9570   24.4940  -68.5230 C.2   338  SER338      0.2643
     58  O        -51.7050   25.0550  -69.3130 O.2   338  SER338     -0.2714
     59  CB       -49.1570   23.5680  -69.9430 C.3   338  SER338      0.2130
     60  OG       -48.2470   24.4960  -69.3860 O.3   338  SER338     -0.2179
     61  N        -50.7320   24.9380  -67.2860 N.am  339  TRP339     -0.1973
     62  CA       -51.3440   26.1400  -66.7280 C.3   339  TRP339      0.1640
     63  C        -50.7290   27.4220  -67.2610 C.2   339  TRP339      0.2290
     64  O        -51.3270   28.4860  -67.1100 O.2   339  TRP339     -0.2864
     65  CB       -51.2720   26.1540  -65.1890 C.3   339  TRP339      0.0576
     66  CG       -51.9350   25.0040  -64.4990 C.ar  339  TRP339      0.0006
     67  CD1      -53.0390   24.3310  -64.9140 C.ar  339  TRP339      0.0946
     68  CD2      -51.5460   24.4050  -63.2550 C.ar  339  TRP339      0.0152
     69  NE1      -53.3480   23.3350  -64.0270 N.ar  339  TRP339     -0.2442
     70  CE2      -52.4420   23.3520  -62.9990 C.ar  339  TRP339      0.0810
     71  CE3      -50.5240   24.6510  -62.3330 C.ar  339  TRP339      0.0012
     72  CZ2      -52.3330   22.5410  -61.8700 C.ar  339  TRP339      0.0191
     73  CZ3      -50.4120   23.8330  -61.2230 C.ar  339  TRP339      0.0001
     74  CH2      -51.3070   22.7960  -61.0010 C.ar  339  TRP339      0.0015
     75  N        -43.9710   21.2870  -68.3920 N.3   345  TRP345     -0.1241
     76  CA       -43.7530   20.9720  -66.9920 C.3   345  TRP345      0.1605
     77  C        -43.0890   19.6340  -66.7770 C.2   345  TRP345      0.2264
     78  O        -43.2740   18.7020  -67.5610 O.2   345  TRP345     -0.2867
     79  CB       -45.0700   21.0290  -66.2180 C.3   345  TRP345      0.0550
     80  CG       -46.1600   20.1910  -66.8020 C.ar  345  TRP345      0.0003
     81  CD1      -47.0760   20.5710  -67.7350 C.ar  345  TRP345      0.0946
     82  CD2      -46.4350   18.8270  -66.5060 C.ar  345  TRP345      0.0152
     83  NE1      -47.8920   19.5210  -68.0500 N.ar  345  TRP345     -0.2442
     84  CE2      -47.5390   18.4420  -67.2910 C.ar  345  TRP345      0.0810
     85  CE3      -45.8780   17.8940  -65.6310 C.ar  345  TRP345      0.0012
     86  CZ2      -48.0710   17.1580  -67.2450 C.ar  345  TRP345      0.0191
     87  CZ3      -46.4090   16.6210  -65.5890 C.ar  345  TRP345      0.0001
     88  CH2      -47.4850   16.2610  -66.3980 C.ar  345  TRP345      0.0015
     89  N        -43.1860   21.8500  -59.8890 N.3   359  TRP359     -0.1241
     90  CA       -42.8470   21.5940  -61.2830 C.3   359  TRP359      0.1605
     91  C        -41.8460   22.5980  -61.8190 C.2   359  TRP359      0.2264
     92  O        -41.8080   23.7350  -61.3520 O.2   359  TRP359     -0.2867
     93  CB       -44.1070   21.6380  -62.1560 C.3   359  TRP359      0.0550
     94  CG       -45.1990   20.7100  -61.7260 C.ar  359  TRP359      0.0003
     95  CD1      -45.3860   19.4290  -62.1360 C.ar  359  TRP359      0.0946
     96  CD2      -46.2590   20.9940  -60.8030 C.ar  359  TRP359      0.0152
     97  NE1      -46.4830   18.8910  -61.5170 N.ar  359  TRP359     -0.2442
     98  CE2      -47.0460   19.8360  -60.7020 C.ar  359  TRP359      0.0810
     99  CE3      -46.6350   22.1200  -60.0650 C.ar  359  TRP359      0.0012
    100  CZ2      -48.1760   19.7790  -59.8940 C.ar  359  TRP359      0.0191
    101  CZ3      -47.7580   22.0580  -59.2680 C.ar  359  TRP359      0.0001
    102  CH2      -48.5210   20.9050  -59.2000 C.ar  359  TRP359      0.0015
    103  N        -40.8470   24.5710  -65.1780 N.3   361  PHE361     -0.1241
    104  CA       -41.4060   25.0170  -66.4340 C.3   361  PHE361      0.1605
    105  C        -40.3180   25.4470  -67.3740 C.2   361  PHE361      0.2264
    106  O        -39.4910   26.2830  -67.0270 O.2   361  PHE361     -0.2867
    107  CB       -42.3940   26.1460  -66.2170 C.3   361  PHE361      0.0534
    108  CG       -43.6780   25.6970  -65.5910 C.ar  361  PHE361     -0.0203
    109  CD1      -43.7780   25.5320  -64.2230 C.ar  361  PHE361     -0.0042
    110  CD2      -44.7850   25.4240  -66.3690 C.ar  361  PHE361     -0.0042
    111  CE1      -44.9550   25.0890  -63.6500 C.ar  361  PHE361     -0.0003
    112  CE2      -45.9630   24.9870  -65.7940 C.ar  361  PHE361     -0.0003
    113  CZ       -46.0420   24.8170  -64.4370 C.ar  361  PHE361     -0.0000
@<TRIPOS>BOND
     1    36    37    1
     2    37    40    1
     3    37    38    1
     4    40    41    1
     5    41    42    1
     6    45    38   am
     7    45    46    1
     8    38    39    2
     9    59    60    1
    10    59    56    1
    11    42    44   ar
    12    42    43   ar
    13    55    56    1
    14    55    47   am
    15    46    47    1
    16    46    49    1
    17    58    57    2
    18    56    57    1
    19    47    48    2
    20    57    61   am
    21    75    76    1
    22    49    50    1
    23    52    50   ar
    24    52    54   ar
    25    83    81   ar
    26    83    84   ar
    27    50    51   ar
    28    81    80   ar
    29    78    77    2
    30   105   106    2
    31   105   104    1
    32    54    53   ar
    33    84    86   ar
    34    84    82   ar
    35    61    62    1
    36    63    64    2
    37    63    62    1
    38    86    88   ar
    39    76    77    1
    40    76    79    1
    41    80    82   ar
    42    80    79    1
    43    62    65    1
    44    51    53   ar
    45    82    85   ar
    46   104   107    1
    47   104   103    1
    48    88    87   ar
    49   110   112   ar
    50   110   108   ar
    51   107   108    1
    52   112   113   ar
    53    14    13    1
    54    14    15    1
    55    85    87   ar
    56   108   109   ar
    57    13    10    1
    58    65    66    1
    59    67    66   ar
    60    67    69   ar
    61    10     9    1
    62    10    11    1
    63    66    68   ar
    64   113   111   ar
    65    15     9    1
    66   109   111   ar
    67    69    70   ar
    68    12    11    2
    69     9     3   am
    70    11    16   am
    71    25    24   ar
    72    25    23   ar
    73    24    22   ar
    74    68    70   ar
    75    68    71   ar
    76    70    72   ar
    77    23    21   ar
    78     3     4    2
    79     3     2    1
    80    16    17    1
    81    22    21   ar
    82    71    73   ar
    83     2     5    1
    84     2     1    1
    85    21    20    1
    86    93    94    1
    87    93    90    1
    88    95    94   ar
    89    95    97   ar
    90    72    74   ar
    91    91    92    2
    92    91    90    1
    93    94    96   ar
    94    17    20    1
    95    17    18    1
    96    97    98   ar
    97     5     6    1
    98    90    89    1
    99    73    74   ar
   100    96    98   ar
   101    96    99   ar
   102    98   100   ar
   103     6     8   am
   104     6     7    2
   105    18    19    2
   106    99   101   ar
   107   100   102   ar
   108   101   102   ar
   109    33    35   ar
   110    33    31   ar
   111    35    34   ar
   112    29    28    2
   113    31    30    1
   114    31    32   ar
   115    30    27    1
   116    26    27    1
   117    34    32   ar
   118    27    28    1
