@<TRIPOS>MOLECULE
tmp/6h0oA00.pdb
 162 154 0 0 0
SMALL
GASTEIGER

@<TRIPOS>ATOM
      1  N        -35.9910    4.1010   19.6320 N.3     9  TYR9       -0.1241
      2  CA       -36.3310    5.4950   19.3210 C.3     9  TYR9        0.1605
      3  C        -35.2520    6.1180   18.4400 C.2     9  TYR9        0.2264
      4  O        -34.1830    5.5670   18.2950 O.2     9  TYR9       -0.2867
      5  CB       -36.4730    6.3390   20.5920 C.3     9  TYR9        0.0534
      6  CG       -35.2950    6.2860   21.5250 C.ar    9  TYR9       -0.0201
      7  CD1      -34.2100    7.1310   21.3590 C.ar    9  TYR9       -0.0009
      8  CD2      -35.2680    5.3920   22.5830 C.ar    9  TYR9       -0.0009
      9  CE1      -33.1130    7.0630   22.1960 C.ar    9  TYR9        0.0417
     10  CE2      -34.1950    5.3390   23.4600 C.ar    9  TYR9        0.0417
     11  CZ       -33.1060    6.1630   23.2500 C.ar    9  TYR9        0.1957
     12  OH       -32.0400    6.0820   24.0980 O.3     9  TYR9       -0.2866
     13  N        -32.4600    8.7320   17.7970 N.3    11  ILE11      -0.1231
     14  CA       -31.4980    9.4660   18.5820 C.3    11  ILE11       0.1692
     15  C        -31.4480   10.8920   18.0380 C.2    11  ILE11       0.2593
     16  O        -31.4890   11.8400   18.7800 O.2    11  ILE11      -0.2718
     17  CB       -30.1180    8.7810   18.5330 C.3    11  ILE11       0.0266
     18  CG1      -30.1410    7.4260   19.2340 C.3    11  ILE11       0.0019
     19  CG2      -29.0370    9.6810   19.1050 C.3    11  ILE11       0.0020
     20  CD1      -28.9390    6.5790   18.9470 C.3    11  ILE11       0.0001
     21  N        -31.2950   11.0090   16.7200 N.am   12  GLY12      -0.1942
     22  CA       -31.3710   12.2810   16.0390 C.3    12  GLY12       0.2014
     23  C        -31.4790   12.1120   14.5370 C.2    12  GLY12       0.2639
     24  O        -31.3960   10.9860   14.0110 O.2    12  GLY12      -0.2714
     25  N        -31.6590   13.2490   13.8560 N.am   13  THR13      -0.1950
     26  CA       -31.9010   13.3090   12.4080 C.3    13  THR13       0.1897
     27  C        -30.9570   14.3520   11.8000 C.2    13  THR13       0.2313
     28  O        -29.7520   14.3800   12.1110 O.2    13  THR13      -0.2863
     29  CB       -33.3830   13.5910   12.1250 C.3    13  THR13       0.1794
     30  OG1      -34.1380   12.5100   12.6910 O.3    13  THR13      -0.2208
     31  CG2      -33.7000   13.6660   10.6670 C.3    13  THR13       0.0378
     32  N        -30.7750    8.6270   12.7810 N.3    15  CYS15      -0.1235
     33  CA       -29.9810    7.7330   13.5940 C.3    15  CYS15       0.1677
     34  C        -30.9180    7.1440   14.6470 C.2    15  CYS15       0.2270
     35  O        -31.5480    7.9090   15.3960 O.2    15  CYS15      -0.2867
     36  CB       -28.8240    8.4830   14.2510 C.3    15  CYS15       0.0956
     37  SG       -27.7720    7.4410   15.2960 S.3    15  CYS15      -0.0801
     38  N        -27.2070    0.8120   16.9550 N.3    28  VAL28      -0.1245
     39  CA       -27.8550    1.8560   16.2610 C.3    28  VAL28       0.1561
     40  C        -27.8490    1.4790   14.7910 C.2    28  VAL28       0.2260
     41  O        -26.9900    0.7150   14.3420 O.2    28  VAL28      -0.2867
     42  CB       -27.1700    3.2270   16.4480 C.3    28  VAL28       0.0252
     43  CG1      -26.8820    3.5270   17.8990 C.3    28  VAL28       0.0019
     44  CG2      -25.9000    3.3560   15.6320 C.3    28  VAL28       0.0019
     45  N        -28.0230    3.8910   10.9530 N.3    30  LYS30      -0.1245
     46  CA       -28.2250    5.0900   10.1740 C.3    30  LYS30       0.1561
     47  C        -29.0130    4.7030    8.9150 C.2    30  LYS30       0.2260
     48  O        -28.6150    3.7470    8.2280 O.2    30  LYS30      -0.2867
     49  CB       -26.8760    5.6860    9.7660 C.3    30  LYS30       0.0271
     50  CG       -25.8850    5.8950   10.8940 C.3    30  LYS30       0.0035
     51  CD       -26.0740    7.1950   11.6240 C.3    30  LYS30       0.0206
     52  CE       -25.2470    7.2780   12.8950 C.3    30  LYS30       0.1093
     53  NZ       -23.7980    7.4010   12.6010 N.3    30  LYS30      -0.1314
     54  N        -15.7590    3.4630   16.5780 N.3    46  VAL46      -0.1245
     55  CA       -17.1280    2.9640   16.6080 C.3    46  VAL46       0.1561
     56  C        -17.1760    1.7900   15.6280 C.2    46  VAL46       0.2260
     57  O        -16.7680    1.9340   14.5140 O.2    46  VAL46      -0.2867
     58  CB       -18.1350    4.0610   16.2300 C.3    46  VAL46       0.0252
     59  CG1      -19.4880    3.4840   15.8900 C.3    46  VAL46       0.0019
     60  CG2      -18.2500    5.1170   17.3140 C.3    46  VAL46       0.0019
     61  N        -24.3620   -0.1330   13.5500 N.3    64  MET64      -0.1230
     62  CA       -23.1260    0.1030   14.2860 C.3    64  MET64       0.1702
     63  C        -23.3570    0.0820   15.8040 C.2    64  MET64       0.2592
     64  O        -24.4850   -0.0150   16.3200 O.2    64  MET64      -0.2718
     65  CB       -22.4350    1.3960   13.8360 C.3    64  MET64       0.0401
     66  CG       -23.2420    2.6370   13.8790 C.3    64  MET64       0.0596
     67  SD       -22.4880    3.9510   12.8440 S.3    64  MET64      -0.1393
     68  CE       -22.8270    3.3160   11.2030 C.3    64  MET64       0.0692
     69  N        -22.2330    0.0060   16.5090 N.am   65  GLU65      -0.1966
     70  CA       -22.1280    0.0090   17.9760 C.3    65  GLU65       0.1733
     71  C        -22.9500    1.1780   18.5340 C.2    65  GLU65       0.2616
     72  O        -22.8710    2.2740   18.0550 O.2    65  GLU65      -0.2715
     73  CB       -20.6360    0.1920   18.2900 C.3    65  GLU65       0.0429
     74  CG       -20.1740   -0.0670   19.7130 C.3    65  GLU65       0.1163
     75  CD       -18.6830    0.2530   19.9660 C.2    65  GLU65       0.3649
     76  OE1      -17.8620    0.3920   19.0010 O.co2  65  GLU65      -0.2457
     77  OE2      -18.3280    0.3860   21.1320 O.co2  65  GLU65      -0.2457
     78  N        -23.7160    0.9510   19.5920 N.am   66  TYR66      -0.1960
     79  CA       -24.2880    2.0820   20.3260 C.3    66  TYR66       0.1771
     80  C        -23.2880    2.5590   21.3970 C.2    66  TYR66       0.2620
     81  O        -22.7530    1.7510   22.1390 O.2    66  TYR66      -0.2715
     82  CB       -25.5860    1.6330   21.0020 C.3    66  TYR66       0.0574
     83  CG       -26.2000    2.6340   21.9380 C.ar   66  TYR66      -0.0198
     84  CD1      -26.7000    3.8330   21.4570 C.ar   66  TYR66      -0.0009
     85  CD2      -26.3180    2.3650   23.2920 C.ar   66  TYR66      -0.0009
     86  CE1      -27.3190    4.7420   22.2970 C.ar   66  TYR66       0.0417
     87  CE2      -26.9410    3.2600   24.1430 C.ar   66  TYR66       0.0417
     88  CZ       -27.4530    4.4350   23.6430 C.ar   66  TYR66       0.1957
     89  OH       -28.0750    5.3400   24.4460 O.3    66  TYR66      -0.2866
     90  N        -23.1170    3.8680   21.5430 N.am   67  CYS67      -0.1954
     91  CA       -22.2230    4.4110   22.5870 C.3    67  CYS67       0.1843
     92  C        -23.0620    5.0820   23.6850 C.2    67  CYS67       0.2625
     93  O        -23.5600    6.1870   23.4920 O.2    67  CYS67      -0.2714
     94  CB       -21.2450    5.3900   21.9590 C.3    67  CYS67       0.0997
     95  SG       -20.2300    4.6610   20.6380 S.3    67  CYS67      -0.0797
     96  N        -23.1720    4.4370   24.8460 N.am   68  GLU68      -0.1963
     97  CA       -24.1950    4.8120   25.8790 C.3    68  GLU68       0.1733
     98  C        -23.9450    6.2190   26.4300 C.2    68  GLU68       0.2617
     99  O        -24.8700    6.8730   26.9170 O.2    68  GLU68      -0.2715
    100  CB       -24.2860    3.7700   27.0010 C.3    68  GLU68       0.0429
    101  CG       -23.6940    4.2350   28.3280 C.3    68  GLU68       0.1163
    102  CD       -24.1420    3.5300   29.6100 C.2    68  GLU68       0.3649
    103  OE1      -24.0060    2.2950   29.6830 O.co2  68  GLU68      -0.2457
    104  OE2      -24.5910    4.2370   30.5600 O.co2  68  GLU68      -0.2457
    105  N        -22.7140    6.7380   26.3350 N.am   69  GLY69      -0.1940
    106  CA       -22.4110    8.0260   26.9580 C.3    69  GLY69       0.2014
    107  C        -22.7180    9.2330   26.1050 C.2    69  GLY69       0.2639
    108  O        -22.4490   10.3290   26.5030 O.2    69  GLY69      -0.2714
    109  N        -23.1270    9.0630   24.8570 N.am   70  GLY70      -0.1939
    110  CA       -23.3620   10.2230   24.0250 C.3    70  GLY70       0.2014
    111  C        -22.0720   10.8390   23.5190 C.2    70  GLY70       0.2638
    112  O        -21.0180   10.2440   23.6220 O.2    70  GLY70      -0.2714
    113  N        -22.1870   12.0390   22.9440 N.am   71  ASP71      -0.1971
    114  CA       -21.1290   12.6950   22.2180 C.3    71  ASP71       0.1709
    115  C        -20.3830   13.6630   23.1480 C.2    71  ASP71       0.2293
    116  O        -20.8960   14.0660   24.1910 O.2    71  ASP71      -0.2864
    117  CB       -21.7080   13.3640   20.9730 C.3    71  ASP71       0.1436
    118  CG       -22.4340   14.6770   21.2240 C.2    71  ASP71       0.3671
    119  OD1      -22.7080   14.9790   22.3810 O.co2  71  ASP71      -0.2456
    120  OD2      -22.7310   15.3830   20.2530 O.co2  71  ASP71      -0.2456
    121  N        -19.5930   16.7110   22.4150 N.3    73  ALA73      -0.1231
    122  CA       -20.1870   18.0450   22.2490 C.3    73  ALA73       0.1694
    123  C        -21.1210   18.3080   23.4210 C.2    73  ALA73       0.2592
    124  O        -21.0570   19.3780   24.0030 O.2    73  ALA73      -0.2718
    125  CB       -20.9100   18.1900   20.9280 C.3    73  ALA73       0.0304
    126  N        -21.8770   17.2760   23.8220 N.am   74  SER74      -0.1952
    127  CA       -22.8380   17.3610   24.9250 C.3    74  SER74       0.1924
    128  C        -22.1180   17.4740   26.2680 C.2    74  SER74       0.2314
    129  O        -22.6470   18.0920   27.1860 O.2    74  SER74      -0.2863
    130  CB       -23.8220   16.2090   24.9130 C.3    74  SER74       0.2116
    131  OG       -24.5230   16.1960   23.6660 O.3    74  SER74      -0.2180
    132  N        -21.1120   21.1140   26.4170 N.3    77  THR77      -0.1218
    133  CA       -22.3480   21.8800   26.6750 C.3    77  THR77       0.1862
    134  C        -22.7020   21.8240   28.1620 C.2    77  THR77       0.2287
    135  O        -23.0020   22.8480   28.7660 O.2    77  THR77      -0.2866
    136  CB       -23.5440   21.3170   25.8970 C.3    77  THR77       0.1770
    137  OG1      -23.2670   21.5140   24.5190 O.3    77  THR77      -0.2211
    138  CG2      -24.8680   21.9660   26.2540 C.3    77  THR77       0.0375
    139  N        -18.6720   16.4110   18.1240 N.3   112  ALA112     -0.1231
    140  CA       -19.9540   15.7980   17.7840 C.3   112  ALA112      0.1694
    141  C        -19.7410   14.4180   17.1620 C.2   112  ALA112      0.2592
    142  O        -20.6920   13.7060   17.0440 O.2   112  ALA112     -0.2718
    143  CB       -20.7590   16.7010   16.8660 C.3   112  ALA112      0.0304
    144  N        -18.5030   14.0840   16.7500 N.am  113  ASN113     -0.1974
    145  CA       -18.1550   12.7890   16.1500 C.3   113  ASN113      0.1688
    146  C        -17.3270   11.9480   17.1360 C.2   113  ASN113      0.2292
    147  O        -16.6990   10.9370   16.7560 O.2   113  ASN113     -0.2864
    148  CB       -17.3430   12.9330   14.8600 C.3   113  ASN113      0.1181
    149  CG       -18.0730   13.6310   13.7300 C.2   113  ASN113      0.2629
    150  OD1      -19.2990   13.6990   13.7160 O.2   113  ASN113     -0.2716
    151  ND2      -17.3210   14.1570   12.7720 N.am  113  ASN113     -0.0877
    152  N        -17.5760    9.8860   20.7390 N.3   115  PHE115     -0.1241
    153  CA       -18.5750    9.3080   21.6310 C.3   115  PHE115      0.1605
    154  C        -17.9010    8.6580   22.8380 C.2   115  PHE115      0.2264
    155  O        -16.7320    8.3280   22.8110 O.2   115  PHE115     -0.2867
    156  CB       -19.4250    8.2830   20.8750 C.3   115  PHE115      0.0534
    157  CG       -20.2150    8.9070   19.7510 C.ar  115  PHE115     -0.0203
    158  CD1      -21.4620    9.4660   19.9890 C.ar  115  PHE115     -0.0042
    159  CD2      -19.7060    8.9430   18.4600 C.ar  115  PHE115     -0.0042
    160  CE1      -22.1800   10.0510   18.9570 C.ar  115  PHE115     -0.0003
    161  CE2      -20.4340    9.5120   17.4270 C.ar  115  PHE115     -0.0003
    162  CZ       -21.6530   10.0940   17.6870 C.ar  115  PHE115     -0.0000
@<TRIPOS>BOND
     1    48    47    2
     2    47    46    1
     3    49    46    1
     4    49    50    1
     5    46    45    1
     6    31    29    1
     7    50    51    1
     8    68    67    1
     9    51    52    1
    10    27    28    2
    11    27    26    1
    12    29    26    1
    13    29    30    1
    14    26    25    1
    15    53    52    1
    16   151   149   am
    17    32    33    1
    18    67    66    1
    19    61    62    1
    20    33    36    1
    21    33    34    1
    22   150   149    2
    23   149   148    1
    24    65    66    1
    25    65    62    1
    26    25    23   am
    27    24    23    2
    28    36    37    1
    29    62    63    1
    30    41    40    2
    31    57    56    2
    32    23    22    1
    33    34    35    2
    34    40    39    1
    35   148   145    1
    36    56    55    1
    37    44    42    1
    38    63    64    2
    39    63    69   am
    40    59    58    1
    41    22    21    1
    42   145   144    1
    43   145   146    1
    44    58    55    1
    45    58    60    1
    46    39    42    1
    47    39    38    1
    48    42    43    1
    49    69    70    1
    50    54    55    1
    51    21    15   am
    52   144   141   am
    53   147   146    2
    54   143   140    1
    55   142   141    2
    56   141   140    1
    57   161   162   ar
    58   161   159   ar
    59   162   160   ar
    60   140   139    1
    61    13    14    1
    62    70    73    1
    63    70    71    1
    64    15    14    1
    65    15    16    2
    66    72    71    2
    67    73    74    1
    68     4     3    2
    69     3     2    1
    70   159   157   ar
    71    17    14    1
    72    17    19    1
    73    17    18    1
    74    71    78   am
    75    20    18    1
    76   160   158   ar
    77    76    75   ar
    78     2     1    1
    79     2     5    1
    80    78    79    1
    81    74    75    1
    82   157   158   ar
    83   157   156    1
    84    75    77   ar
    85   120   118   ar
    86    79    82    1
    87    79    80    1
    88     5     6    1
    89    95    94    1
    90   152   153    1
    91   156   153    1
    92   125   122    1
    93   117   118    1
    94   117   114    1
    95    82    83    1
    96   118   119   ar
    97     7     6   ar
    98     7     9   ar
    99    80    90   am
   100    80    81    2
   101    84    83   ar
   102    84    86   ar
   103     6     8   ar
   104    90    91    1
   105   153   154    1
   106    83    85   ar
   107    94    91    1
   108     9    11   ar
   109   114   113    1
   110   114   115    1
   111   122   121    1
   112   122   123    1
   113    86    88   ar
   114     8    10   ar
   115    91    92    1
   116   155   154    2
   117   113   111   am
   118   115   116    2
   119    11    10   ar
   120    11    12    1
   121    85    87   ar
   122   123   126   am
   123   123   124    2
   124    93    92    2
   125   111   112    2
   126   111   110    1
   127    88    87   ar
   128    88    89    1
   129   131   130    1
   130    92    96   am
   131   126   127    1
   132   110   109    1
   133   137   136    1
   134    96    97    1
   135   109   107   am
   136   130   127    1
   137   127   128    1
   138    97    98    1
   139    97   100    1
   140   136   138    1
   141   136   133    1
   142   107   108    2
   143   107   106    1
   144   128   129    2
   145   105    98   am
   146   105   106    1
   147   132   133    1
   148    98    99    2
   149   133   134    1
   150   100   101    1
   151   134   135    2
   152   101   102    1
   153   102   103   ar
   154   102   104   ar
