@<TRIPOS>MOLECULE
tmp/6h15A03.pdb
 101 91 0 0 0
SMALL
GASTEIGER

@<TRIPOS>ATOM
      1  N        -69.2980  128.7070   13.2480 N.3   374  VAL374     -0.1231
      2  CA       -68.0700  127.9290   13.1110 C.3   374  VAL374      0.1692
      3  C        -67.3450  128.3960   11.8560 C.2   374  VAL374      0.2591
      4  O        -67.9680  128.6000   10.8090 O.2   374  VAL374     -0.2718
      5  CB       -68.3500  126.4100   13.0370 C.3   374  VAL374      0.0266
      6  CG1      -67.0670  125.6440   12.7610 C.3   374  VAL374      0.0020
      7  CG2      -68.9860  125.9110   14.3200 C.3   374  VAL374      0.0020
      8  N        -66.0300  128.5660   11.9600 N.am  375  VAL375     -0.1980
      9  CA       -65.2200  128.9370   10.8050 C.3   375  VAL375      0.1595
     10  C        -63.9530  128.0910   10.7460 C.2   375  VAL375      0.2287
     11  O        -63.4890  127.5760   11.7630 O.2   375  VAL375     -0.2864
     12  CB       -64.8690  130.4360   10.8230 C.3   375  VAL375      0.0276
     13  CG1      -64.0140  130.7680   12.0350 C.3   375  VAL375      0.0022
     14  CG2      -64.1550  130.8270    9.5380 C.3   375  VAL375      0.0022
     15  N        -61.3920  123.4570    7.5020 N.3   377  ILE377     -0.1245
     16  CA       -62.6000  122.6600    7.6520 C.3   377  ILE377      0.1561
     17  C        -63.5190  122.9370    6.4700 C.2   377  ILE377      0.2260
     18  O        -63.4100  123.9590    5.7890 O.2   377  ILE377     -0.2867
     19  CB       -63.3310  122.9470    8.9780 C.3   377  ILE377      0.0252
     20  CG1      -63.6810  124.4330    9.0740 C.3   377  ILE377      0.0019
     21  CG2      -62.4800  122.5100   10.1610 C.3   377  ILE377      0.0019
     22  CD1      -64.9130  124.7190    9.9000 C.3   377  ILE377      0.0001
     23  N        -73.3260  118.9100   12.5060 N.3   393  TRP393     -0.1241
     24  CA       -72.8600  119.1410   11.1480 C.3   393  TRP393      0.1605
     25  C        -71.7520  118.1600   10.8020 C.2   393  TRP393      0.2264
     26  O        -71.0190  117.6850   11.6740 O.2   393  TRP393     -0.2867
     27  CB       -72.3740  120.5860   10.9470 C.3   393  TRP393      0.0550
     28  CG       -71.3030  121.0340   11.8960 C.ar  393  TRP393      0.0003
     29  CD1      -71.4640  121.3910   13.2030 C.ar  393  TRP393      0.0946
     30  CD2      -69.9090  121.2020   11.6040 C.ar  393  TRP393      0.0152
     31  NE1      -70.2560  121.7570   13.7470 N.ar  393  TRP393     -0.2442
     32  CE2      -69.2860  121.6510   12.7850 C.ar  393  TRP393      0.0810
     33  CE3      -69.1280  121.0110   10.4600 C.ar  393  TRP393      0.0012
     34  CZ2      -67.9180  121.9130   12.8560 C.ar  393  TRP393      0.0191
     35  CZ3      -67.7700  121.2700   10.5320 C.ar  393  TRP393      0.0001
     36  CH2      -67.1790  121.7150   11.7220 C.ar  393  TRP393      0.0015
     37  N        -68.2880  117.3600    8.5240 N.3   395  CYS395     -0.1235
     38  CA       -67.1340  118.0290    7.9400 C.3   395  CYS395      0.1677
     39  C        -66.6450  117.2150    6.7470 C.2   395  CYS395      0.2270
     40  O        -66.2290  116.0630    6.9090 O.2   395  CYS395     -0.2867
     41  CB       -66.0250  118.1980    8.9790 C.3   395  CYS395      0.0956
     42  SG       -64.7570  119.4070    8.5410 S.3   395  CYS395     -0.0801
     43  N        -62.5020  116.5410    7.1730 N.3   398  THR398     -0.1218
     44  CA       -62.0420  115.6130    8.1980 C.3   398  THR398      0.1862
     45  C        -62.9570  114.4070    8.3760 C.2   398  THR398      0.2287
     46  O        -62.5760  113.4640    9.0780 O.2   398  THR398     -0.2866
     47  CB       -61.8900  116.3380    9.5430 C.3   398  THR398      0.1770
     48  OG1      -63.1350  116.9450    9.9100 O.3   398  THR398     -0.2211
     49  CG2      -60.8210  117.4140    9.4490 C.3   398  THR398      0.0375
     50  N        -66.0810  113.9090    9.9000 N.3   400  VAL400     -0.1245
     51  CA       -66.5560  113.7370   11.2670 C.3   400  VAL400      0.1561
     52  C        -67.9310  114.3760   11.4050 C.2   400  VAL400      0.2260
     53  O        -68.3650  115.1670   10.5650 O.2   400  VAL400     -0.2867
     54  CB       -65.5960  114.3490   12.3170 C.3   400  VAL400      0.0252
     55  CG1      -64.1710  113.8400   12.1230 C.3   400  VAL400      0.0019
     56  CG2      -65.6490  115.8690   12.2640 C.3   400  VAL400      0.0019
     57  N        -69.4420  116.8390   13.9480 N.3   402  ASN402     -0.1240
     58  CA       -69.0100  117.7900   14.9620 C.3   402  ASN402      0.1653
     59  C        -70.2350  118.5010   15.5270 C.2   402  ASN402      0.2266
     60  O        -71.1740  118.8140   14.7890 O.2   402  ASN402     -0.2867
     61  CB       -68.0210  118.7880   14.3450 C.3   402  ASN402      0.1155
     62  CG       -67.1750  119.5180   15.3750 C.2   402  ASN402      0.2627
     63  OD1      -67.5760  119.6950   16.5250 O.2   402  ASN402     -0.2716
     64  ND2      -65.9850  119.9560   14.9500 N.am  402  ASN402     -0.0877
     65  N        -71.8240  121.6710   17.8530 N.3   404  THR404     -0.1218
     66  CA       -71.5220  123.0450   18.2270 C.3   404  THR404      0.1862
     67  C        -72.7670  123.7220   18.7820 C.2   404  THR404      0.2287
     68  O        -73.8590  123.5780   18.2260 O.2   404  THR404     -0.2866
     69  CB       -70.9990  123.8440   17.0240 C.3   404  THR404      0.1770
     70  OG1      -69.8700  123.1720   16.4520 O.3   404  THR404     -0.2211
     71  CG2      -70.5900  125.2460   17.4490 C.3   404  THR404      0.0375
     72  N        -71.6200  129.3290   19.2040 N.3   408  GLY408     -0.1225
     73  CA       -70.3100  129.0920   18.6390 C.3   408  GLY408      0.1811
     74  C        -69.3790  128.2500   19.4880 C.2   408  GLY408      0.2280
     75  O        -68.3160  127.8530   18.9960 O.2   408  GLY408     -0.2866
     76  N        -67.8190  125.0650   21.0020 N.3   410  SER410     -0.1217
     77  CA       -67.7660  123.6960   20.5080 C.3   410  SER410      0.1889
     78  C        -68.1360  122.7070   21.6060 C.2   410  SER410      0.2288
     79  O        -67.6590  122.8170   22.7400 O.2   410  SER410     -0.2866
     80  CB       -66.3710  123.3820   19.9700 C.3   410  SER410      0.2089
     81  OG       -66.2310  121.9990   19.6990 O.3   410  SER410     -0.2183
     82  N        -68.0730  119.1110   20.7210 N.3   412  GLY412     -0.1210
     83  CA       -67.1070  118.0860   20.4050 C.3   412  GLY412      0.1956
     84  C        -67.5680  117.2490   19.2330 C.2   412  GLY412      0.2611
     85  O        -68.5840  117.5320   18.6010 O.2   412  GLY412     -0.2717
     86  N        -66.8030  116.1980   18.9520 N.am  413  VAL413     -0.1979
     87  CA       -67.0610  115.2980   17.8340 C.3   413  VAL413      0.1595
     88  C        -67.7020  114.0270   18.3670 C.2   413  VAL413      0.2287
     89  O        -67.1750  113.3930   19.2880 O.2   413  VAL413     -0.2864
     90  CB       -65.7660  114.9840   17.0660 C.3   413  VAL413      0.0276
     91  CG1      -65.9240  113.7190   16.2450 C.3   413  VAL413      0.0022
     92  CG2      -65.4060  116.1480   16.1750 C.3   413  VAL413      0.0022
     93  N        -66.3870  109.8270   14.4580 N.3   416  LYS416     -0.1245
     94  CA       -65.2060  109.8070   13.6120 C.3   416  LYS416      0.1561
     95  C        -64.9280  108.3540   13.2690 C.2   416  LYS416      0.2260
     96  O        -65.3940  107.4380   13.9510 O.2   416  LYS416     -0.2867
     97  CB       -63.9810  110.4350   14.2940 C.3   416  LYS416      0.0271
     98  CG       -63.1140  109.4270   15.0410 C.3   416  LYS416      0.0035
     99  CD       -61.9030  110.0720   15.6970 C.3   416  LYS416      0.0206
    100  CE       -62.3070  110.9790   16.8460 C.3   416  LYS416      0.1093
    101  NZ       -61.1670  111.2740   17.7570 N.3   416  LYS416     -0.1314
@<TRIPOS>BOND
     1    18    17    2
     2    17    16    1
     3    39    40    2
     4    39    38    1
     5    43    44    1
     6    15    16    1
     7    16    19    1
     8    38    37    1
     9    38    41    1
    10    44    45    1
    11    44    47    1
    12    45    46    2
    13    42    41    1
    14    19    20    1
    15    19    21    1
    16    20    22    1
    17    49    47    1
    18    14    12    1
    19    47    48    1
    20    50    51    1
    21    33    35   ar
    22    33    30   ar
    23    35    36   ar
    24    53    52    2
    25    10     9    1
    26    10    11    2
    27    25    24    1
    28    25    26    2
    29     9    12    1
    30     9     8    1
    31     4     3    2
    32    12    13    1
    33    27    24    1
    34    27    28    1
    35    24    23    1
    36    51    52    1
    37    51    54    1
    38    30    28   ar
    39    30    32   ar
    40    36    34   ar
    41     3     8   am
    42     3     2    1
    43    28    29   ar
    44    55    54    1
    45    56    54    1
    46     6     5    1
    47    32    34   ar
    48    32    31   ar
    49     5     2    1
    50     5     7    1
    51     2     1    1
    52    29    31   ar
    53    95    94    1
    54    95    96    2
    55    94    97    1
    56    94    93    1
    57    57    58    1
    58    97    98    1
    59    61    58    1
    60    61    62    1
    61    60    59    2
    62    64    62   am
    63    58    59    1
    64    98    99    1
    65    62    63    2
    66    99   100    1
    67    92    90    1
    68    91    90    1
    69    70    69    1
    70   100   101    1
    71    69    71    1
    72    69    66    1
    73    90    87    1
    74    87    88    1
    75    87    86    1
    76    65    66    1
    77    68    67    2
    78    66    67    1
    79    88    89    2
    80    85    84    2
    81    73    72    1
    82    73    74    1
    83    86    84   am
    84    75    74    2
    85    84    83    1
    86    81    80    1
    87    80    77    1
    88    83    82    1
    89    77    76    1
    90    77    78    1
    91    78    79    2
