@<TRIPOS>MOLECULE
tmp/6h1bC00.pdb
 151 143 0 0 0
SMALL
GASTEIGER

@<TRIPOS>ATOM
      1  N        -57.0050   -8.2700   89.9610 N.3   158  THR158     -0.1203
      2  CA       -56.6980   -8.6960   88.5880 C.3   158  THR158      0.1994
      3  C        -57.9680   -8.8660   87.7220 C.2   158  THR158      0.2618
      4  O        -59.1140   -8.8830   88.2370 O.2   158  THR158     -0.2717
      5  CB       -55.9490  -10.0330   88.7370 C.3   158  THR158      0.1784
      6  OG1      -54.8700   -9.7000   89.6000 O.3   158  THR158     -0.2211
      7  CG2      -55.4370  -10.7060   87.4780 C.3   158  THR158      0.0376
      8  N        -57.7500   -9.0240   86.4020 N.am  159  SER159     -0.1951
      9  CA       -58.8180   -9.2910   85.4150 C.3   159  SER159      0.1924
     10  C        -59.0790  -10.8070   85.2900 C.2   159  SER159      0.2314
     11  O        -58.1510  -11.6040   85.0660 O.2   159  SER159     -0.2863
     12  CB       -58.5010   -8.6460   84.0830 C.3   159  SER159      0.2116
     13  OG       -57.1370   -8.8340   83.7550 O.3   159  SER159     -0.2180
     14  N        -49.7730    5.6450   80.1810 N.3   265  GLY265     -0.1210
     15  CA       -49.2160    4.3550   80.5290 C.3   265  GLY265      0.1956
     16  C        -50.3300    3.4000   80.8820 C.2   265  GLY265      0.2612
     17  O        -51.5250    3.7360   80.7700 O.2   265  GLY265     -0.2717
     18  N        -49.9340    2.2060   81.3260 N.am  266  GLY266     -0.1942
     19  CA       -50.8730    1.2130   81.8330 C.3   266  GLY266      0.2014
     20  C        -50.8870   -0.0030   80.9320 C.2   266  GLY266      0.2639
     21  O        -51.1910   -1.1380   81.3670 O.2   266  GLY266     -0.2714
     22  N        -50.4820    0.2420   79.6850 N.am  267  ALA267     -0.1963
     23  CA       -50.5920   -0.6790   78.5680 C.3   267  ALA267      0.1713
     24  C        -49.5450   -0.2970   77.5260 C.2   267  ALA267      0.2458
     25  O        -49.0450    0.8260   77.5330 O.2   267  ALA267     -0.2730
     26  CB       -51.9800   -0.6120   77.9720 C.3   267  ALA267      0.0333
     27  N        -49.1610   -1.2220   76.6170 N.am  268  PRO268     -0.2716
     28  CA       -48.0590   -0.9660   75.6960 C.3   268  PRO268      0.1536
     29  C        -48.4810    0.0830   74.6660 C.2   268  PRO268      0.2598
     30  O        -49.6220    0.1620   74.3190 O.2   268  PRO268     -0.2715
     31  CB       -47.7240   -2.3250   75.0870 C.3   268  PRO268      0.0310
     32  CG       -48.5100   -3.3270   75.9420 C.3   268  PRO268      0.0237
     33  CD       -49.7220   -2.5660   76.4390 C.3   268  PRO268      0.0939
     34  N        -47.5140    0.9010   74.2460 N.am  269  ALA269     -0.1978
     35  CA       -47.7320    2.0660   73.4150 C.3   269  ALA269      0.1597
     36  C        -47.2750    1.7250   72.0040 C.2   269  ALA269      0.2287
     37  O        -46.4240    0.8740   71.8150 O.2   269  ALA269     -0.2864
     38  CB       -46.9340    3.2190   73.9770 C.3   269  ALA269      0.0319
     39  N        -44.2150    8.9050   79.8210 N.3   287  GLN287     -0.1231
     40  CA       -44.7640    7.5910   79.9150 C.3   287  GLN287      0.1698
     41  C        -44.4510    7.0260   81.2990 C.2   287  GLN287      0.2592
     42  O        -43.4190    7.3610   81.8790 O.2   287  GLN287     -0.2718
     43  CB       -44.2250    6.6830   78.8130 C.3   287  GLN287      0.0381
     44  CG       -45.1130    5.4650   78.5470 C.3   287  GLN287      0.0905
     45  CD       -44.4480    4.4860   77.6120 C.2   287  GLN287      0.2608
     46  OE1      -43.9550    3.4410   78.0410 O.2   287  GLN287     -0.2717
     47  NE2      -44.4060    4.8450   76.3390 N.am  287  GLN287     -0.0878
     48  N        -45.3840    6.2140   81.8210 N.am  288  ASN288     -0.1960
     49  CA       -45.2690    5.5770   83.1150 C.3   288  ASN288      0.1819
     50  C        -45.5160    4.0910   82.9230 C.2   288  ASN288      0.2621
     51  O        -46.4320    3.7490   82.2210 O.2   288  ASN288     -0.2715
     52  CB       -46.2940    6.0970   84.1280 C.3   288  ASN288      0.1195
     53  CG       -45.9330    7.4190   84.7760 C.2   288  ASN288      0.2630
     54  OD1      -45.0170    8.1070   84.3450 O.2   288  ASN288     -0.2716
     55  ND2      -46.6560    7.7880   85.8060 N.am  288  ASN288     -0.0877
     56  N        -44.6830    3.2610   83.5540 N.am  289  TYR289     -0.1960
     57  CA       -44.8000    1.8210   83.5920 C.3   289  TYR289      0.1771
     58  C        -44.9680    1.3940   85.0390 C.2   289  TYR289      0.2620
     59  O        -44.1840    1.7820   85.8910 O.2   289  TYR289     -0.2715
     60  CB       -43.5640    1.1510   82.9950 C.3   289  TYR289      0.0574
     61  CG       -43.3380   -0.3140   83.3140 C.ar  289  TYR289     -0.0198
     62  CD1      -44.3580   -1.2450   83.2180 C.ar  289  TYR289     -0.0009
     63  CD2      -42.0680   -0.7750   83.6440 C.ar  289  TYR289     -0.0009
     64  CE1      -44.1330   -2.5860   83.4760 C.ar  289  TYR289      0.0417
     65  CE2      -41.8180   -2.1110   83.8990 C.ar  289  TYR289      0.0417
     66  CZ       -42.8590   -3.0240   83.8290 C.ar  289  TYR289      0.1957
     67  OH       -42.5940   -4.3390   84.1260 O.3   289  TYR289     -0.2866
     68  N        -46.0120    0.6060   85.2850 N.am  290  GLY290     -0.1940
     69  CA       -46.2890    0.0030   86.5590 C.3   290  GLY290      0.2014
     70  C        -47.0920   -1.2660   86.3550 C.2   290  GLY290      0.2640
     71  O        -47.4420   -1.6150   85.2450 O.2   290  GLY290     -0.2714
     72  N        -47.2820   -2.0070   87.4420 N.am  291  THR291     -0.1936
     73  CA       -48.1160   -3.1760   87.4930 C.3   291  THR291      0.2028
     74  C        -48.9430   -3.0350   88.7670 C.2   291  THR291      0.2642
     75  O        -48.6300   -2.1990   89.6210 O.2   291  THR291     -0.2714
     76  CB       -47.2830   -4.4660   87.4540 C.3   291  THR291      0.1808
     77  OG1      -46.9150   -4.8950   88.7650 O.3   291  THR291     -0.2208
     78  CG2      -46.0160   -4.3420   86.6380 C.3   291  THR291      0.0379
     79  N        -49.9940   -3.8460   88.8870 N.am  292  GLN292     -0.1963
     80  CA       -50.8020   -3.8550   90.0870 C.3   292  GLN292      0.1733
     81  C        -49.9360   -4.1730   91.3040 C.2   292  GLN292      0.2616
     82  O        -50.0740   -3.5460   92.3240 O.2   292  GLN292     -0.2715
     83  CB       -51.9430   -4.8560   89.9340 C.3   292  GLN292      0.0408
     84  CG       -53.0950   -4.3170   89.1040 C.3   292  GLN292      0.0908
     85  CD       -54.1380   -3.6300   89.9520 C.2   292  GLN292      0.2608
     86  OE1      -53.8310   -2.8810   90.8910 O.2   292  GLN292     -0.2717
     87  NE2      -55.3820   -3.9170   89.6190 N.am  292  GLN292     -0.0878
     88  N        -49.0220   -5.1290   91.1470 N.am  293  GLU293     -0.1977
     89  CA       -48.1890   -5.6290   92.2090 C.3   293  GLU293      0.1602
     90  C        -47.0190   -4.6770   92.5070 C.2   293  GLU293      0.2287
     91  O        -46.5780   -4.5850   93.6370 O.2   293  GLU293     -0.2864
     92  CB       -47.6190   -6.9980   91.8380 C.3   293  GLU293      0.0415
     93  CG       -48.6540   -8.1000   91.7260 C.3   293  GLU293      0.1163
     94  CD       -49.2940   -8.2320   90.3550 C.2   293  GLU293      0.3649
     95  OE1      -49.1530   -7.2960   89.5490 O.co2 293  GLU293     -0.2457
     96  OE2      -49.9090   -9.2780   90.0870 O.co2 293  GLU293     -0.2457
     97  N        -39.7280    1.9860   78.2740 N.3   314  VAL314     -0.1245
     98  CA       -40.5960    2.4480   79.3710 C.3   314  VAL314      0.1561
     99  C        -39.8620    3.5060   80.1810 C.2   314  VAL314      0.2260
    100  O        -40.4830    4.2710   80.9120 O.2   314  VAL314     -0.2867
    101  CB       -41.0510    1.2980   80.2790 C.3   314  VAL314      0.0252
    102  CG1      -42.1430    0.4620   79.6000 C.3   314  VAL314      0.0019
    103  CG2      -39.8770    0.4420   80.7730 C.3   314  VAL314      0.0019
    104  N        -43.3790   -9.3890   83.3400 N.3   372  ASP372     -0.1239
    105  CA       -42.9360   -8.8430   82.1100 C.3   372  ASP372      0.1674
    106  C        -41.5670   -9.4190   81.8000 C.2   372  ASP372      0.2266
    107  O        -40.8760   -9.9090   82.6880 O.2   372  ASP372     -0.2867
    108  CB       -42.8860   -7.3160   82.1810 C.3   372  ASP372      0.1410
    109  CG       -44.2630   -6.7070   82.2340 C.2   372  ASP372      0.3668
    110  OD1      -45.1530   -7.2400   81.5390 O.co2 372  ASP372     -0.2456
    111  OD2      -44.4350   -5.7320   82.9790 O.co2 372  ASP372     -0.2456
    112  N        -39.4990   -3.3400   77.3890 N.3   384  LEU384     -0.1245
    113  CA       -40.3320   -4.5440   77.5470 C.3   384  LEU384      0.1561
    114  C        -40.5710   -5.1580   76.1770 C.2   384  LEU384      0.2260
    115  O        -41.1620   -4.5180   75.3240 O.2   384  LEU384     -0.2867
    116  CB       -41.6730   -4.1730   78.1880 C.3   384  LEU384      0.0270
    117  CG       -41.5600   -3.4360   79.5220 C.3   384  LEU384      0.0019
    118  CD1      -42.9460   -3.1400   80.0630 C.3   384  LEU384      0.0001
    119  CD2      -40.7240   -4.2530   80.5060 C.3   384  LEU384      0.0001
    120  N        -45.2570   -9.2340   77.8390 N.3   387  ARG387     -0.1245
    121  CA       -45.8130   -9.9850   78.9720 C.3   387  ARG387      0.1563
    122  C        -45.4290  -11.4630   78.7900 C.2   387  ARG387      0.2260
    123  O        -45.3140  -11.9580   77.7000 O.2   387  ARG387     -0.2867
    124  CB       -47.3140   -9.7110   79.0150 C.3   387  ARG387      0.0307
    125  CG       -48.0240  -10.0260   80.3150 C.3   387  ARG387      0.0489
    126  CD       -47.6810   -9.0820   81.4670 C.3   387  ARG387      0.2205
    127  NE       -48.1780   -9.6470   82.7280 N.pl3 387  ARG387     -0.0865
    128  CZ       -48.1450   -9.0430   83.9000 C.cat 387  ARG387      0.5346
    129  NH1      -47.6440   -7.8290   83.9900 N.pl3 387  ARG387      0.1354
    130  NH2      -48.5810   -9.6660   84.9770 N.pl3 387  ARG387      0.1354
    131  N        -44.6490   -8.2230   71.1340 N.3   402  ARG402     -0.1245
    132  CA       -44.6020   -6.7610   71.0740 C.3   402  ARG402      0.1563
    133  C        -43.6110   -6.2910   70.0000 C.2   402  ARG402      0.2260
    134  O        -43.8540   -5.2530   69.3760 O.2   402  ARG402     -0.2867
    135  CB       -44.2790   -6.1320   72.4310 C.3   402  ARG402      0.0307
    136  CG       -45.4710   -6.0570   73.3640 C.3   402  ARG402      0.0489
    137  CD       -45.1120   -5.3250   74.6230 C.3   402  ARG402      0.2205
    138  NE       -45.9790   -5.6890   75.7320 N.pl3 402  ARG402     -0.0865
    139  CZ       -45.7860   -5.2360   76.9580 C.cat 402  ARG402      0.5346
    140  NH1      -44.7820   -4.3920   77.1720 N.pl3 402  ARG402      0.1354
    141  NH2      -46.5650   -5.6350   77.9480 N.pl3 402  ARG402      0.1354
    142  N        -59.8950   -3.3020   82.4450 N.3   476  ALA476     -0.1245
    143  CA       -58.8370   -2.3650   82.8700 C.3   476  ALA476      0.1562
    144  C        -58.4020   -1.4520   81.7060 C.2   476  ALA476      0.2260
    145  O        -57.7630   -0.4190   81.9340 O.2   476  ALA476     -0.2867
    146  CB       -57.6640   -3.1420   83.4350 C.3   476  ALA476      0.0290
    147  N        -56.6350   -2.7580   78.8420 N.3   478  ALA478     -0.1245
    148  CA       -55.4440   -3.3330   78.2280 C.3   478  ALA478      0.1562
    149  C        -55.8360   -4.1950   77.0220 C.2   478  ALA478      0.2260
    150  O        -56.9870   -4.6130   76.9220 O.2   478  ALA478     -0.2867
    151  CB       -54.7070   -4.1230   79.2790 C.3   478  ALA478      0.0290
@<TRIPOS>BOND
     1   134   133    2
     2   133   132    1
     3   132   131    1
     4   132   135    1
     5    37    36    2
     6    36    35    1
     7   135   136    1
     8   136   137    1
     9    35    38    1
    10    35    34    1
    11    34    29   am
    12    30    29    2
    13   137   138    1
    14    29    28    1
    15    31    28    1
    16    31    32    1
    17   115   114    2
    18    28    27    1
    19   138   139    2
    20    32    33    1
    21   114   113    1
    22    47    45   am
    23    33    27    1
    24    27    24   am
    25   150   149    2
    26   139   140    1
    27   139   141    1
    28   149   148    1
    29   112   113    1
    30    24    25    2
    31    24    23    1
    32   113   116    1
    33    45    46    2
    34    45    44    1
    35   123   122    2
    36   120   121    1
    37    26    23    1
    38   116   117    1
    39   148   147    1
    40   148   151    1
    41    97    98    1
    42    44    43    1
    43    23    22    1
    44   122   121    1
    45    43    40    1
    46   121   124    1
    47   124   125    1
    48    98    99    1
    49    98   101    1
    50   117   118    1
    51   117   119    1
    52   102   101    1
    53    22    20   am
    54    39    40    1
    55    40    41    1
    56    14    15    1
    57    99   100    2
    58   101   103    1
    59   125   126    1
    60    15    16    1
    61    17    16    2
    62    16    18   am
    63    20    21    2
    64    20    19    1
    65    41    48   am
    66    41    42    2
    67    18    19    1
    68   126   127    1
    69   110   109   ar
    70   144   145    2
    71   144   143    1
    72   106   105    1
    73   106   107    2
    74    48    49    1
    75   105   108    1
    76   105   104    1
    77   108   109    1
    78    51    50    2
    79   109   111   ar
    80   142   143    1
    81   127   128    2
    82   143   146    1
    83    50    49    1
    84    50    56   am
    85    60    61    1
    86    60    57    1
    87    49    52    1
    88    62    61   ar
    89    62    64   ar
    90    61    63   ar
    91    64    66   ar
    92    56    57    1
    93    57    58    1
    94    63    65   ar
    95    13    12    1
    96    66    65   ar
    97    66    67    1
    98   128   129    1
    99   128   130    1
   100    12     9    1
   101    52    53    1
   102    54    53    2
   103    53    55   am
   104    58    68   am
   105    58    59    2
   106    11    10    2
   107    71    70    2
   108    68    69    1
   109    10     9    1
   110     9     8    1
   111    70    69    1
   112    70    72   am
   113     8     3   am
   114    78    76    1
   115    72    73    1
   116    76    73    1
   117    76    77    1
   118     7     5    1
   119    73    74    1
   120     3     4    2
   121     3     2    1
   122     2     5    1
   123     2     1    1
   124     5     6    1
   125    74    79   am
   126    74    75    2
   127    79    80    1
   128    84    83    1
   129    84    85    1
   130    95    94   ar
   131    87    85   am
   132    83    80    1
   133    85    86    2
   134    80    81    1
   135    96    94   ar
   136    94    93    1
   137    88    81   am
   138    88    89    1
   139    81    82    2
   140    93    92    1
   141    92    89    1
   142    89    90    1
   143    90    91    2
