@<TRIPOS>MOLECULE
tmp/6h1bE00.pdb
 143 134 0 0 0
SMALL
GASTEIGER

@<TRIPOS>ATOM
      1  N        -77.4140  -10.7810   21.2330 N.3   153  THR153     -0.1218
      2  CA       -78.7920  -10.6730   20.6760 C.3   153  THR153      0.1862
      3  C        -79.0700  -11.7480   19.6090 C.2   153  THR153      0.2287
      4  O        -78.1570  -12.3250   19.0340 O.2   153  THR153     -0.2866
      5  CB       -79.0300   -9.2150   20.2410 C.3   153  THR153      0.1770
      6  OG1      -80.4100   -9.0560   19.9100 O.3   153  THR153     -0.2211
      7  CG2      -78.1650   -8.7680   19.0790 C.3   153  THR153      0.0375
      8  N        -93.8320   -3.2350   27.1400 N.3   263  GLY263     -0.1210
      9  CA       -93.1670   -3.0560   25.8620 C.3   263  GLY263      0.1956
     10  C        -92.2560   -4.2260   25.5660 C.2   263  GLY263      0.2612
     11  O        -92.1860   -5.1490   26.3410 O.2   263  GLY263     -0.2717
     12  N        -91.6070   -4.1930   24.4080 N.am  264  GLY264     -0.1942
     13  CA       -90.6510   -5.2280   24.0350 C.3   264  GLY264      0.2014
     14  C        -91.1520   -6.0570   22.8690 C.2   264  GLY264      0.2639
     15  O        -90.3380   -6.7420   22.2000 O.2   264  GLY264     -0.2714
     16  N        -92.4710   -5.9520   22.6470 N.am  265  ALA265     -0.1963
     17  CA       -93.1840   -6.6150   21.5750 C.3   265  ALA265      0.1713
     18  C        -94.3900   -5.7670   21.1700 C.2   265  ALA265      0.2458
     19  O        -94.8180   -4.9050   21.9260 O.2   265  ALA265     -0.2730
     20  CB       -93.6090   -7.9840   22.0400 C.3   265  ALA265      0.0333
     21  N        -95.0020   -5.9940   19.9870 N.am  266  PRO266     -0.2716
     22  CA       -96.1630   -5.2150   19.5610 C.3   266  PRO266      0.1536
     23  C        -97.3620   -5.5470   20.4500 C.2   266  PRO266      0.2598
     24  O        -97.4520   -6.6730   20.9740 O.2   266  PRO266     -0.2715
     25  CB       -96.3900   -5.6350   18.1060 C.3   266  PRO266      0.0310
     26  CG       -95.1290   -6.4000   17.7090 C.3   266  PRO266      0.0237
     27  CD       -94.6370   -7.0180   18.9940 C.3   266  PRO266      0.0939
     28  N        -98.2330   -4.5560   20.6370 N.am  267  ALA267     -0.1978
     29  CA       -99.3870   -4.6950   21.5110 C.3   267  ALA267      0.1597
     30  C       -100.6390   -4.9550   20.6780 C.2   267  ALA267      0.2287
     31  O       -100.7090   -4.5490   19.5570 O.2   267  ALA267     -0.2864
     32  CB       -99.5480   -3.4600   22.3380 C.3   267  ALA267      0.0319
     33  N        -96.6190    2.5310   27.6680 N.3   285  GLN285     -0.1231
     34  CA       -95.9200    1.6580   26.7590 C.3   285  GLN285      0.1698
     35  C        -94.5330    2.2580   26.4860 C.2   285  GLN285      0.2592
     36  O        -94.3660    3.4740   26.4950 O.2   285  GLN285     -0.2718
     37  CB       -96.7210    1.4480   25.4700 C.3   285  GLN285      0.0381
     38  CG       -96.3210    0.1840   24.7290 C.3   285  GLN285      0.0905
     39  CD       -96.9570    0.0720   23.3710 C.2   285  GLN285      0.2608
     40  OE1      -96.3130    0.2570   22.3450 O.2   285  GLN285     -0.2717
     41  NE2      -98.2450   -0.1950   23.3660 N.am  285  GLN285     -0.0878
     42  N        -93.5530    1.3750   26.2890 N.am  286  ASN286     -0.1960
     43  CA       -92.1800    1.7210   26.0210 C.3   286  ASN286      0.1819
     44  C        -91.7630    0.9470   24.7780 C.2   286  ASN286      0.2621
     45  O        -92.0380   -0.2280   24.6880 O.2   286  ASN286     -0.2715
     46  CB       -91.2270    1.3410   27.1620 C.3   286  ASN286      0.1195
     47  CG       -91.1880    2.3320   28.3090 C.2   286  ASN286      0.2630
     48  OD1      -92.0490    3.2050   28.4260 O.2   286  ASN286     -0.2716
     49  ND2      -90.2200    2.1860   29.1940 N.am  286  ASN286     -0.0877
     50  N        -91.0820    1.6320   23.8630 N.am  287  TYR287     -0.1960
     51  CA       -90.4580    1.0570   22.6850 C.3   287  TYR287      0.1771
     52  C        -88.9510    1.3100   22.7520 C.2   287  TYR287      0.2620
     53  O        -88.5300    2.4240   22.9620 O.2   287  TYR287     -0.2715
     54  CB       -91.0380    1.6920   21.4260 C.3   287  TYR287      0.0574
     55  CG       -90.2790    1.4770   20.1430 C.ar  287  TYR287     -0.0198
     56  CD1      -89.7770    0.2330   19.7820 C.ar  287  TYR287     -0.0009
     57  CD2      -90.0960    2.5330   19.2570 C.ar  287  TYR287     -0.0009
     58  CE1      -89.0980    0.0530   18.5840 C.ar  287  TYR287      0.0417
     59  CE2      -89.4130    2.3710   18.0620 C.ar  287  TYR287      0.0417
     60  CZ       -88.9240    1.1230   17.7190 C.ar  287  TYR287      0.1957
     61  OH       -88.2680    0.9750   16.5360 O.3   287  TYR287     -0.2866
     62  N        -88.1760    0.2400   22.5950 N.am  288  GLY288     -0.1940
     63  CA       -86.7420    0.2740   22.5010 C.3   288  GLY288      0.2014
     64  C        -86.2240   -0.9130   21.7220 C.2   288  GLY288      0.2640
     65  O        -87.0020   -1.7500   21.3020 O.2   288  GLY288     -0.2714
     66  N        -84.9120   -0.9350   21.4740 N.am  289  THR289     -0.1936
     67  CA       -84.2170   -2.0780   20.9120 C.3   289  THR289      0.2028
     68  C        -82.9590   -2.2660   21.7540 C.2   289  THR289      0.2642
     69  O        -82.6050   -1.3960   22.5140 O.2   289  THR289     -0.2714
     70  CB       -83.9320   -1.8950   19.4140 C.3   289  THR289      0.1808
     71  OG1      -82.6800   -1.2430   19.1950 O.3   289  THR289     -0.2208
     72  CG2      -84.9910   -1.0820   18.7040 C.3   289  THR289      0.0379
     73  N        -82.2800   -3.3980   21.5990 N.am  290  GLN290     -0.1976
     74  CA       -81.0110   -3.6320   22.2770 C.3   290  GLN290      0.1601
     75  C        -80.0020   -2.5470   21.8850 C.2   290  GLN290      0.2287
     76  O        -79.2920   -2.0590   22.7280 O.2   290  GLN290     -0.2864
     77  CB       -80.5260   -5.0330   21.9390 C.3   290  GLN290      0.0394
     78  CG       -81.2040   -6.0820   22.8230 C.3   290  GLN290      0.0908
     79  CD       -80.2710   -6.5210   23.9200 C.2   290  GLN290      0.2608
     80  OE1      -79.2180   -7.0790   23.6280 O.2   290  GLN290     -0.2717
     81  NE2      -80.6420   -6.3060   25.1790 N.am  290  GLN290     -0.0878
     82  N        -96.5650    3.5770   19.3870 N.3   312  VAL312     -0.1245
     83  CA       -95.5260    3.3660   20.4240 C.3   312  VAL312      0.1561
     84  C        -95.3430    4.6570   21.2270 C.2   312  VAL312      0.2260
     85  O        -94.7970    4.6430   22.3410 O.2   312  VAL312     -0.2867
     86  CB       -94.1720    2.9080   19.8410 C.3   312  VAL312      0.0252
     87  CG1      -94.2050    1.4590   19.3840 C.3   312  VAL312      0.0019
     88  CG2      -93.6890    3.8090   18.7140 C.3   312  VAL312      0.0019
     89  N        -82.8720    0.8400   13.3640 N.3   368  THR368     -0.1218
     90  CA       -83.5280    0.0080   14.3820 C.3   368  THR368      0.1862
     91  C        -83.8790   -1.3810   13.8390 C.2   368  THR368      0.2287
     92  O        -83.8690   -2.3500   14.5900 O.2   368  THR368     -0.2866
     93  CB       -84.8320    0.6290   14.8960 C.3   368  THR368      0.1770
     94  OG1      -85.7290    0.7710   13.7950 O.3   368  THR368     -0.2211
     95  CG2      -84.6360    1.9860   15.5410 C.3   368  THR368      0.0375
     96  N        -86.8570   -1.7220   12.3320 N.3   370  ASP370     -0.1239
     97  CA       -88.2780   -1.6410   12.3600 C.3   370  ASP370      0.1674
     98  C        -88.6860   -0.7090   11.2230 C.2   370  ASP370      0.2266
     99  O        -87.8620    0.0560   10.6870 O.2   370  ASP370     -0.2867
    100  CB       -88.7710   -1.1080   13.6970 C.3   370  ASP370      0.1410
    101  CG       -88.5000   -2.0610   14.8480 C.2   370  ASP370      0.3668
    102  OD1      -88.5890   -3.3000   14.6330 O.co2 370  ASP370     -0.2456
    103  OD2      -88.1820   -1.5560   15.9560 O.co2 370  ASP370     -0.2456
    104  N        -95.5040    1.5410   14.4400 N.3   382  LEU382     -0.1245
    105  CA       -94.6800    0.5020   13.7930 C.3   382  LEU382      0.1561
    106  C        -95.5690   -0.4410   12.9770 C.2   382  LEU382      0.2260
    107  O        -96.4250   -1.0760   13.5130 O.2   382  LEU382     -0.2867
    108  CB       -93.9080   -0.2950   14.8460 C.3   382  LEU382      0.0270
    109  CG       -93.0120    0.5310   15.7540 C.3   382  LEU382      0.0019
    110  CD1      -92.2510   -0.3510   16.7280 C.3   382  LEU382      0.0001
    111  CD2      -92.0370    1.3700   14.9600 C.3   382  LEU382      0.0001
    112  N        -91.3780   -5.3600   10.6920 N.3   385  ARG385     -0.1245
    113  CA       -89.9920   -5.7190   11.0350 C.3   385  ARG385      0.1563
    114  C        -89.2370   -6.1280    9.7640 C.2   385  ARG385      0.2260
    115  O        -89.7210   -6.9210    8.9870 O.2   385  ARG385     -0.2867
    116  CB       -89.9180   -6.9270   11.9910 C.3   385  ARG385      0.0307
    117  CG       -90.7720   -6.7680   13.2370 C.3   385  ARG385      0.0489
    118  CD       -90.3320   -7.6900   14.3580 C.3   385  ARG385      0.2205
    119  NE       -91.0800   -8.9410   14.3710 N.pl3 385  ARG385     -0.0865
    120  CZ       -92.3450   -9.0500   14.7470 C.cat 385  ARG385      0.5346
    121  NH1      -93.0520   -7.9530   14.9840 N.pl3 385  ARG385      0.1354
    122  NH2      -92.8850  -10.2520   14.9050 N.pl3 385  ARG385      0.1354
    123  N        -91.4270  -12.8830   17.7600 N.3   391  ILE391     -0.1245
    124  CA       -91.2610  -12.3250   19.1180 C.3   391  ILE391      0.1561
    125  C        -92.1180  -13.1060   20.1040 C.2   391  ILE391      0.2260
    126  O        -93.2600  -13.2970   19.8750 O.2   391  ILE391     -0.2867
    127  CB       -91.5670  -10.8170   19.1800 C.3   391  ILE391      0.0252
    128  CG1      -90.7980  -10.0320   18.1230 C.3   391  ILE391      0.0019
    129  CG2      -91.2690  -10.2760   20.5510 C.3   391  ILE391      0.0019
    130  CD1      -91.1100   -8.5810   18.1180 C.3   391  ILE391      0.0001
    131  N        -91.5170  -10.9890   24.3860 N.3   394  ALA394     -0.1245
    132  CA       -90.6960   -9.7950   24.2290 C.3   394  ALA394      0.1562
    133  C        -89.2600  -10.0800   23.7710 C.2   394  ALA394      0.2260
    134  O        -88.4310   -9.1670   23.8100 O.2   394  ALA394     -0.2867
    135  CB       -90.6920   -9.0330   25.5330 C.3   394  ALA394      0.0290
    136  N        -86.5850  -11.9780   20.8010 N.3   396  ASN396     -0.1240
    137  CA       -86.6550  -12.1210   19.3460 C.3   396  ASN396      0.1653
    138  C        -86.0420  -13.4630   18.9420 C.2   396  ASN396      0.2266
    139  O        -84.9030  -13.7520   19.2790 O.2   396  ASN396     -0.2867
    140  CB       -85.9080  -10.9910   18.6320 C.3   396  ASN396      0.1155
    141  CG       -86.4130   -9.5880   18.9190 C.2   396  ASN396      0.2627
    142  OD1      -85.7590   -8.6210   18.5330 O.2   396  ASN396     -0.2716
    143  ND2      -87.5320   -9.4460   19.6250 N.am  396  ASN396     -0.0877
@<TRIPOS>BOND
     1   115   114    2
     2   114   113    1
     3    99    98    2
     4   112   113    1
     5   113   116    1
     6    98    97    1
     7   116   117    1
     8    96    97    1
     9    97   100    1
    10   106   107    2
    11   106   105    1
    12   117   118    1
    13    89    90    1
    14   100   101    1
    15   105   104    1
    16   105   108    1
    17    94    93    1
    18    91    90    1
    19    91    92    2
    20   118   119    1
    21   119   120    2
    22    90    93    1
    23   102   101   ar
    24   120   122    1
    25   120   121    1
    26   108   109    1
    27   101   103   ar
    28    93    95    1
    29   111   109    1
    30   109   110    1
    31    61    60    1
    32    26    25    1
    33    26    27    1
    34    60    59   ar
    35    60    58   ar
    36   123   124    1
    37    59    57   ar
    38    25    22    1
    39   130   128    1
    40   128   127    1
    41   142   141    2
    42    58    56   ar
    43   140   141    1
    44   140   137    1
    45    72    70    1
    46    88    86    1
    47   141   143   am
    48   138   139    2
    49   138   137    1
    50    27    21    1
    51     4     3    2
    52     7     5    1
    53   124   127    1
    54   124   125    1
    55   127   129    1
    56    71    70    1
    57    57    55   ar
    58   137   136    1
    59    87    86    1
    60    82    83    1
    61    70    67    1
    62    31    30    2
    63    22    21    1
    64    22    23    1
    65     3     2    1
    66    56    55   ar
    67    86    83    1
    68   126   125    2
    69     6     5    1
    70    21    18   am
    71    55    54    1
    72     5     2    1
    73    83    84    1
    74    23    28   am
    75    23    24    2
    76    28    29    1
    77     2     1    1
    78    30    29    1
    79    67    66    1
    80    67    68    1
    81    18    17    1
    82    18    19    2
    83    84    85    2
    84    65    64    2
    85    54    51    1
    86    66    64   am
    87    29    32    1
    88    17    20    1
    89    17    16    1
    90    73    68   am
    91    73    74    1
    92    64    63    1
    93    68    69    2
    94    75    74    1
    95    75    76    2
    96    77    74    1
    97    77    78    1
    98    15    14    2
    99    40    39    2
   100    63    62    1
   101    62    52   am
   102    16    14   am
   103    51    52    1
   104    51    50    1
   105    52    53    2
   106    78    79    1
   107    14    13    1
   108    41    39   am
   109    39    38    1
   110    80    79    2
   111   133   134    2
   112   133   132    1
   113    50    44   am
   114    79    81   am
   115    13    12    1
   116   132   131    1
   117   132   135    1
   118    12    10   am
   119    45    44    2
   120    38    37    1
   121    44    43    1
   122    37    34    1
   123    10     9    1
   124    10    11    2
   125     9     8    1
   126    43    42    1
   127    43    46    1
   128    42    35   am
   129    35    36    2
   130    35    34    1
   131    34    33    1
   132    46    47    1
   133    47    48    2
   134    47    49   am
