@<TRIPOS>MOLECULE
tmp/6h1bC01.pdb
 116 111 0 0 0
SMALL
GASTEIGER

@<TRIPOS>ATOM
      1  N        -51.7330   -3.5120   99.1340 N.3   166  HIS166     -0.1241
      2  CA       -50.7310   -2.4660   99.2120 C.3   166  HIS166      0.1621
      3  C        -50.7340   -1.8340  100.5980 C.2   166  HIS166      0.2264
      4  O        -51.7770   -1.4130  101.0810 O.2   166  HIS166     -0.2867
      5  CB       -50.9560   -1.3890   98.1430 C.3   166  HIS166      0.0745
      6  CG       -50.0810   -1.5840   96.9570 C.ar  166  HIS166      0.0817
      7  ND1      -50.5650   -2.1420   95.8020 N.ar  166  HIS166     -0.2268
      8  CD2      -48.7560   -1.3530   96.7810 C.ar  166  HIS166      0.1154
      9  CE1      -49.5620   -2.2480   94.9500 C.ar  166  HIS166      0.1986
     10  NE2      -48.4380   -1.7850   95.5400 N.ar  166  HIS166     -0.2212
     11  N        -47.9100    3.1580   99.6600 N.3   171  MET171     -0.1245
     12  CA       -48.6870    4.2070   99.0330 C.3   171  MET171      0.1570
     13  C        -48.0490    5.5630   99.3230 C.2   171  MET171      0.2261
     14  O        -48.1870    6.4820   98.5240 O.2   171  MET171     -0.2867
     15  CB       -50.1460    4.2070   99.4900 C.3   171  MET171      0.0387
     16  CG       -50.9750    3.0660   98.9140 C.3   171  MET171      0.0595
     17  SD       -50.5610    2.6160   97.2040 S.3   171  MET171     -0.1393
     18  CE       -52.2080    2.3960   96.5210 C.3   171  MET171      0.0692
     19  N        -45.2330    5.9780   96.8520 N.3   174  CYS174     -0.1235
     20  CA       -45.7930    6.3580   95.5680 C.3   174  CYS174      0.1677
     21  C        -45.9140    7.8850   95.4590 C.2   174  CYS174      0.2270
     22  O        -45.7650    8.4340   94.3930 O.2   174  CYS174     -0.2867
     23  CB       -47.1540    5.7120   95.3370 C.3   174  CYS174      0.0956
     24  SG       -47.0350    3.9230   95.0610 S.3   174  CYS174     -0.0801
     25  N        -55.8170    3.5250   89.6380 N.3   197  LEU197     -0.1245
     26  CA       -54.6840    4.4370   89.6690 C.3   197  LEU197      0.1561
     27  C        -55.1340    5.8990   89.8070 C.2   197  LEU197      0.2260
     28  O        -54.5030    6.6910   90.4920 O.2   197  LEU197     -0.2867
     29  CB       -53.8550    4.2520   88.4000 C.3   197  LEU197      0.0270
     30  CG       -52.6510    5.1850   88.2500 C.3   197  LEU197      0.0019
     31  CD1      -51.7020    5.0750   89.4430 C.3   197  LEU197      0.0001
     32  CD2      -51.9120    4.8630   86.9530 C.3   197  LEU197      0.0001
     33  N        -55.2650    7.0240   93.3390 N.3   200  GLU200     -0.1245
     34  CA       -53.9640    7.2010   93.9450 C.3   200  GLU200      0.1567
     35  C        -53.3400    8.5090   93.4270 C.2   200  GLU200      0.2260
     36  O        -52.6790    9.2270   94.1520 O.2   200  GLU200     -0.2867
     37  CB       -53.1180    5.9510   93.6890 C.3   200  GLU200      0.0388
     38  CG       -51.7030    6.0680   94.2300 C.3   200  GLU200      0.1160
     39  CD       -51.5990    6.2490   95.7340 C.2   200  GLU200      0.3649
     40  OE1      -52.3970    5.5610   96.4760 O.co2 200  GLU200     -0.2457
     41  OE2      -50.7200    7.0660   96.1750 O.co2 200  GLU200     -0.2457
     42  N        -53.3340   12.4250   83.0980 N.3   236  PHE236     -0.1241
     43  CA       -52.9900   11.0290   82.9200 C.3   236  PHE236      0.1605
     44  C        -54.0100   10.4040   81.9790 C.2   236  PHE236      0.2264
     45  O        -55.2020   10.4310   82.2570 O.2   236  PHE236     -0.2867
     46  CB       -52.9560   10.2440   84.2290 C.3   236  PHE236      0.0534
     47  CG       -52.2410    8.9240   84.1120 C.ar  236  PHE236     -0.0203
     48  CD1      -52.8530    7.8460   83.5010 C.ar  236  PHE236     -0.0042
     49  CD2      -50.9650    8.7530   84.6130 C.ar  236  PHE236     -0.0042
     50  CE1      -52.2080    6.6260   83.3940 C.ar  236  PHE236     -0.0003
     51  CE2      -50.3030    7.5410   84.4980 C.ar  236  PHE236     -0.0003
     52  CZ       -50.9270    6.4820   83.8840 C.ar  236  PHE236     -0.0000
     53  N        -49.7730    5.6450   80.1810 N.3   265  GLY265     -0.1210
     54  CA       -49.2160    4.3550   80.5290 C.3   265  GLY265      0.1956
     55  C        -50.3300    3.4000   80.8820 C.2   265  GLY265      0.2612
     56  O        -51.5250    3.7360   80.7700 O.2   265  GLY265     -0.2717
     57  N        -49.9340    2.2060   81.3260 N.am  266  GLY266     -0.1956
     58  CA       -50.8730    1.2130   81.8330 C.3   266  GLY266      0.1869
     59  C        -50.8870   -0.0030   80.9320 C.2   266  GLY266      0.2309
     60  O        -51.1910   -1.1380   81.3670 O.2   266  GLY266     -0.2863
     61  N        -45.3840    6.2140   81.8210 N.3   288  ASN288     -0.1225
     62  CA       -45.2690    5.5770   83.1150 C.3   288  ASN288      0.1785
     63  C        -45.5160    4.0910   82.9230 C.2   288  ASN288      0.2597
     64  O        -46.4320    3.7490   82.2210 O.2   288  ASN288     -0.2718
     65  CB       -46.2940    6.0970   84.1280 C.3   288  ASN288      0.1169
     66  CG       -45.9330    7.4190   84.7760 C.2   288  ASN288      0.2627
     67  OD1      -45.0170    8.1070   84.3450 O.2   288  ASN288     -0.2716
     68  ND2      -46.6560    7.7880   85.8060 N.am  288  ASN288     -0.0877
     69  N        -44.6830    3.2610   83.5540 N.am  289  TYR289     -0.1962
     70  CA       -44.8000    1.8210   83.5920 C.3   289  TYR289      0.1771
     71  C        -44.9680    1.3940   85.0390 C.2   289  TYR289      0.2620
     72  O        -44.1840    1.7820   85.8910 O.2   289  TYR289     -0.2715
     73  CB       -43.5640    1.1510   82.9950 C.3   289  TYR289      0.0574
     74  CG       -43.3380   -0.3140   83.3140 C.ar  289  TYR289     -0.0198
     75  CD1      -44.3580   -1.2450   83.2180 C.ar  289  TYR289     -0.0009
     76  CD2      -42.0680   -0.7750   83.6440 C.ar  289  TYR289     -0.0009
     77  CE1      -44.1330   -2.5860   83.4760 C.ar  289  TYR289      0.0417
     78  CE2      -41.8180   -2.1110   83.8990 C.ar  289  TYR289      0.0417
     79  CZ       -42.8590   -3.0240   83.8290 C.ar  289  TYR289      0.1957
     80  OH       -42.5940   -4.3390   84.1260 O.3   289  TYR289     -0.2866
     81  N        -46.0120    0.6060   85.2850 N.am  290  GLY290     -0.1940
     82  CA       -46.2890    0.0030   86.5590 C.3   290  GLY290      0.2014
     83  C        -47.0920   -1.2660   86.3550 C.2   290  GLY290      0.2640
     84  O        -47.4420   -1.6150   85.2450 O.2   290  GLY290     -0.2714
     85  N        -47.2820   -2.0070   87.4420 N.am  291  THR291     -0.1936
     86  CA       -48.1160   -3.1760   87.4930 C.3   291  THR291      0.2028
     87  C        -48.9430   -3.0350   88.7670 C.2   291  THR291      0.2642
     88  O        -48.6300   -2.1990   89.6210 O.2   291  THR291     -0.2714
     89  CB       -47.2830   -4.4660   87.4540 C.3   291  THR291      0.1808
     90  OG1      -46.9150   -4.8950   88.7650 O.3   291  THR291     -0.2208
     91  CG2      -46.0160   -4.3420   86.6380 C.3   291  THR291      0.0379
     92  N        -49.9940   -3.8460   88.8870 N.am  292  GLN292     -0.1976
     93  CA       -50.8020   -3.8550   90.0870 C.3   292  GLN292      0.1601
     94  C        -49.9360   -4.1730   91.3040 C.2   292  GLN292      0.2287
     95  O        -50.0740   -3.5460   92.3240 O.2   292  GLN292     -0.2864
     96  CB       -51.9430   -4.8560   89.9340 C.3   292  GLN292      0.0394
     97  CG       -53.0950   -4.3170   89.1040 C.3   292  GLN292      0.0908
     98  CD       -54.1380   -3.6300   89.9520 C.2   292  GLN292      0.2608
     99  OE1      -53.8310   -2.8810   90.8910 O.2   292  GLN292     -0.2717
    100  NE2      -55.3820   -3.9170   89.6190 N.am  292  GLN292     -0.0878
    101  N        -46.6740   -1.3160   91.7050 N.3   295  ALA295     -0.1231
    102  CA       -46.9610    0.1160   91.5860 C.3   295  ALA295      0.1694
    103  C        -46.0370    0.7320   90.5240 C.2   295  ALA295      0.2592
    104  O        -45.7140    0.0630   89.5350 O.2   295  ALA295     -0.2718
    105  CB       -46.8150    0.7680   92.9240 C.3   295  ALA295      0.0304
    106  N        -45.6090    1.9910   90.6960 N.am  296  PHE296     -0.1976
    107  CA       -44.6760    2.6300   89.7610 C.3   296  PHE296      0.1639
    108  C        -43.3260    1.8870   89.7030 C.2   296  PHE296      0.2290
    109  O        -42.7540    1.4700   90.7410 O.2   296  PHE296     -0.2864
    110  CB       -44.3810    4.0620   90.1610 C.3   296  PHE296      0.0560
    111  CG       -45.5860    4.9560   90.1500 C.ar  296  PHE296     -0.0200
    112  CD1      -46.2560    5.2120   88.9790 C.ar  296  PHE296     -0.0042
    113  CD2      -46.0120    5.5880   91.2980 C.ar  296  PHE296     -0.0042
    114  CE1      -47.3440    6.0640   88.9580 C.ar  296  PHE296     -0.0003
    115  CE2      -47.1090    6.4320   91.2610 C.ar  296  PHE296     -0.0003
    116  CZ       -47.7760    6.6620   90.1000 C.ar  296  PHE296     -0.0000
@<TRIPOS>BOND
     1    53    54    1
     2    54    55    1
     3    56    55    2
     4    55    57   am
     5    59    60    2
     6    59    58    1
     7    57    58    1
     8    61    62    1
     9    44    45    2
    10    44    43    1
    11    64    63    2
    12    43    42    1
    13    43    46    1
    14    63    62    1
    15    63    69   am
    16    73    74    1
    17    73    70    1
    18    62    65    1
    19    75    74   ar
    20    75    77   ar
    21    74    76   ar
    22    50    48   ar
    23    50    52   ar
    24    77    79   ar
    25    48    47   ar
    26    69    70    1
    27    70    71    1
    28    76    78   ar
    29    79    78   ar
    30    79    80    1
    31    52    51   ar
    32    47    46    1
    33    47    49   ar
    34    65    66    1
    35    67    66    2
    36    51    49   ar
    37    66    68   am
    38    71    81   am
    39    71    72    2
    40    84    83    2
    41    81    82    1
    42    83    82    1
    43    83    85   am
    44    91    89    1
    45    32    30    1
    46    85    86    1
    47    89    86    1
    48    89    90    1
    49    86    87    1
    50    30    29    1
    51    30    31    1
    52    29    26    1
    53    87    92   am
    54    87    88    2
    55    92    93    1
    56   114   112   ar
    57   114   116   ar
    58   112   111   ar
    59    97    96    1
    60    97    98    1
    61   104   103    2
    62   100    98   am
    63    25    26    1
    64    26    27    1
    65   108   107    1
    66   108   109    2
    67   107   110    1
    68   107   106    1
    69    27    28    2
    70    96    93    1
    71    98    99    2
    72    93    94    1
    73   116   115   ar
    74   111   110    1
    75   111   113   ar
    76   103   106   am
    77   103   102    1
    78   115   113   ar
    79    94    95    2
    80   102   101    1
    81   102   105    1
    82    33    34    1
    83    35    34    1
    84    35    36    2
    85    37    34    1
    86    37    38    1
    87    38    39    1
    88    22    21    2
    89     9    10   ar
    90     9     7   ar
    91    24    23    1
    92    23    20    1
    93    21    20    1
    94    10     8   ar
    95    20    19    1
    96    39    41   ar
    97    39    40   ar
    98     7     6   ar
    99    18    17    1
   100     8     6   ar
   101     6     5    1
   102    17    16    1
   103     5     2    1
   104    14    13    2
   105    16    15    1
   106    12    13    1
   107    12    15    1
   108    12    11    1
   109     1     2    1
   110     2     3    1
   111     3     4    2
