@<TRIPOS>MOLECULE
tmp/6h1lA02.pdb
 81 73 0 0 0
SMALL
GASTEIGER

@<TRIPOS>ATOM
      1  N        -11.1870  -18.4750   18.5140 N.3    18  LEU18      -0.1245
      2  CA       -10.1870  -19.5000   18.7760 C.3    18  LEU18       0.1561
      3  C        -10.7790  -20.9040   18.7490 C.2    18  LEU18       0.2260
      4  O        -10.1870  -21.8320   19.3100 O.2    18  LEU18      -0.2867
      5  CB        -9.4950  -19.2380   20.1150 C.3    18  LEU18       0.0270
      6  CG        -8.8400  -17.8620   20.2700 C.3    18  LEU18       0.0019
      7  CD1       -8.0010  -17.8020   21.5380 C.3    18  LEU18       0.0001
      8  CD2       -8.0010  -17.5130   19.0450 C.3    18  LEU18       0.0001
      9  N         -4.8050  -21.7930   17.0790 N.3    23  PRO23      -0.2102
     10  CA        -5.1900  -20.4990   17.6700 C.3    23  PRO23       0.1504
     11  C         -4.1040  -19.4410   17.5970 C.2    23  PRO23       0.2575
     12  O         -4.4240  -18.2580   17.4270 O.2    23  PRO23      -0.2718
     13  CB        -5.5270  -20.8680   19.1220 C.3    23  PRO23       0.0282
     14  CG        -4.7380  -22.1000   19.3860 C.3    23  PRO23       0.0208
     15  CD        -4.7230  -22.8580   18.0960 C.3    23  PRO23       0.0893
     16  N         -2.8300  -19.8210   17.7430 N.am   24  VAL24      -0.1980
     17  CA        -1.7500  -18.8390   17.6410 C.3    24  VAL24       0.1595
     18  C         -1.7270  -18.2260   16.2460 C.2    24  VAL24       0.2287
     19  O         -1.6340  -17.0040   16.0830 O.2    24  VAL24      -0.2864
     20  CB        -0.3950  -19.4820   17.9960 C.3    24  VAL24       0.0276
     21  CG1        0.7380  -18.4900   17.7630 C.3    24  VAL24       0.0022
     22  CG2       -0.3890  -19.9570   19.4450 C.3    24  VAL24       0.0022
     23  N         -4.5060  -15.9300   16.0350 N.3    27  LEU27      -0.1245
     24  CA        -4.2050  -14.6810   16.7320 C.3    27  LEU27       0.1561
     25  C         -3.2260  -13.8220   15.9450 C.2    27  LEU27       0.2260
     26  O         -3.2340  -12.5920   16.0820 O.2    27  LEU27      -0.2867
     27  CB        -3.6510  -14.9690   18.1250 C.3    27  LEU27       0.0270
     28  CG        -4.6820  -15.3560   19.1840 C.3    27  LEU27       0.0019
     29  CD1       -4.0050  -16.0590   20.3490 C.3    27  LEU27       0.0001
     30  CD2       -5.4510  -14.1270   19.6600 C.3    27  LEU27       0.0001
     31  N         -3.0250   -8.5410   23.8460 N.3    49  TYR49      -0.1241
     32  CA        -1.9710   -9.1570   23.0510 C.3    49  TYR49       0.1605
     33  C         -1.0850   -8.0750   22.4440 C.2    49  TYR49       0.2264
     34  O         -1.5690   -7.2250   21.6890 O.2    49  TYR49      -0.2867
     35  CB        -2.5700  -10.0330   21.9530 C.3    49  TYR49       0.0534
     36  CG        -3.0660  -11.3730   22.4340 C.ar   49  TYR49      -0.0201
     37  CD1       -4.3040  -11.5000   23.0590 C.ar   49  TYR49      -0.0009
     38  CD2       -2.2980  -12.5150   22.2590 C.ar   49  TYR49      -0.0009
     39  CE1       -4.7550  -12.7290   23.4950 C.ar   49  TYR49       0.0417
     40  CE2       -2.7410  -13.7410   22.6880 C.ar   49  TYR49       0.0417
     41  CZ        -3.9650  -13.8450   23.3100 C.ar   49  TYR49       0.1957
     42  OH        -4.3880  -15.0800   23.7330 O.3    49  TYR49      -0.2866
     43  N         -0.8130  -17.6780   32.8490 N.3    70  SER70      -0.1217
     44  CA        -1.9630  -17.5810   31.9650 C.3    70  SER70       0.1889
     45  C         -2.9540  -18.6910   32.2830 C.2    70  SER70       0.2288
     46  O         -2.6900  -19.5520   33.1310 O.2    70  SER70      -0.2866
     47  CB        -1.5250  -17.6790   30.5070 C.3    70  SER70       0.2089
     48  OG        -0.9040  -18.9300   30.2720 O.3    70  SER70      -0.2183
     49  N         -3.7830  -21.1530   30.2630 N.3    72  ALA72      -0.1245
     50  CA        -3.1350  -22.3820   29.8290 C.3    72  ALA72       0.1562
     51  C         -2.1770  -22.9030   30.8930 C.2    72  ALA72       0.2260
     52  O         -2.1970  -24.0960   31.2230 O.2    72  ALA72      -0.2867
     53  CB        -2.4030  -22.1590   28.5050 C.3    72  ALA72       0.0290
     54  N          4.2620  -17.7900   22.8380 N.3   324  ALA324     -0.1245
     55  CA         3.7060  -16.7070   23.6350 C.3   324  ALA324      0.1562
     56  C          4.0770  -16.8940   25.0980 C.2   324  ALA324      0.2260
     57  O          4.2450  -18.0190   25.5720 O.2   324  ALA324     -0.2867
     58  CB         2.1770  -16.6200   23.4910 C.3   324  ALA324      0.0290
     59  N         -0.1490  -10.5030   26.8940 N.3   348  MET348     -0.1245
     60  CA         0.3300  -11.7030   26.2210 C.3   348  MET348      0.1570
     61  C          1.2610  -11.2890   25.0900 C.2   348  MET348      0.2261
     62  O          0.8380  -10.6110   24.1460 O.2   348  MET348     -0.2867
     63  CB        -0.8330  -12.5440   25.6930 C.3   348  MET348      0.0387
     64  CG        -0.4190  -13.9160   25.1810 C.3   348  MET348      0.0595
     65  SD        -0.0450  -15.0920   26.5000 S.3   348  MET348     -0.1393
     66  CE        -1.7040  -15.5260   27.0270 C.3   348  MET348      0.0692
     67  N          2.9840  -11.8720   21.8440 N.3   350  LEU350     -0.1245
     68  CA         2.8080  -12.7300   20.6710 C.3   350  LEU350      0.1561
     69  C          4.1220  -12.7480   19.9010 C.2   350  LEU350      0.2260
     70  O          4.3430  -11.9500   18.9870 O.2   350  LEU350     -0.2867
     71  CB         1.6490  -12.2370   19.8130 C.3   350  LEU350      0.0270
     72  CG         0.9920  -13.2710   18.8970 C.3   350  LEU350      0.0019
     73  CD1        0.2730  -14.3390   19.7130 C.3   350  LEU350      0.0001
     74  CD2        0.0290  -12.5910   17.9290 C.3   350  LEU350      0.0001
     75  N          0.4160  -27.7230   19.4010 N.3   430  THR430     -0.1218
     76  CA         0.1350  -28.5450   20.5720 C.3   430  THR430      0.1862
     77  C          0.5690  -27.7160   21.7760 C.2   430  THR430      0.2287
     78  O          0.0700  -26.6100   21.9550 O.2   430  THR430     -0.2866
     79  CB         0.8120  -29.8990   20.4650 C.3   430  THR430      0.1770
     80  OG1        2.2250  -29.7030   20.3020 O.3   430  THR430     -0.2211
     81  CG2        0.2700  -30.6760   19.2740 C.3   430  THR430      0.0375
@<TRIPOS>BOND
     1    25    26    2
     2    25    24    1
     3    23    24    1
     4    19    18    2
     5    18    17    1
     6    24    27    1
     7     9    10    1
     8     9    15    1
     9    12    11    2
    10    11    10    1
    11    11    16   am
    12    17    16    1
    13    17    20    1
    14    10    13    1
    15    21    20    1
    16    74    72    1
    17    20    22    1
    18    15    14    1
    19    27    28    1
    20     1     2    1
    21     3     2    1
    22     3     4    2
    23     2     5    1
    24    72    73    1
    25    72    71    1
    26    70    69    2
    27     8     6    1
    28    13    14    1
    29    28    30    1
    30    28    29    1
    31    81    79    1
    32    75    76    1
    33    71    68    1
    34    69    68    1
    35     5     6    1
    36     6     7    1
    37    80    79    1
    38    79    76    1
    39    76    77    1
    40    68    67    1
    41    34    33    2
    42    77    78    2
    43    35    36    1
    44    35    32    1
    45    38    36   ar
    46    38    40   ar
    47    36    37   ar
    48    33    32    1
    49    40    41   ar
    50    54    55    1
    51    32    31    1
    52    37    39   ar
    53    41    39   ar
    54    41    42    1
    55    58    55    1
    56    55    56    1
    57    62    61    2
    58    61    60    1
    59    56    57    2
    60    64    63    1
    61    64    65    1
    62    63    60    1
    63    60    59    1
    64    65    66    1
    65    53    50    1
    66    50    49    1
    67    50    51    1
    68    48    47    1
    69    47    44    1
    70    51    52    2
    71    44    45    1
    72    44    43    1
    73    45    46    2
