@<TRIPOS>MOLECULE
tmp/6h1lB02.pdb
 92 88 0 0 0
SMALL
GASTEIGER

@<TRIPOS>ATOM
      1  N         48.4510    1.0480   63.3080 N.3    80  ASP80      -0.1225
      2  CA        49.3470    2.0190   63.9260 C.3    80  ASP80       0.1805
      3  C         48.8980    3.4540   63.6820 C.2    80  ASP80       0.2597
      4  O         49.3320    4.3570   64.4050 O.2    80  ASP80      -0.2718
      5  CB        50.7740    1.8170   63.4090 C.3    80  ASP80       0.1424
      6  CG        51.3020    0.4190   63.6850 C.2    80  ASP80       0.3668
      7  OD1       50.9720   -0.1460   64.7520 O.co2  80  ASP80      -0.2456
      8  OD2       52.0440   -0.1180   62.8340 O.co2  80  ASP80      -0.2456
      9  N         48.0390    3.6810   62.6880 N.am   81  PHE81      -0.1976
     10  CA        47.4850    4.9970   62.3810 C.3    81  PHE81       0.1639
     11  C         46.0730    5.1830   62.9230 C.2    81  PHE81       0.2290
     12  O         45.7670    6.2230   63.5150 O.2    81  PHE81      -0.2864
     13  CB        47.4760    5.2250   60.8660 C.3    81  PHE81       0.0560
     14  CG        48.8350    5.4660   60.2800 C.ar   81  PHE81      -0.0200
     15  CD1       49.7640    4.4400   60.2000 C.ar   81  PHE81      -0.0042
     16  CD2       49.1800    6.7200   59.7950 C.ar   81  PHE81      -0.0042
     17  CE1       51.0140    4.6600   59.6590 C.ar   81  PHE81      -0.0003
     18  CE2       50.4290    6.9470   59.2470 C.ar   81  PHE81      -0.0003
     19  CZ        51.3480    5.9160   59.1800 C.ar   81  PHE81      -0.0000
     20  N         57.8910   12.8340   56.9450 N.3   205  PHE205     -0.1241
     21  CA        56.9480   12.0220   57.7070 C.3   205  PHE205      0.1605
     22  C         56.3630   12.8110   58.8750 C.2   205  PHE205      0.2264
     23  O         55.1410   12.8560   59.0580 O.2   205  PHE205     -0.2867
     24  CB        57.6440   10.7490   58.1950 C.3   205  PHE205      0.0534
     25  CG        56.7140    9.7340   58.7960 C.ar  205  PHE205     -0.0203
     26  CD1       55.8810    8.9730   57.9900 C.ar  205  PHE205     -0.0042
     27  CD2       56.6840    9.5270   60.1650 C.ar  205  PHE205     -0.0042
     28  CE1       55.0280    8.0300   58.5390 C.ar  205  PHE205     -0.0003
     29  CE2       55.8340    8.5850   60.7210 C.ar  205  PHE205     -0.0003
     30  CZ        55.0060    7.8360   59.9060 C.ar  205  PHE205     -0.0000
     31  N         52.5180   13.8070   59.5570 N.3   209  ILE209     -0.1245
     32  CA        51.8450   13.4830   60.8150 C.3   209  ILE209      0.1561
     33  C         51.3130   14.7490   61.4750 C.2   209  ILE209      0.2260
     34  O         50.2050   14.7660   62.0280 O.2   209  ILE209     -0.2867
     35  CB        52.8010   12.7200   61.7520 C.3   209  ILE209      0.0252
     36  CG1       53.2260   11.3870   61.1320 C.3   209  ILE209      0.0019
     37  CG2       52.1610   12.4990   63.1160 C.3   209  ILE209      0.0019
     38  CD1       52.0920   10.4200   60.9180 C.3   209  ILE209      0.0001
     39  N         48.1260   16.0300   59.8020 N.3   212  MET212     -0.1230
     40  CA        46.9320   15.2860   60.1980 C.3   212  MET212      0.1702
     41  C         46.5480   15.5810   61.6450 C.2   212  MET212      0.2592
     42  O         45.3590   15.6990   61.9640 O.2   212  MET212     -0.2718
     43  CB        47.1510   13.7860   59.9890 C.3   212  MET212      0.0401
     44  CG        47.4090   13.3970   58.5410 C.3   212  MET212      0.0596
     45  SD        47.5400   11.6160   58.2630 S.3   212  MET212     -0.1393
     46  CE        48.9920   11.1980   59.2170 C.3   212  MET212      0.0692
     47  N         47.5390   15.7110   62.5330 N.am  213  ASN213     -0.1974
     48  CA        47.2470   16.0350   63.9270 C.3   213  ASN213      0.1688
     49  C         46.6540   17.4320   64.0640 C.2   213  ASN213      0.2292
     50  O         45.7780   17.6570   64.9050 O.2   213  ASN213     -0.2864
     51  CB        48.5100   15.9040   64.7770 C.3   213  ASN213      0.1181
     52  CG        48.6960   14.5080   65.3300 C.2   213  ASN213      0.2629
     53  OD1       47.7330   13.8550   65.7290 O.2   213  ASN213     -0.2716
     54  ND2       49.9360   14.0390   65.3490 N.am  213  ASN213     -0.0877
     55  N         42.8410   17.2610   63.0770 N.3   216  VAL216     -0.1245
     56  CA        42.0570   16.6860   64.1670 C.3   216  VAL216      0.1561
     57  C         41.9150   17.6930   65.3030 C.2   216  VAL216      0.2260
     58  O         40.8510   17.8020   65.9240 O.2   216  VAL216     -0.2867
     59  CB        42.6920   15.3650   64.6460 C.3   216  VAL216      0.0252
     60  CG1       42.0040   14.8570   65.9060 C.3   216  VAL216      0.0019
     61  CG2       42.6210   14.3140   63.5530 C.3   216  VAL216      0.0019
     62  N         40.3220   10.6690   68.9110 N.3   252  ARG252     -0.1231
     63  CA        41.2050   11.0290   67.8060 C.3   252  ARG252      0.1694
     64  C         41.2910    9.9050   66.7820 C.2   252  ARG252      0.2592
     65  O         41.2710   10.1570   65.5720 O.2   252  ARG252     -0.2718
     66  CB        42.5940   11.3800   68.3410 C.3   252  ARG252      0.0321
     67  CG        42.6030   12.5390   69.3270 C.3   252  ARG252      0.0489
     68  CD        44.0190   12.8950   69.7810 C.3   252  ARG252      0.2205
     69  NE        44.8580   13.3620   68.6790 N.pl3 252  ARG252     -0.0865
     70  CZ        44.8150   14.5910   68.1740 C.cat 252  ARG252      0.5346
     71  NH1       43.9640   15.4830   68.6620 N.pl3 252  ARG252      0.1354
     72  NH2       45.6160   14.9240   67.1720 N.pl3 252  ARG252      0.1354
     73  N         41.3930    8.6570   67.2470 N.am  253  TYR253     -0.1976
     74  CA        41.4120    7.5290   66.3220 C.3   253  TYR253      0.1639
     75  C         40.1100    7.4380   65.5330 C.2   253  TYR253      0.2290
     76  O         40.1210    7.0950   64.3460 O.2   253  TYR253     -0.2864
     77  CB        41.6680    6.2300   67.0800 C.3   253  TYR253      0.0560
     78  CG        43.1040    6.0280   67.4990 C.ar  253  TYR253     -0.0198
     79  CD1       44.1440    6.2450   66.6050 C.ar  253  TYR253     -0.0009
     80  CD2       43.4220    5.6230   68.7890 C.ar  253  TYR253     -0.0009
     81  CE1       45.4630    6.0580   66.9820 C.ar  253  TYR253      0.0417
     82  CE2       44.7410    5.4350   69.1780 C.ar  253  TYR253      0.0417
     83  CZ        45.7560    5.6540   68.2690 C.ar  253  TYR253      0.1957
     84  OH        47.0690    5.4710   68.6410 O.3   253  TYR253     -0.2866
     85  N         39.8520   10.3400   62.6730 N.3   256  ILE256     -0.1245
     86  CA        40.6410   10.0210   61.4860 C.3   256  ILE256      0.1561
     87  C         40.0800    8.7800   60.7970 C.2   256  ILE256      0.2260
     88  O         40.1290    8.6660   59.5650 O.2   256  ILE256     -0.2867
     89  CB        42.1310    9.8730   61.8710 C.3   256  ILE256      0.0252
     90  CG1       43.0310   10.1750   60.6770 C.3   256  ILE256      0.0019
     91  CG2       42.4460    8.5020   62.4580 C.3   256  ILE256      0.0019
     92  CD1       43.3830   11.6320   60.5790 C.3   256  ILE256      0.0001
@<TRIPOS>BOND
     1    20    21    1
     2    21    24    1
     3    21    22    1
     4    26    28   ar
     5    26    25   ar
     6    24    25    1
     7    45    44    1
     8    45    46    1
     9    28    30   ar
    10    44    43    1
    11    25    27   ar
    12    22    23    2
    13    19    18   ar
    14    19    17   ar
    15    18    16   ar
    16    31    32    1
    17    88    87    2
    18    17    15   ar
    19    16    14   ar
    20    39    40    1
    21    30    29   ar
    22    43    40    1
    23    27    29   ar
    24    40    41    1
    25    15    14   ar
    26    14    13    1
    27    92    90    1
    28    90    89    1
    29    87    86    1
    30    32    33    1
    31    32    35    1
    32    13    10    1
    33    38    36    1
    34    36    35    1
    35    33    34    2
    36    86    89    1
    37    86    85    1
    38    41    42    2
    39    41    47   am
    40    35    37    1
    41    89    91    1
    42    10     9    1
    43    10    11    1
    44    47    48    1
    45     9     3   am
    46     8     6   ar
    47    11    12    2
    48    55    56    1
    49     1     2    1
    50     5     6    1
    51     5     2    1
    52    61    59    1
    53     3     2    1
    54     3     4    2
    55     6     7   ar
    56    48    49    1
    57    48    51    1
    58    49    50    2
    59    56    59    1
    60    56    57    1
    61    76    75    2
    62    59    60    1
    63    51    52    1
    64    57    58    2
    65    52    54   am
    66    52    53    2
    67    75    74    1
    68    65    64    2
    69    74    77    1
    70    74    73    1
    71    79    81   ar
    72    79    78   ar
    73    64    73   am
    74    64    63    1
    75    81    83   ar
    76    77    78    1
    77    72    70    1
    78    78    80   ar
    79    63    66    1
    80    63    62    1
    81    70    71    1
    82    70    69    2
    83    83    84    1
    84    83    82   ar
    85    66    67    1
    86    69    68    1
    87    80    82   ar
    88    67    68    1
