@<TRIPOS>MOLECULE
tmp/6h1lB00.pdb
 160 150 0 0 0
SMALL
GASTEIGER

@<TRIPOS>ATOM
      1  N         35.6260  -11.3120   63.0500 N.3    69  LYS69      -0.1245
      2  CA        36.4570  -10.4780   62.1940 C.3    69  LYS69       0.1561
      3  C         37.9170  -10.5890   62.6040 C.2    69  LYS69       0.2260
      4  O         38.2540  -10.4680   63.7860 O.2    69  LYS69      -0.2867
      5  CB        36.0160   -9.0190   62.2630 C.3    69  LYS69       0.0271
      6  CG        37.1200   -8.0510   61.8390 C.3    69  LYS69       0.0035
      7  CD        36.5900   -6.6640   61.5230 C.3    69  LYS69       0.0206
      8  CE        37.7270   -5.7170   61.1320 C.3    69  LYS69       0.1093
      9  NZ        37.1970   -4.4160   60.6310 N.3    69  LYS69      -0.1314
     10  N         43.5740   -8.4660   59.2520 N.3    72  SER72      -0.1217
     11  CA        44.5440   -8.9430   58.2830 C.3    72  SER72       0.1889
     12  C         45.8620   -8.1800   58.4400 C.2    72  SER72       0.2288
     13  O         45.9650   -7.2160   59.2030 O.2    72  SER72      -0.2866
     14  CB        44.0030   -8.7790   56.8650 C.3    72  SER72       0.2089
     15  OG        43.8000   -7.4090   56.5510 O.3    72  SER72      -0.2183
     16  N         47.2670   -6.1920   56.3170 N.3    74  ALA74      -0.1231
     17  CA        47.0200   -4.8100   55.9240 C.3    74  ALA74       0.1694
     18  C         46.3540   -4.0310   57.0510 C.2    74  ALA74       0.2591
     19  O         46.7550   -2.9000   57.3540 O.2    74  ALA74      -0.2718
     20  CB        46.1660   -4.7670   54.6580 C.3    74  ALA74       0.0304
     21  N         45.3500   -4.6260   57.7020 N.am   75  LEU75      -0.1980
     22  CA        44.6970   -3.9580   58.8220 C.3    75  LEU75       0.1596
     23  C         45.6280   -3.8090   60.0230 C.2    75  LEU75       0.2287
     24  O         45.5470   -2.8100   60.7450 O.2    75  LEU75      -0.2864
     25  CB        43.4290   -4.7180   59.2230 C.3    75  LEU75       0.0297
     26  CG        42.1300   -4.3350   58.5040 C.3    75  LEU75       0.0022
     27  CD1       40.9620   -5.1810   59.0080 C.3    75  LEU75       0.0001
     28  CD2       41.8360   -2.8410   58.6580 C.3    75  LEU75       0.0001
     29  N         47.9750   -0.9430   59.2770 N.3    78  VAL78      -0.1245
     30  CA        47.2580    0.3210   59.3120 C.3    78  VAL78       0.1561
     31  C         46.7660    0.6660   60.7180 C.2    78  VAL78       0.2260
     32  O         46.4740    1.8360   61.0000 O.2    78  VAL78      -0.2867
     33  CB        46.1530    0.2150   58.2440 C.3    78  VAL78       0.0252
     34  CG1       44.9920    1.1100   58.5310 C.3    78  VAL78       0.0019
     35  CG2       46.7380    0.5160   56.8630 C.3    78  VAL78       0.0019
     36  N         45.1990    4.2020   62.7180 N.3    82  PHE82      -0.1241
     37  CA        43.8070    4.3150   63.1330 C.3    82  PHE82       0.1605
     38  C         43.5390    3.7010   64.5010 C.2    82  PHE82       0.2264
     39  O         42.4030    3.7850   64.9860 O.2    82  PHE82      -0.2867
     40  CB        42.8950    3.6800   62.0810 C.3    82  PHE82       0.0534
     41  CG        42.9580    4.3610   60.7450 C.ar   82  PHE82      -0.0203
     42  CD1       42.1800    5.4710   60.4790 C.ar   82  PHE82      -0.0042
     43  CD2       43.8040    3.8950   59.7590 C.ar   82  PHE82      -0.0042
     44  CE1       42.2440    6.1010   59.2440 C.ar   82  PHE82      -0.0003
     45  CE2       43.8720    4.5150   58.5230 C.ar   82  PHE82      -0.0003
     46  CZ        43.0920    5.6210   58.2690 C.ar   82  PHE82      -0.0000
     47  N         37.1920    0.5580   62.7760 N.3    87  VAL87      -0.1231
     48  CA        37.5500   -0.3000   61.6490 C.3    87  VAL87       0.1692
     49  C         38.6950   -1.2350   62.0050 C.2    87  VAL87       0.2592
     50  O         38.7340   -2.3840   61.5490 O.2    87  VAL87      -0.2718
     51  CB        37.8860    0.5570   60.4150 C.3    87  VAL87       0.0266
     52  CG1       38.3460   -0.3230   59.2670 C.3    87  VAL87       0.0020
     53  CG2       36.6730    1.3860   60.0070 C.3    87  VAL87       0.0020
     54  N         39.6460   -0.7630   62.8160 N.am   88  THR88      -0.1953
     55  CA        40.8910   -1.4800   63.0640 C.3    88  THR88       0.1897
     56  C         40.9430   -2.1130   64.4530 C.2    88  THR88       0.2313
     57  O         42.0300   -2.4230   64.9470 O.2    88  THR88      -0.2863
     58  CB        42.0850   -0.5420   62.8620 C.3    88  THR88       0.1794
     59  OG1       41.8840    0.6660   63.6030 O.3    88  THR88      -0.2208
     60  CG2       42.2360   -0.1920   61.3940 C.3    88  THR88       0.0378
     61  N         39.5000    7.8580   61.5680 N.3   257  THR257     -0.1218
     62  CA        38.8680    6.6780   60.9880 C.3   257  THR257      0.1862
     63  C         37.6930    7.0650   60.1010 C.2   257  THR257      0.2287
     64  O         37.5870    6.6030   58.9600 O.2   257  THR257     -0.2866
     65  CB        38.4110    5.7270   62.0990 C.3   257  THR257      0.1770
     66  OG1       39.5500    5.0630   62.6640 O.3   257  THR257     -0.2211
     67  CG2       37.4460    4.6900   61.5600 C.3   257  THR257      0.0375
     68  N         38.4510    9.1040   56.7660 N.3   260  ILE260     -0.1231
     69  CA        38.9450    8.3080   55.6470 C.3   260  ILE260      0.1692
     70  C         37.8870    7.3140   55.1820 C.2   260  ILE260      0.2591
     71  O         37.5440    7.2600   53.9960 O.2   260  ILE260     -0.2718
     72  CB        40.2530    7.5990   56.0380 C.3   260  ILE260      0.0266
     73  CG1       41.3020    8.6290   56.4670 C.3   260  ILE260      0.0019
     74  CG2       40.7600    6.7330   54.8910 C.3   260  ILE260      0.0020
     75  CD1       41.5300    9.7280   55.4480 C.3   260  ILE260      0.0001
     76  N         37.3550    6.5120   56.1070 N.am  261  ALA261     -0.1980
     77  CA        36.3250    5.5450   55.7440 C.3   261  ALA261      0.1597
     78  C         35.1030    6.2220   55.1390 C.2   261  ALA261      0.2287
     79  O         34.4490    5.6560   54.2540 O.2   261  ALA261     -0.2864
     80  CB        35.9210    4.7270   56.9720 C.3   261  ALA261      0.0319
     81  N         36.5210    7.5230   50.9630 N.3   264  GLU264     -0.1231
     82  CA        37.3150    6.8520   49.9330 C.3   264  GLU264      0.1699
     83  C         36.4870    5.8460   49.1410 C.2   264  GLU264      0.2592
     84  O         36.4590    5.8910   47.9050 O.2   264  GLU264     -0.2718
     85  CB        38.5340    6.1670   50.5520 C.3   264  GLU264      0.0402
     86  CG        39.6730    7.1140   50.8610 C.3   264  GLU264      0.1161
     87  CD        41.0180    6.4150   50.9370 C.2   264  GLU264      0.3649
     88  OE1       41.0540    5.1890   51.1710 O.co2 264  GLU264     -0.2457
     89  OE2       42.0440    7.0970   50.7530 O.co2 264  GLU264     -0.2457
     90  N         35.8120    4.9210   49.8320 N.am  265  THR265     -0.1953
     91  CA        35.0670    3.8760   49.1280 C.3   265  THR265      0.1897
     92  C         33.8760    4.4340   48.3590 C.2   265  THR265      0.2313
     93  O         33.5090    3.8890   47.3090 O.2   265  THR265     -0.2863
     94  CB        34.5760    2.8000   50.1000 C.3   265  THR265      0.1794
     95  OG1       34.0310    3.4210   51.2730 O.3   265  THR265     -0.2208
     96  CG2       35.7020    1.8530   50.4860 C.3   265  THR265      0.0378
     97  N         35.8090   -1.8290   48.7910 N.3   325  ALA325     -0.1231
     98  CA        36.5710   -2.4340   49.8830 C.3   325  ALA325      0.1679
     99  C         36.5610   -3.9330   49.6110 C.2   325  ALA325      0.2434
    100  O         35.7250   -4.6660   50.1590 O.2   325  ALA325     -0.2733
    101  CB        35.9770   -2.0960   51.2510 C.3   325  ALA325      0.0304
    102  N         37.4640   -4.4240   48.7580 N.am  326  PRO326     -0.2718
    103  CA        37.2450   -5.7230   48.1080 C.3   326  PRO326      0.1535
    104  C         37.5180   -6.9410   48.9720 C.2   326  PRO326      0.2598
    105  O         37.2970   -8.0600   48.4990 O.2   326  PRO326     -0.2715
    106  CB        38.2180   -5.6770   46.9200 C.3   326  PRO326      0.0310
    107  CG        39.3250   -4.8050   47.3960 C.3   326  PRO326      0.0237
    108  CD        38.6870   -3.7610   48.2720 C.3   326  PRO326      0.0939
    109  N         37.9880   -6.7860   50.2060 N.am  327  ALA327     -0.1964
    110  CA        38.3230   -7.9590   50.9990 C.3   327  ALA327      0.1728
    111  C         38.1060   -7.6770   52.4770 C.2   327  ALA327      0.2616
    112  O         38.3780   -6.5730   52.9570 O.2   327  ALA327     -0.2715
    113  CB        39.7720   -8.4020   50.7590 C.3   327  ALA327      0.0334
    114  N         37.6010   -8.6780   53.1900 N.am  328  PHE328     -0.1974
    115  CA        37.6180   -8.6660   54.6440 C.3   328  PHE328      0.1639
    116  C         38.0660  -10.0370   55.1240 C.2   328  PHE328      0.2290
    117  O         37.9990  -11.0280   54.3930 O.2   328  PHE328     -0.2864
    118  CB        36.2620   -8.2490   55.2540 C.3   328  PHE328      0.0560
    119  CG        35.0890   -9.1190   54.8600 C.ar  328  PHE328     -0.0200
    120  CD1       34.3680   -8.8580   53.7050 C.ar  328  PHE328     -0.0042
    121  CD2       34.6730  -10.1570   55.6800 C.ar  328  PHE328     -0.0042
    122  CE1       33.2710   -9.6370   53.3550 C.ar  328  PHE328     -0.0003
    123  CE2       33.5800  -10.9410   55.3370 C.ar  328  PHE328     -0.0003
    124  CZ        32.8790  -10.6810   54.1730 C.ar  328  PHE328     -0.0000
    125  N         40.0710  -15.3340   54.1360 N.3   351  MET351     -0.1245
    126  CA        39.9530  -14.0870   53.3910 C.3   351  MET351      0.1570
    127  C         38.7790  -14.1910   52.4320 C.2   351  MET351      0.2261
    128  O         38.7370  -15.0970   51.5920 O.2   351  MET351     -0.2867
    129  CB        41.2370  -13.7740   52.6220 C.3   351  MET351      0.0387
    130  CG        42.2150  -12.8880   53.3730 C.3   351  MET351      0.0595
    131  SD        41.6840  -11.1680   53.4760 S.3   351  MET351     -0.1393
    132  CE        43.2600  -10.4010   53.8420 C.3   351  MET351      0.0692
    133  N         29.5320   -2.7110   57.5560 N.3   397  CYS397     -0.1235
    134  CA        29.7620   -1.2790   57.3900 C.3   397  CYS397      0.1677
    135  C         28.6990   -0.4680   58.1120 C.2   397  CYS397      0.2270
    136  O         27.5030   -0.6030   57.8330 O.2   397  CYS397     -0.2867
    137  CB        29.7790   -0.9080   55.9110 C.3   397  CYS397      0.0956
    138  SG        30.0490    0.8550   55.6670 S.3   397  CYS397     -0.0801
    139  N         44.7050    0.8270   46.4300 N.3   433  THR433     -0.1203
    140  CA        45.2930    1.4340   47.6190 C.3   433  THR433      0.1994
    141  C         44.6030    0.8190   48.8410 C.2   433  THR433      0.2618
    142  O         44.5130   -0.4040   48.9060 O.2   433  THR433     -0.2717
    143  CB        45.1950    2.9510   47.5300 C.3   433  THR433      0.1784
    144  OG1       43.8160    3.3400   47.4680 O.3   433  THR433     -0.2211
    145  CG2       45.9130    3.4580   46.2920 C.3   433  THR433      0.0376
    146  N         44.1030    1.6090   49.7900 N.am  434  LEU434     -0.1965
    147  CA        43.1840    1.0350   50.7590 C.3   434  LEU434      0.1728
    148  C         41.8750    0.6300   50.0960 C.2   434  LEU434      0.2616
    149  O         41.1540   -0.2190   50.6320 O.2   434  LEU434     -0.2715
    150  CB        42.9300    2.0200   51.9030 C.3   434  LEU434      0.0311
    151  CG        44.1600    2.4040   52.7330 C.3   434  LEU434      0.0022
    152  CD1       43.7620    3.2660   53.9170 C.3   434  LEU434      0.0001
    153  CD2       44.9140    1.1660   53.1960 C.3   434  LEU434      0.0001
    154  N         41.5680    1.2050   48.9310 N.am  435  THR435     -0.1951
    155  CA        40.3360    0.9340   48.2060 C.3   435  THR435      0.1897
    156  C         40.6470    0.8080   46.7190 C.2   435  THR435      0.2313
    157  O         41.8050    0.8750   46.2980 O.2   435  THR435     -0.2863
    158  CB        39.3080    2.0420   48.4380 C.3   435  THR435      0.1794
    159  OG1       39.8100    3.2650   47.8850 O.3   435  THR435     -0.2208
    160  CG2       39.0510    2.2180   49.9260 C.3   435  THR435      0.0378
@<TRIPOS>BOND
     1   145   143    1
     2   157   156    2
     3   139   140    1
     4   156   155    1
     5   106   107    1
     6   106   103    1
     7    93    92    2
     8   107   108    1
     9   144   143    1
    10   143   140    1
    11   140   141    1
    12   159   158    1
    13    84    83    2
    14   103   102    1
    15   103   104    1
    16   155   158    1
    17   155   154    1
    18   108   102    1
    19    92    91    1
    20   158   160    1
    21   105   104    2
    22   102    99   am
    23    97    98    1
    24   141   142    2
    25   141   146   am
    26   154   148   am
    27   104   109   am
    28    91    90    1
    29    91    94    1
    30    83    90   am
    31    83    82    1
    32    99    98    1
    33    99   100    2
    34   146   147    1
    35    98   101    1
    36    82    85    1
    37    82    81    1
    38   148   149    2
    39   148   147    1
    40    94    96    1
    41    94    95    1
    42   109   110    1
    43    85    86    1
    44    89    87   ar
    45   113   110    1
    46   147   150    1
    47    86    87    1
    48    87    88   ar
    49   110   111    1
    50   128   127    2
    51   150   151    1
    52   127   126    1
    53   111   112    2
    54   111   114   am
    55   129   130    1
    56   129   126    1
    57   151   153    1
    58   151   152    1
    59   114   115    1
    60   122   120   ar
    61   122   124   ar
    62   130   131    1
    63   126   125    1
    64   131   132    1
    65   120   119   ar
    66    71    70    2
    67   124   123   ar
    68    79    78    2
    69   117   116    2
    70   115   116    1
    71   115   118    1
    72    20    17    1
    73   119   118    1
    74   119   121   ar
    75    74    72    1
    76    78    77    1
    77    70    69    1
    78    70    76   am
    79   123   121   ar
    80    75    73    1
    81    69    72    1
    82    69    68    1
    83   138   137    1
    84    77    76    1
    85    77    80    1
    86   137   134    1
    87    17    16    1
    88    17    18    1
    89    72    73    1
    90    15    14    1
    91    35    33    1
    92    14    11    1
    93    18    19    2
    94    18    21   am
    95   134   133    1
    96   134   135    1
    97    21    22    1
    98   136   135    2
    99    33    34    1
   100    33    30    1
   101    46    45   ar
   102    46    44   ar
   103    11    12    1
   104    11    10    1
   105    12    13    2
   106    26    28    1
   107    26    27    1
   108    26    25    1
   109    45    43   ar
   110    22    25    1
   111    22    23    1
   112    64    63    2
   113    44    42   ar
   114    52    51    1
   115    29    30    1
   116    30    31    1
   117    43    41   ar
   118    53    51    1
   119    23    24    2
   120    63    62    1
   121    51    48    1
   122    42    41   ar
   123     9     8    1
   124    31    32    2
   125    41    40    1
   126    62    61    1
   127    62    65    1
   128     8     7    1
   129    60    58    1
   130     7     6    1
   131    50    49    2
   132    67    65    1
   133    48    49    1
   134    48    47    1
   135     6     5    1
   136    49    54   am
   137    40    37    1
   138    65    66    1
   139     2     5    1
   140     2     3    1
   141     2     1    1
   142     3     4    2
   143    36    37    1
   144    54    55    1
   145    58    55    1
   146    58    59    1
   147    55    56    1
   148    37    38    1
   149    56    57    2
   150    38    39    2
