@<TRIPOS>MOLECULE
tmp/6h1oB01.pdb
 118 107 0 0 0
SMALL
GASTEIGER

@<TRIPOS>ATOM
      1  N         45.0160    4.2520   57.1750 N.3    75  LEU75      -0.1245
      2  CA        44.3870    4.9010   58.3210 C.3    75  LEU75       0.1561
      3  C         45.3360    4.9540   59.5110 C.2    75  LEU75       0.2260
      4  O         45.3100    5.9110   60.2840 O.2    75  LEU75      -0.2867
      5  CB        43.0950    4.1770   58.7180 C.3    75  LEU75       0.0270
      6  CG        41.8630    4.4290   57.8600 C.3    75  LEU75       0.0019
      7  CD1       40.6490    3.7480   58.4800 C.3    75  LEU75       0.0001
      8  CD2       41.6250    5.9240   57.7300 C.3    75  LEU75       0.0001
      9  N         47.3750    8.0260   58.8250 N.3    78  VAL78      -0.1245
     10  CA        46.7510    9.3200   59.0630 C.3    78  VAL78       0.1561
     11  C         46.3310    9.4840   60.5270 C.2    78  VAL78       0.2260
     12  O         46.1420   10.6150   60.9740 O.2    78  VAL78      -0.2867
     13  CB        45.5810    9.5800   58.0890 C.3    78  VAL78       0.0252
     14  CG1       46.0930    9.5550   56.6290 C.3    78  VAL78       0.0019
     15  CG2       44.4660    8.6010   58.2670 C.3    78  VAL78       0.0019
     16  N         45.1430   12.6450   62.7700 N.3    82  PHE82      -0.1241
     17  CA        43.7440   12.7380   63.1640 C.3    82  PHE82       0.1605
     18  C         43.4480   12.0220   64.4730 C.2    82  PHE82       0.2264
     19  O         42.3070   12.0670   64.9360 O.2    82  PHE82      -0.2867
     20  CB        42.8420   12.1700   62.0550 C.3    82  PHE82       0.0534
     21  CG        42.9330   12.9280   60.7600 C.ar   82  PHE82      -0.0203
     22  CD1       42.2080   14.0870   60.5650 C.ar   82  PHE82      -0.0042
     23  CD2       43.7410   12.4660   59.7350 C.ar   82  PHE82      -0.0042
     24  CE1       42.3040   14.8070   59.3680 C.ar   82  PHE82      -0.0003
     25  CE2       43.8360   13.1700   58.5310 C.ar   82  PHE82      -0.0003
     26  CZ        43.1130   14.3330   58.3510 C.ar   82  PHE82      -0.0000
     27  N         37.0880    8.8920   62.3900 N.3    87  VAL87      -0.1231
     28  CA        37.4910    7.9890   61.3010 C.3    87  VAL87       0.1692
     29  C         38.6460    7.0830   61.7160 C.2    87  VAL87       0.2592
     30  O         38.7370    5.9420   61.2640 O.2    87  VAL87      -0.2718
     31  CB        37.8700    8.7950   60.0370 C.3    87  VAL87       0.0266
     32  CG1       38.2260    7.8440   58.8870 C.3    87  VAL87       0.0020
     33  CG2       36.7320    9.7290   59.6290 C.3    87  VAL87       0.0020
     34  N         39.5630    7.5820   62.5480 N.am   88  THR88      -0.1953
     35  CA        40.8050    6.8680   62.8300 C.3    88  THR88       0.1897
     36  C         40.8190    6.2080   64.2020 C.2    88  THR88       0.2313
     37  O         41.8870    5.8140   64.6840 O.2    88  THR88      -0.2863
     38  CB        41.9910    7.8200   62.6880 C.3    88  THR88       0.1794
     39  OG1       41.6960    9.0590   63.3590 O.3    88  THR88      -0.2208
     40  CG2       42.2380    8.1090   61.1960 C.3    88  THR88       0.0378
     41  N         47.9520   20.7860   54.9730 N.3   177  MET177     -0.1245
     42  CA        47.6040   19.4090   55.2980 C.3   177  MET177      0.1570
     43  C         48.1970   18.4470   54.2700 C.2   177  MET177      0.2261
     44  O         48.7990   17.4280   54.6330 O.2   177  MET177     -0.2867
     45  CB        46.0780   19.2450   55.4010 C.3   177  MET177      0.0387
     46  CG        45.5940   17.7930   55.6590 C.3   177  MET177      0.0595
     47  SD        46.0180   17.1030   57.2980 S.3   177  MET177     -0.1393
     48  CE        44.7850   17.8780   58.3550 C.3   177  MET177      0.0692
     49  N         51.2030   15.7490   55.1730 N.3   181  LEU181     -0.1245
     50  CA        51.0400   14.3140   54.9650 C.3   181  LEU181      0.1561
     51  C         52.1010   13.7820   54.0190 C.2   181  LEU181      0.2260
     52  O         52.6920   12.7200   54.2610 O.2   181  LEU181     -0.2867
     53  CB        49.6440   14.0140   54.4100 C.3   181  LEU181      0.0270
     54  CG        48.4920   14.1950   55.4000 C.3   181  LEU181      0.0019
     55  CD1       47.1380   14.0890   54.6740 C.3   181  LEU181      0.0001
     56  CD2       48.5850   13.1360   56.4540 C.3   181  LEU181      0.0001
     57  N         39.3200   16.2700   61.5580 N.3   260  THR260     -0.1218
     58  CA        38.6860   15.1190   60.9250 C.3   260  THR260      0.1862
     59  C         37.5330   15.5660   60.0310 C.2   260  THR260      0.2287
     60  O         37.4620   15.1870   58.8570 O.2   260  THR260     -0.2866
     61  CB        38.2010   14.1260   61.9860 C.3   260  THR260      0.1770
     62  OG1       39.3540   13.5040   62.5840 O.3   260  THR260     -0.2211
     63  CG2       37.3400   13.0020   61.3440 C.3   260  THR260      0.0375
     64  N         38.3740   17.7680   56.7990 N.3   263  ILE263     -0.1231
     65  CA        38.9390   17.0310   55.6690 C.3   263  ILE263      0.1692
     66  C         37.9520   16.0010   55.1430 C.2   263  ILE263      0.2591
     67  O         37.6620   15.9720   53.9480 O.2   263  ILE263     -0.2718
     68  CB        40.2810   16.3760   56.0720 C.3   263  ILE263      0.0266
     69  CG1       41.2860   17.4450   56.5610 C.3   263  ILE263      0.0019
     70  CG2       40.8500   15.5550   54.8840 C.3   263  ILE263      0.0020
     71  CD1       41.5620   18.5760   55.5810 C.3   263  ILE263      0.0001
     72  N         37.4380   15.1190   56.0110 N.am  264  ALA264     -0.1980
     73  CA        36.4720   14.1170   55.5690 C.3   264  ALA264      0.1597
     74  C         35.2520   14.7660   54.9560 C.2   264  ALA264      0.2287
     75  O         34.6620   14.2220   54.0130 O.2   264  ALA264     -0.2864
     76  CB        36.0130   13.2500   56.7420 C.3   264  ALA264      0.0319
     77  N         36.4440   16.1250   51.0230 N.3   267  GLU267     -0.1231
     78  CA        37.3060   15.5500   49.9860 C.3   267  GLU267      0.1699
     79  C         36.5410   14.5860   49.0780 C.2   267  GLU267      0.2592
     80  O         36.5640   14.7250   47.8440 O.2   267  GLU267     -0.2718
     81  CB        38.4950   14.8370   50.6270 C.3   267  GLU267      0.0402
     82  CG        39.5210   14.3950   49.6200 C.3   267  GLU267      0.1161
     83  CD        40.5930   13.5090   50.2380 C.2   267  GLU267      0.3649
     84  OE1       40.4270   13.1020   51.4140 O.co2 267  GLU267     -0.2457
     85  OE2       41.5660   13.1760   49.5230 O.co2 267  GLU267     -0.2457
     86  N         35.9040   13.5710   49.6650 N.am  268  THR268     -0.1953
     87  CA        35.1690   12.5900   48.8640 C.3   268  THR268      0.1897
     88  C         33.9750   13.2210   48.1540 C.2   268  THR268      0.2313
     89  O         33.5700   12.7360   47.0920 O.2   268  THR268     -0.2863
     90  CB        34.6620   11.4550   49.7430 C.3   268  THR268      0.1794
     91  OG1       34.1790   12.0160   50.9760 O.3   268  THR268     -0.2208
     92  CG2       35.7770   10.4270   50.0380 C.3   268  THR268      0.0378
     93  N         35.8450    6.9970   48.3730 N.3   328  ALA328     -0.1245
     94  CA        36.6700    6.3460   49.3890 C.3   328  ALA328      0.1562
     95  C         36.6570    4.8570   49.1010 C.2   328  ALA328      0.2260
     96  O         35.8010    4.1310   49.6330 O.2   328  ALA328     -0.2867
     97  CB        36.1450    6.6160   50.8050 C.3   328  ALA328      0.0290
     98  N         29.7350    5.8610   57.1540 N.3   400  CYS400     -0.1235
     99  CA        29.9700    7.3040   57.0970 C.3   400  CYS400      0.1677
    100  C         28.8890    8.0920   57.8320 C.2   400  CYS400      0.2270
    101  O         27.7060    8.0500   57.4730 O.2   400  CYS400     -0.2867
    102  CB        30.0370    7.7390   55.6200 C.3   400  CYS400      0.0956
    103  SG        30.3140    9.5030   55.4690 S.3   400  CYS400     -0.0801
    104  N         44.2240    9.1640   49.3790 N.3   437  LEU437     -0.1231
    105  CA        43.3360    8.3070   50.1430 C.3   437  LEU437      0.1693
    106  C         41.9400    8.2880   49.5400 C.2   437  LEU437      0.2592
    107  O         41.0990    7.5060   49.9820 O.2   437  LEU437     -0.2718
    108  CB        43.2800    8.7240   51.6210 C.3   437  LEU437      0.0284
    109  CG        44.4880    8.2650   52.4610 C.3   437  LEU437      0.0019
    110  CD1       45.5100    9.3690   52.5410 C.3   437  LEU437      0.0001
    111  CD2       44.0720    7.8350   53.8570 C.3   437  LEU437      0.0001
    112  N         41.6870    9.1110   48.5240 N.am  438  THR438     -0.1953
    113  CA        40.4020    9.1170   47.8170 C.3   438  THR438      0.1897
    114  C         40.6660    9.1050   46.3110 C.2   438  THR438      0.2313
    115  O         41.8150    9.0910   45.8650 O.2   438  THR438     -0.2863
    116  CB        39.5650   10.3480   48.2050 C.3   438  THR438      0.1794
    117  OG1       40.2520   11.5210   47.7700 O.3   438  THR438     -0.2208
    118  CG2       39.3560   10.4050   49.7140 C.3   438  THR438      0.0378
@<TRIPOS>BOND
     1   115   114    2
     2   114   113    1
     3    89    88    2
     4   117   116    1
     5   113   116    1
     6   113   112    1
     7    80    79    2
     8    88    87    1
     9   116   118    1
    10    93    94    1
    11   112   106   am
    12    87    86    1
    13    87    90    1
    14    79    86   am
    15    79    78    1
    16    95    94    1
    17    95    96    2
    18   104   105    1
    19    94    97    1
    20    85    83   ar
    21   106   107    2
    22   106   105    1
    23    82    83    1
    24    82    81    1
    25    90    92    1
    26    90    91    1
    27    78    81    1
    28    78    77    1
    29   105   108    1
    30    83    84   ar
    31   108   109    1
    32   109   110    1
    33   109   111    1
    34    67    66    2
    35    75    74    2
    36    51    52    2
    37    51    50    1
    38    43    44    2
    39    43    42    1
    40    53    50    1
    41    53    54    1
    42    55    54    1
    43    70    68    1
    44    74    73    1
    45    50    49    1
    46    41    42    1
    47    66    65    1
    48    66    72   am
    49    42    45    1
    50    54    56    1
    51    45    46    1
    52   103   102    1
    53    73    72    1
    54    73    76    1
    55    71    69    1
    56   102    99    1
    57    46    47    1
    58    65    68    1
    59    65    64    1
    60    68    69    1
    61    14    13    1
    62    99    98    1
    63    99   100    1
    64     1     2    1
    65    47    48    1
    66   101   100    2
    67     8     6    1
    68     6     7    1
    69     6     5    1
    70    13    15    1
    71    13    10    1
    72     2     5    1
    73     2     3    1
    74    26    25   ar
    75    26    24   ar
    76    25    23   ar
    77     9    10    1
    78    60    59    2
    79    32    31    1
    80    10    11    1
    81    24    22   ar
    82     3     4    2
    83    33    31    1
    84    23    21   ar
    85    59    58    1
    86    31    28    1
    87    11    12    2
    88    22    21   ar
    89    21    20    1
    90    58    57    1
    91    58    61    1
    92    40    38    1
    93    30    29    2
    94    28    29    1
    95    28    27    1
    96    63    61    1
    97    29    34   am
    98    61    62    1
    99    20    17    1
   100    34    35    1
   101    38    35    1
   102    38    39    1
   103    16    17    1
   104    35    36    1
   105    17    18    1
   106    36    37    2
   107    18    19    2
