@<TRIPOS>MOLECULE
tmp/6h1sA00.pdb
 112 101 0 0 0
SMALL
GASTEIGER

@<TRIPOS>ATOM
      1  N         13.4080    2.8050  148.6870 N.3    68  SER68      -0.1217
      2  CA        14.1290    1.5480  148.6950 C.3    68  SER68       0.1889
      3  C         13.8040    0.7270  149.9220 C.2    68  SER68       0.2288
      4  O         13.1310    1.1750  150.8750 O.2    68  SER68      -0.2866
      5  CB        15.6230    1.8580  148.7390 C.3    68  SER68       0.2089
      6  OG        15.8370    2.5000  149.9760 O.3    68  SER68      -0.2183
      7  N         15.5440   -0.0560  152.4340 N.3    70  ALA70      -0.1231
      8  CA        15.9760    0.5640  153.6800 C.3    70  ALA70       0.1694
      9  C         15.0420    1.6840  154.0910 C.2    70  ALA70       0.2591
     10  O         14.6460    1.7740  155.2520 O.2    70  ALA70      -0.2718
     11  CB        17.4400    1.0630  153.6030 C.3    70  ALA70       0.0304
     12  N         14.6210    2.4710  153.1420 N.am   71  LEU71      -0.1980
     13  CA        13.7160    3.5990  153.4630 C.3    71  LEU71       0.1596
     14  C         12.3590    3.0660  153.9960 C.2    71  LEU71       0.2287
     15  O         11.7970    3.5750  154.9730 O.2    71  LEU71      -0.2864
     16  CB        13.5260    4.5130  152.2690 C.3    71  LEU71       0.0297
     17  CG        14.6520    5.5030  151.9400 C.3    71  LEU71       0.0022
     18  CD1       14.3570    6.3330  150.7190 C.3    71  LEU71       0.0001
     19  CD2       14.8310    6.4810  153.0950 C.3    71  LEU71       0.0001
     20  N         12.9670    1.7520  157.7090 N.3    74  VAL74      -0.1245
     21  CA        13.0800    2.8140  158.7180 C.3    74  VAL74       0.1561
     22  C         11.8180    3.6690  158.9070 C.2    74  VAL74       0.2260
     23  O         11.6860    4.4250  159.8750 O.2    74  VAL74      -0.2867
     24  CB        14.3150    3.6740  158.4970 C.3    74  VAL74       0.0252
     25  CG1       15.5500    2.7880  158.4460 C.3    74  VAL74       0.0019
     26  CG2       14.2320    4.5280  157.2900 C.3    74  VAL74       0.0019
     27  N         10.6650    6.7270  161.1570 N.3    78  PHE78      -0.1241
     28  CA        10.6070    7.9780  160.4150 C.3    78  PHE78       0.1605
     29  C          9.1940    8.3180  159.9280 C.2    78  PHE78       0.2264
     30  O          8.9640    9.4250  159.4440 O.2    78  PHE78      -0.2867
     31  CB        11.4680    7.9170  159.1490 C.3    78  PHE78       0.0534
     32  CG        12.9280    8.1510  159.3590 C.ar   78  PHE78      -0.0203
     33  CD1       13.6920    7.2870  160.0490 C.ar   78  PHE78      -0.0042
     34  CD2       13.5790    9.1710  158.6580 C.ar   78  PHE78      -0.0042
     35  CE1       15.0890    7.4720  160.1490 C.ar   78  PHE78      -0.0003
     36  CE2       14.9700    9.3710  158.7540 C.ar   78  PHE78      -0.0003
     37  CZ        15.7070    8.5140  159.5210 C.ar   78  PHE78      -0.0000
     38  N         11.9090   12.3580  154.3000 N.3    83  VAL83      -0.1245
     39  CA        12.8560   11.3930  153.6870 C.3    83  VAL83       0.1561
     40  C         12.1480   10.1220  153.2460 C.2    83  VAL83       0.2260
     41  O         12.5420    9.4850  152.2610 O.2    83  VAL83      -0.2867
     42  CB        13.9430   11.0210  154.7100 C.3    83  VAL83       0.0252
     43  CG1       14.8880    9.9720  154.1890 C.3    83  VAL83       0.0019
     44  CG2       14.7590   12.2380  155.0430 C.3    83  VAL83       0.0019
     45  N         18.7900    1.8280  163.4280 N.3   177  LEU177     -0.1245
     46  CA        19.2010    1.8400  162.0040 C.3   177  LEU177      0.1561
     47  C         19.9920    0.5950  161.5830 C.2   177  LEU177      0.2260
     48  O         19.8780    0.1220  160.4400 O.2   177  LEU177     -0.2867
     49  CB        20.0610    3.0540  161.6790 C.3   177  LEU177      0.0270
     50  CG        19.3160    4.4160  161.7240 C.3   177  LEU177      0.0019
     51  CD1       20.3170    5.5720  161.7340 C.3   177  LEU177      0.0001
     52  CD2       18.3650    4.5050  160.5490 C.3   177  LEU177      0.0001
     53  N         17.9450   13.0140  162.9470 N.3   259  ILE259     -0.1231
     54  CA        18.8010   11.9920  162.3030 C.3   259  ILE259      0.1692
     55  C         19.4590   12.4470  161.0310 C.2   259  ILE259      0.2591
     56  O         20.7040   12.5470  160.9600 O.2   259  ILE259     -0.2718
     57  CB        18.0510   10.6560  162.0620 C.3   259  ILE259      0.0266
     58  CG1       17.5340   10.1450  163.4020 C.3   259  ILE259      0.0019
     59  CG2       19.0030    9.5880  161.5220 C.3   259  ILE259      0.0020
     60  CD1       16.7320    8.8670  163.3690 C.3   259  ILE259      0.0001
     61  N         18.6360   12.7830  160.0270 N.am  260  ALA260     -0.1980
     62  CA        19.1670   13.2310  158.7520 C.3   260  ALA260      0.1597
     63  C         20.0530   14.4750  158.9230 C.2   260  ALA260      0.2287
     64  O         21.0830   14.5860  158.3010 O.2   260  ALA260     -0.2864
     65  CB        18.0310   13.5390  157.7780 C.3   260  ALA260      0.0319
     66  N         23.9520   13.0390  160.8540 N.3   263  GLU263     -0.1231
     67  CA        24.8740   11.9080  160.6210 C.3   263  GLU263      0.1699
     68  C         25.8030   12.0400  159.3680 C.2   263  GLU263      0.2592
     69  O         27.0120   11.8870  159.4890 O.2   263  GLU263     -0.2718
     70  CB        24.0360   10.6720  160.5460 C.3   263  GLU263      0.0402
     71  CG        24.6910    9.5870  159.7590 C.3   263  GLU263      0.1161
     72  CD        25.3470    8.6860  160.7330 C.2   263  GLU263      0.3649
     73  OE1       24.7950    7.5300  160.8870 O.co2 263  GLU263     -0.2457
     74  OE2       26.2730    9.2450  161.4090 O.co2 263  GLU263     -0.2457
     75  N         25.2360   12.4260  158.2360 N.am  264  THR264     -0.1953
     76  CA        25.9900   12.6090  156.9670 C.3   264  THR264      0.1897
     77  C         26.9450   13.8120  157.0560 C.2   264  THR264      0.2313
     78  O         28.0300   13.7720  156.4870 O.2   264  THR264     -0.2863
     79  CB        25.0860   12.7810  155.7690 C.3   264  THR264      0.1794
     80  OG1       24.0830   13.7540  156.0980 O.3   264  THR264     -0.2208
     81  CG2       24.4270   11.4440  155.4090 C.3   264  THR264      0.0378
     82  N         25.9230    9.8660  152.0820 N.3   324  ALA324     -0.1245
     83  CA        24.6640    9.1370  151.8050 C.3   324  ALA324      0.1562
     84  C         24.8570    8.5770  150.4260 C.2   324  ALA324      0.2260
     85  O         24.5440    9.2310  149.4450 O.2   324  ALA324     -0.2867
     86  CB        23.4550   10.0580  151.8040 C.3   324  ALA324      0.0290
     87  N         23.8650    6.3710  148.1630 N.3   326  ALA326     -0.1245
     88  CA        22.9520    5.8790  147.1330 C.3   326  ALA326      0.1562
     89  C         21.5690    6.4640  147.2750 C.2   326  ALA326      0.2260
     90  O         21.1260    6.7270  148.4100 O.2   326  ALA326     -0.2867
     91  CB        22.8560    4.3870  147.2680 C.3   326  ALA326      0.0290
     92  N         18.2600   17.0740  148.7760 N.3   396  CYS396     -0.1235
     93  CA        18.3870   17.3260  150.1940 C.3   396  CYS396      0.1677
     94  C         17.8760   18.7390  150.5630 C.2   396  CYS396      0.2270
     95  O         18.5060   19.7290  150.1370 O.2   396  CYS396     -0.2867
     96  CB        19.8050   17.3420  150.5780 C.3   396  CYS396      0.0956
     97  SG        20.1770   17.4380  152.3370 S.3   396  CYS396     -0.0801
     98  N         23.9500    3.0140  157.4880 N.3   433  LEU433     -0.1231
     99  CA        23.3510    3.3610  156.2030 C.3   433  LEU433      0.1693
    100  C         24.1530    4.5500  155.5160 C.2   433  LEU433      0.2592
    101  O         23.9070    4.8830  154.3800 O.2   433  LEU433     -0.2718
    102  CB        21.8810    3.6950  156.3920 C.3   433  LEU433      0.0284
    103  CG        20.9720    2.4860  156.7220 C.3   433  LEU433      0.0019
    104  CD1       19.5500    2.9830  156.9240 C.3   433  LEU433      0.0001
    105  CD2       20.9940    1.4080  155.6170 C.3   433  LEU433      0.0001
    106  N         25.1060    5.1260  156.2250 N.am  434  THR434     -0.1953
    107  CA        25.9410    6.1900  155.7360 C.3   434  THR434      0.1897
    108  C         27.4080    5.6960  155.8400 C.2   434  THR434      0.2313
    109  O         27.6960    4.5870  156.3970 O.2   434  THR434     -0.2863
    110  CB        25.7660    7.4660  156.5920 C.3   434  THR434      0.1794
    111  OG1       26.1780    7.2390  157.9440 O.3   434  THR434     -0.2208
    112  CG2       24.3330    7.9850  156.5390 C.3   434  THR434      0.0378
@<TRIPOS>BOND
     1    88    91    1
     2    88    89    1
     3    88    87    1
     4    89    90    2
     5     1     2    1
     6     2     5    1
     7     2     3    1
     8     5     6    1
     9    92    93    1
    10    85    84    2
    11     3     4    2
    12    95    94    2
    13    93    94    1
    14    93    96    1
    15    84    83    1
    16    96    97    1
    17    18    17    1
    18    86    83    1
    19    83    82    1
    20    17    16    1
    21    17    19    1
    22    41    40    2
    23    16    13    1
    24     7     8    1
    25    12    13    1
    26    12     9   am
    27    40    39    1
    28    13    14    1
    29    11     8    1
    30     8     9    1
    31    39    38    1
    32    39    42    1
    33    14    15    2
    34     9    10    2
    35    43    42    1
    36   101   100    2
    37    42    44    1
    38    81    79    1
    39   100    99    1
    40   100   106   am
    41   105   103    1
    42   107   108    1
    43   107   106    1
    44   107   110    1
    45    79    80    1
    46    79    76    1
    47   108   109    2
    48    99   102    1
    49    99    98    1
    50   102   103    1
    51    78    77    2
    52   112   110    1
    53   110   111    1
    54   103   104    1
    55    76    77    1
    56    76    75    1
    57    26    24    1
    58    20    21    1
    59    65    62    1
    60    75    68   am
    61    64    63    2
    62    25    24    1
    63    24    21    1
    64    34    36   ar
    65    34    32   ar
    66    21    22    1
    67    62    63    1
    68    62    61    1
    69    36    37   ar
    70    22    23    2
    71    31    32    1
    72    31    28    1
    73    32    33   ar
    74    68    69    2
    75    68    67    1
    76    30    29    2
    77    37    35   ar
    78    71    70    1
    79    71    72    1
    80    29    28    1
    81    61    55   am
    82    33    35   ar
    83    28    27    1
    84    48    47    2
    85    70    67    1
    86    52    50    1
    87    67    66    1
    88    72    73   ar
    89    72    74   ar
    90    56    55    2
    91    55    54    1
    92    59    57    1
    93    47    46    1
    94    49    50    1
    95    49    46    1
    96    50    51    1
    97    46    45    1
    98    57    54    1
    99    57    58    1
   100    54    53    1
   101    60    58    1
