@<TRIPOS>MOLECULE
tmp/6h1tB03.pdb
 90 88 0 0 0
SMALL
GASTEIGER

@<TRIPOS>ATOM
      1  N         76.4430  -17.6130   31.6770 N.3   366  ILE366     -0.1231
      2  CA        75.2940  -17.0680   32.3820 C.3   366  ILE366      0.1692
      3  C         75.6060  -15.7100   32.9950 C.2   366  ILE366      0.2592
      4  O         74.8500  -14.7980   32.8730 O.2   366  ILE366     -0.2718
      5  CB        74.8310  -18.0370   33.5150 C.3   366  ILE366      0.0266
      6  CG1       74.3090  -19.3590   32.9340 C.3   366  ILE366      0.0019
      7  CG2       73.7670  -17.3770   34.3990 C.3   366  ILE366      0.0020
      8  CD1       73.0470  -19.2390   32.1310 C.3   366  ILE366      0.0001
      9  N         76.7050  -15.6240   33.7250 N.am  367  TRP367     -0.1976
     10  CA        76.9360  -14.4900   34.6010 C.3   367  TRP367      0.1640
     11  C         77.8270  -13.4290   33.9810 C.2   367  TRP367      0.2290
     12  O         77.9190  -12.3400   34.5230 O.2   367  TRP367     -0.2864
     13  CB        77.5370  -14.9420   35.9340 C.3   367  TRP367      0.0576
     14  CG        76.6500  -15.9170   36.7080 C.ar  367  TRP367      0.0006
     15  CD1       76.7270  -17.2700   36.6630 C.ar  367  TRP367      0.0946
     16  CD2       75.6030  -15.5970   37.5850 C.ar  367  TRP367      0.0152
     17  NE1       75.7620  -17.8190   37.4400 N.ar  367  TRP367     -0.2442
     18  CE2       75.0500  -16.8070   38.0280 C.ar  367  TRP367      0.0810
     19  CE3       75.0790  -14.4050   38.0640 C.ar  367  TRP367      0.0012
     20  CZ2       74.0280  -16.8550   38.9360 C.ar  367  TRP367      0.0191
     21  CZ3       74.0100  -14.4530   38.9640 C.ar  367  TRP367      0.0001
     22  CH2       73.4960  -15.6800   39.3850 C.ar  367  TRP367      0.0015
     23  N         79.9160   -8.6390   43.3030 N.3   375  ARG375     -0.1245
     24  CA        79.1440   -7.5490   42.7980 C.3   375  ARG375      0.1563
     25  C         77.6510   -7.8310   43.0660 C.2   375  ARG375      0.2260
     26  O         76.9600   -8.4950   42.2920 O.2   375  ARG375     -0.2867
     27  CB        79.4490   -7.3660   41.3050 C.3   375  ARG375      0.0307
     28  CG        78.9910   -6.0190   40.7640 C.3   375  ARG375      0.0489
     29  CD        79.6290   -5.6670   39.4290 C.3   375  ARG375      0.2205
     30  NE        79.4370   -6.7370   38.4570 N.pl3 375  ARG375     -0.0865
     31  CZ        78.3080   -6.9560   37.7930 C.cat 375  ARG375      0.5346
     32  NH1       77.2330   -6.1860   37.9840 N.pl3 375  ARG375      0.1354
     33  NH2       78.2500   -7.9620   36.9420 N.pl3 375  ARG375      0.1354
     34  N         75.1040   -6.1640   42.7870 N.3   377  GLU377     -0.1231
     35  CA        74.2250   -5.5670   41.7750 C.3   377  GLU377      0.1699
     36  C         73.8120   -6.5480   40.7280 C.2   377  GLU377      0.2592
     37  O         72.8310   -6.3260   40.0580 O.2   377  GLU377     -0.2718
     38  CB        74.8830   -4.3270   41.1280 C.3   377  GLU377      0.0402
     39  CG        75.0010   -3.1260   42.1080 C.3   377  GLU377      0.1161
     40  CD        76.1560   -3.2530   43.1460 C.2   377  GLU377      0.3649
     41  OE1       77.0260   -4.1590   43.0470 O.co2 377  GLU377     -0.2457
     42  OE2       76.2220   -2.4290   44.0840 O.co2 377  GLU377     -0.2457
     43  N         74.5200   -7.6660   40.6180 N.am  378  ARG378     -0.1980
     44  CA        74.0820   -8.7710   39.7470 C.3   378  ARG378      0.1597
     45  C         72.6770   -9.1710   40.0090 C.2   378  ARG378      0.2287
     46  O         72.0250   -9.6760   39.1100 O.2   378  ARG378     -0.2864
     47  CB        74.8580  -10.0840   39.9960 C.3   378  ARG378      0.0334
     48  CG        76.2290  -10.0650   39.5060 C.3   378  ARG378      0.0492
     49  CD        76.8930  -11.3320   39.9880 C.3   378  ARG378      0.2205
     50  NE        78.2780  -11.0710   40.1490 N.pl3 378  ARG378     -0.0865
     51  CZ        79.1620  -11.0590   39.1750 C.cat 378  ARG378      0.5346
     52  NH1       78.7710  -11.2400   37.9220 N.pl3 378  ARG378      0.1354
     53  NH2       80.4490  -10.8460   39.4650 N.pl3 378  ARG378      0.1354
     54  N         70.2020   -7.3140   41.0850 N.3   380  GLU380     -0.1231
     55  CA        69.2980   -6.1850   41.0440 C.3   380  GLU380      0.1699
     56  C         67.9280   -6.6100   40.5070 C.2   380  GLU380      0.2592
     57  O         66.9200   -6.3040   41.1260 O.2   380  GLU380     -0.2718
     58  CB        69.8740   -5.0690   40.1640 C.3   380  GLU380      0.0402
     59  CG        69.0990   -3.7740   40.3110 C.3   380  GLU380      0.1161
     60  CD        69.5580   -2.9620   41.5170 C.2   380  GLU380      0.3649
     61  OE1       68.6890   -2.6430   42.3840 O.co2 380  GLU380     -0.2457
     62  OE2       70.7810   -2.6580   41.5970 O.co2 380  GLU380     -0.2457
     63  N         67.9260   -7.3360   39.3900 N.am  381  ASN381     -0.1974
     64  CA        66.7120   -7.8460   38.7510 C.3   381  ASN381      0.1688
     65  C         66.6440   -9.3520   38.7620 C.2   381  ASN381      0.2292
     66  O         67.0500  -10.0160   37.8140 O.2   381  ASN381     -0.2864
     67  CB        66.6290   -7.3380   37.3040 C.3   381  ASN381      0.1181
     68  CG        65.2860   -7.6520   36.6440 C.2   381  ASN381      0.2629
     69  OD1       64.3760   -8.3020   37.2240 O.2   381  ASN381     -0.2716
     70  ND2       65.1660   -7.2200   35.3960 N.am  381  ASN381     -0.0877
     71  N         65.4930  -11.7400   35.7530 N.3   384  ALA384     -0.1231
     72  CA        66.3060  -11.9420   34.5850 C.3   384  ALA384      0.1694
     73  C         67.3160  -13.0840   34.7460 C.2   384  ALA384      0.2592
     74  O         67.9710  -13.4520   33.7970 O.2   384  ALA384     -0.2718
     75  CB        67.0300  -10.6780   34.2370 C.3   384  ALA384      0.0304
     76  N         67.4460  -13.6650   35.9260 N.am  385  ILE385     -0.1966
     77  CA        68.3820  -14.7770   36.1290 C.3   385  ILE385      0.1712
     78  C         67.7130  -16.0690   35.6290 C.2   385  ILE385      0.2458
     79  O         66.6100  -16.3800   36.0450 O.2   385  ILE385     -0.2730
     80  CB        68.7840  -14.9270   37.6060 C.3   385  ILE385      0.0289
     81  CG1       69.5210  -13.6680   38.0740 C.3   385  ILE385      0.0022
     82  CG2       69.6940  -16.1240   37.8000 C.3   385  ILE385      0.0023
     83  CD1       69.5680  -13.5510   39.5780 C.3   385  ILE385      0.0001
     84  N         68.3630  -16.7980   34.7100 N.am  386  PRO386     -0.2727
     85  CA        67.7330  -17.9930   34.1600 C.3   386  PRO386      0.1402
     86  C         67.4900  -19.0410   35.2080 C.2   386  PRO386      0.2269
     87  O         68.2240  -19.1340   36.2080 O.2   386  PRO386     -0.2865
     88  CB        68.7510  -18.5080   33.1630 C.3   386  PRO386      0.0296
     89  CG        69.5470  -17.3050   32.7890 C.3   386  PRO386      0.0237
     90  CD        69.6130  -16.4740   34.0190 C.3   386  PRO386      0.0939
@<TRIPOS>BOND
     1     1     2    1
     2     8     6    1
     3     2     3    1
     4     2     5    1
     5    89    88    1
     6    89    90    1
     7     4     3    2
     8     6     5    1
     9     3     9   am
    10    88    85    1
    11     5     7    1
    12     9    10    1
    13    74    73    2
    14    11    12    2
    15    11    10    1
    16    90    84    1
    17    85    84    1
    18    85    86    1
    19    75    72    1
    20    72    73    1
    21    72    71    1
    22    10    13    1
    23    84    78   am
    24    73    76   am
    25    86    87    2
    26    70    68   am
    27    78    79    2
    28    78    77    1
    29    76    77    1
    30    13    14    1
    31    77    80    1
    32    68    69    2
    33    68    67    1
    34    15    14   ar
    35    15    17   ar
    36    14    16   ar
    37    33    31    1
    38    67    64    1
    39    17    18   ar
    40    16    18   ar
    41    16    19   ar
    42    80    82    1
    43    80    81    1
    44    31    32    1
    45    31    30    2
    46    66    65    2
    47    52    51    1
    48    18    20   ar
    49    19    21   ar
    50    81    83    1
    51    30    29    1
    52    64    65    1
    53    64    63    1
    54    20    22   ar
    55    21    22   ar
    56    46    45    2
    57    51    53    1
    58    51    50    2
    59    63    56   am
    60    29    28    1
    61    48    49    1
    62    48    47    1
    63    44    47    1
    64    44    45    1
    65    44    43    1
    66    49    50    1
    67    37    36    2
    68    58    59    1
    69    58    55    1
    70    59    60    1
    71    56    55    1
    72    56    57    2
    73    43    36   am
    74    36    35    1
    75    28    27    1
    76    55    54    1
    77    38    35    1
    78    38    39    1
    79    27    24    1
    80    60    62   ar
    81    60    61   ar
    82    35    34    1
    83    39    40    1
    84    26    25    2
    85    24    25    1
    86    24    23    1
    87    41    40   ar
    88    40    42   ar
