@<TRIPOS>MOLECULE
tmp/6h1tA02.pdb
 69 66 0 0 0
SMALL
GASTEIGER

@<TRIPOS>ATOM
      1  N         96.7130   -6.4030  110.7050 N.3    72  SER72      -0.1217
      2  CA        96.7240   -7.7430  111.2570 C.3    72  SER72       0.1889
      3  C         97.7060   -8.6070  110.4850 C.2    72  SER72       0.2288
      4  O         98.2440   -8.1690  109.4690 O.2    72  SER72      -0.2866
      5  CB        95.3400   -8.3440  111.0920 C.3    72  SER72       0.2089
      6  OG        94.9010   -8.2960  109.7410 O.3    72  SER72      -0.2183
      7  N         96.9310  -11.0990  108.5620 N.3    74  ALA74      -0.1231
      8  CA        96.4050  -11.2520  107.2090 C.3    74  ALA74       0.1694
      9  C         96.6600  -10.0060  106.3600 C.2    74  ALA74       0.2591
     10  O         97.0500  -10.1100  105.2240 O.2    74  ALA74      -0.2718
     11  CB        94.9290  -11.5830  107.2610 C.3    74  ALA74       0.0304
     12  N         96.5110   -8.8240  106.9400 N.am   75  LEU75      -0.1980
     13  CA        96.7520   -7.5870  106.2070 C.3    75  LEU75       0.1596
     14  C         98.2160   -7.3600  105.8770 C.2    75  LEU75       0.2287
     15  O         98.5480   -6.8840  104.7860 O.2    75  LEU75      -0.2864
     16  CB        96.2030   -6.3690  106.9310 C.3    75  LEU75       0.0297
     17  CG        94.7080   -6.1120  106.8130 C.3    75  LEU75       0.0022
     18  CD1       94.3080   -4.7830  107.4490 C.3    75  LEU75       0.0001
     19  CD2       94.2730   -6.1070  105.3360 C.3    75  LEU75       0.0001
     20  N         83.1620   -9.0010  105.6620 N.3   328  ALA328     -0.1231
     21  CA        84.5470   -8.7490  106.1280 C.3   328  ALA328      0.1679
     22  C         84.5100   -8.8940  107.6510 C.2   328  ALA328      0.2434
     23  O         84.2390   -7.9340  108.3320 O.2   328  ALA328     -0.2733
     24  CB        84.9970   -7.3470  105.7440 C.3   328  ALA328      0.0304
     25  N         84.6980  -10.1260  108.1730 N.am  329  PRO329     -0.2718
     26  CA        84.2520  -10.4270  109.5300 C.3   329  PRO329      0.1535
     27  C         85.1200   -9.8930  110.6770 C.2   329  PRO329      0.2598
     28  O         84.7650  -10.1120  111.8150 O.2   329  PRO329     -0.2715
     29  CB        84.1870  -11.9410  109.5560 C.3   329  PRO329      0.0310
     30  CG        85.1120  -12.3820  108.4790 C.3   329  PRO329      0.0237
     31  CD        85.0490  -11.3530  107.4340 C.3   329  PRO329      0.0939
     32  N         86.2050   -9.1630  110.3950 N.am  330  ALA330     -0.1964
     33  CA        87.0130   -8.5920  111.4450 C.3   330  ALA330      0.1728
     34  C         87.7980   -7.4180  110.9600 C.2   330  ALA330      0.2616
     35  O         88.0120   -7.2650  109.7460 O.2   330  ALA330     -0.2715
     36  CB        87.9270   -9.6540  112.0470 C.3   330  ALA330      0.0334
     37  N         88.1470   -6.5380  111.8990 N.am  331  PHE331     -0.1960
     38  CA        89.1400   -5.5110  111.6540 C.3   331  PHE331      0.1771
     39  C         89.9740   -5.3450  112.9070 C.2   331  PHE331      0.2620
     40  O         89.5830   -5.8210  113.9960 O.2   331  PHE331     -0.2715
     41  CB        88.5750   -4.1850  111.1360 C.3   331  PHE331      0.0574
     42  CG        87.5830   -3.5120  112.0670 C.ar  331  PHE331     -0.0200
     43  CD1       86.2430   -3.8600  112.0340 C.ar  331  PHE331     -0.0042
     44  CD2       87.9900   -2.5250  112.9150 C.ar  331  PHE331     -0.0042
     45  CE1       85.3370   -3.2710  112.8850 C.ar  331  PHE331     -0.0003
     46  CE2       87.0880   -1.8970  113.7620 C.ar  331  PHE331     -0.0003
     47  CZ        85.7540   -2.2980  113.7610 C.ar  331  PHE331     -0.0000
     48  N         91.1630   -4.7860  112.7200 N.am  332  SER332     -0.1950
     49  CA        92.1920   -4.8710  113.7200 C.3   332  SER332      0.1924
     50  C         92.6200   -3.4680  114.1470 C.2   332  SER332      0.2314
     51  O         92.6560   -2.5490  113.3160 O.2   332  SER332     -0.2863
     52  CB        93.3950   -5.6310  113.1910 C.3   332  SER332      0.2116
     53  OG        94.3670   -5.8100  114.2110 O.3   332  SER332     -0.2180
     54  N         91.4970   -7.4010  118.0250 N.3   354  MET354     -0.1245
     55  CA        90.7190   -7.8170  116.8690 C.3   354  MET354      0.1570
     56  C         89.2280   -7.6900  117.1880 C.2   354  MET354      0.2261
     57  O         88.7410   -8.2620  118.1650 O.2   354  MET354     -0.2867
     58  CB        91.0580   -9.2440  116.5010 C.3   354  MET354      0.0387
     59  CG        90.5200   -9.6460  115.1520 C.3   354  MET354      0.0595
     60  SD        91.4230   -8.9310  113.7490 S.3   354  MET354     -0.1393
     61  CE        93.0280   -9.4700  114.0780 C.3   354  MET354      0.0692
     62  N         89.2660  -15.0520  103.1700 N.3   437  LEU437     -0.1245
     63  CA        89.2290  -13.8320  103.9740 C.3   437  LEU437      0.1561
     64  C         87.8020  -13.2900  104.1190 C.2   437  LEU437      0.2260
     65  O         87.5420  -12.4880  104.9870 O.2   437  LEU437     -0.2867
     66  CB        90.1490  -12.7590  103.4160 C.3   437  LEU437      0.0270
     67  CG        91.6490  -13.0050  103.5700 C.3   437  LEU437      0.0019
     68  CD1       92.4000  -11.7810  103.1010 C.3   437  LEU437      0.0001
     69  CD2       92.0010  -13.3060  105.0040 C.3   437  LEU437      0.0001
@<TRIPOS>BOND
     1    68    67    1
     2    62    63    1
     3    66    67    1
     4    66    63    1
     5    67    69    1
     6    63    64    1
     7    64    65    2
     8    15    14    2
     9    10     9    2
    10    19    17    1
    11    20    21    1
    12    24    21    1
    13    14    13    1
    14    21    22    1
    15    13    16    1
    16    13    12    1
    17     9    12   am
    18     9     8    1
    19    17    16    1
    20    17    18    1
    21     8    11    1
    22     8     7    1
    23    31    25    1
    24    31    30    1
    25    22    25   am
    26    22    23    2
    27    25    26    1
    28    30    29    1
    29     4     3    2
    30    26    29    1
    31    26    27    1
    32     6     5    1
    33    35    34    2
    34    32    27   am
    35    32    33    1
    36     3     2    1
    37    27    28    2
    38     1     2    1
    39    34    33    1
    40    34    37   am
    41     5     2    1
    42    41    38    1
    43    41    42    1
    44    33    36    1
    45    38    37    1
    46    38    39    1
    47    43    42   ar
    48    43    45   ar
    49    42    44   ar
    50    48    39   am
    51    48    49    1
    52    45    47   ar
    53    39    40    2
    54    44    46   ar
    55    52    49    1
    56    52    53    1
    57    51    50    2
    58    49    50    1
    59    60    61    1
    60    60    59    1
    61    47    46   ar
    62    59    58    1
    63    58    55    1
    64    55    56    1
    65    55    54    1
    66    56    57    2
