@<TRIPOS>MOLECULE
tmp/6h1tA01.pdb
 134 124 0 0 0
SMALL
GASTEIGER

@<TRIPOS>ATOM
      1  N         93.8740    1.9990  113.5150 N.3    69  LYS69      -0.1245
      2  CA        93.8390    0.8000  112.6740 C.3    69  LYS69       0.1561
      3  C         95.1960    0.0890  112.7350 C.2    69  LYS69       0.2260
      4  O         96.2570    0.7100  112.5520 O.2    69  LYS69      -0.2867
      5  CB        93.5420    1.1660  111.2380 C.3    69  LYS69       0.0271
      6  CG        93.8620    0.0090  110.2360 C.3    69  LYS69       0.0035
      7  CD        93.1460    0.1820  108.8890 C.3    69  LYS69       0.0206
      8  CE        93.6560   -0.8550  107.8710 C.3    69  LYS69       0.1093
      9  NZ        92.6760   -1.0670  106.7970 N.3    69  LYS69      -0.1314
     10  N         96.5110   -8.8240  106.9400 N.3    75  LEU75      -0.1245
     11  CA        96.7520   -7.5870  106.2070 C.3    75  LEU75       0.1561
     12  C         98.2160   -7.3600  105.8770 C.2    75  LEU75       0.2260
     13  O         98.5480   -6.8840  104.7860 O.2    75  LEU75      -0.2867
     14  CB        96.2030   -6.3690  106.9310 C.3    75  LEU75       0.0270
     15  CG        94.7080   -6.1120  106.8130 C.3    75  LEU75       0.0019
     16  CD1       94.3080   -4.7830  107.4490 C.3    75  LEU75       0.0001
     17  CD2       94.2730   -6.1070  105.3360 C.3    75  LEU75       0.0001
     18  N         98.8090   -9.7220  102.8930 N.3    78  VAL78      -0.1245
     19  CA        98.3180   -9.2320  101.5840 C.3    78  VAL78       0.1561
     20  C         98.9190   -7.9080  101.1930 C.2    78  VAL78       0.2260
     21  O         98.8110   -7.4830  100.0480 O.2    78  VAL78      -0.2867
     22  CB        96.7820   -9.1990  101.4600 C.3    78  VAL78       0.0252
     23  CG1       96.1800  -10.5600  101.6910 C.3    78  VAL78       0.0019
     24  CG2       96.1740   -8.1890  102.3910 C.3    78  VAL78       0.0019
     25  N         98.9910   -5.6020   97.8390 N.3    82  PHE82      -0.1241
     26  CA        98.2560   -4.3490   97.7440 C.3    82  PHE82       0.1605
     27  C         99.0580   -3.1310   98.1550 C.2    82  PHE82       0.2264
     28  O         98.5540   -1.9990   98.1000 O.2    82  PHE82      -0.2867
     29  CB        96.9400   -4.4470   98.5250 C.3    82  PHE82       0.0534
     30  CG        96.0700   -5.5610   98.0490 C.ar   82  PHE82      -0.0203
     31  CD1       95.3430   -5.4210   96.8660 C.ar   82  PHE82      -0.0042
     32  CD2       96.0040   -6.7670   98.7270 C.ar   82  PHE82      -0.0042
     33  CE1       94.5290   -6.4510   96.3740 C.ar   82  PHE82      -0.0003
     34  CE2       95.2230   -7.8310   98.2070 C.ar   82  PHE82      -0.0003
     35  CZ        94.4760   -7.6580   97.0480 C.ar   82  PHE82      -0.0000
     36  N         93.8010    0.1830  101.6900 N.3    87  VAL87      -0.1231
     37  CA        93.3780   -0.8380  102.6320 C.3    87  VAL87       0.1692
     38  C         94.5560   -1.3200  103.4870 C.2    87  VAL87       0.2592
     39  O         94.3770   -1.6410  104.6480 O.2    87  VAL87      -0.2718
     40  CB        92.7080   -2.0380  101.9070 C.3    87  VAL87       0.0266
     41  CG1       92.4550   -3.1680  102.8530 C.3    87  VAL87       0.0020
     42  CG2       91.4000   -1.6030  101.2500 C.3    87  VAL87       0.0020
     43  N         95.7300   -1.3970  102.8820 N.am   88  THR88      -0.1953
     44  CA        96.8600   -2.0350  103.4980 C.3    88  THR88       0.1897
     45  C         97.9370   -1.0330  103.9470 C.2    88  THR88       0.2313
     46  O         99.0280   -1.4160  104.3060 O.2    88  THR88      -0.2863
     47  CB        97.4920   -3.0680  102.5710 C.3    88  THR88       0.1794
     48  OG1       97.6430   -2.5070  101.2700 O.3    88  THR88      -0.2208
     49  CG2       96.6470   -4.2930  102.5030 C.3    88  THR88       0.0378
     50  N         93.7270   -2.7670   94.5480 N.3   260  THR260     -0.1218
     51  CA        93.0330   -2.6790   95.8090 C.3   260  THR260      0.1862
     52  C         91.5420   -2.5620   95.5490 C.2   260  THR260      0.2287
     53  O         90.7290   -3.2410   96.1830 O.2   260  THR260     -0.2866
     54  CB        93.5370   -1.4830   96.6750 C.3   260  THR260      0.1770
     55  OG1       94.8630   -1.7440   97.0980 O.3   260  THR260     -0.2211
     56  CG2       92.6960   -1.2750   97.8420 C.3   260  THR260      0.0375
     57  N         89.6370   -5.6500   93.9150 N.3   263  ILE263     -0.1231
     58  CA        89.3780   -6.7510   94.9250 C.3   263  ILE263      0.1692
     59  C         88.3390   -6.2660   95.9510 C.2   263  ILE263      0.2591
     60  O         87.3710   -6.9340   96.1900 O.2   263  ILE263     -0.2718
     61  CB        90.6730   -7.1670   95.5850 C.3   263  ILE263      0.0266
     62  CG1       91.6170   -7.8190   94.5360 C.3   263  ILE263      0.0019
     63  CG2       90.4310   -8.1310   96.7240 C.3   263  ILE263      0.0020
     64  CD1       90.9680   -8.7520   93.5550 C.3   263  ILE263      0.0001
     65  N         88.5420   -5.0520   96.5060 N.am  264  ALA264     -0.1980
     66  CA        87.6090   -4.5310   97.4890 C.3   264  ALA264      0.1597
     67  C         86.2090   -4.4220   96.9200 C.2   264  ALA264      0.2287
     68  O         85.2050   -4.7440   97.5820 O.2   264  ALA264     -0.2864
     69  CB        88.0290   -3.1460   97.9590 C.3   264  ALA264      0.0319
     70  N         84.3040   -8.9450   96.0930 N.3   267  GLU267     -0.1231
     71  CA        83.9590  -10.1980   96.7930 C.3   267  GLU267      0.1699
     72  C         83.0990  -10.0230   98.0580 C.2   267  GLU267      0.2592
     73  O         82.2560  -10.8420   98.2960 O.2   267  GLU267     -0.2718
     74  CB        85.1620  -11.0540   97.0720 C.3   267  GLU267      0.0402
     75  CG        85.5940  -11.9920   95.9140 C.3   267  GLU267      0.1161
     76  CD        84.6150  -13.1420   95.5640 C.2   267  GLU267      0.3649
     77  OE1       83.3590  -12.9970   95.5480 O.co2 267  GLU267     -0.2457
     78  OE2       85.1270  -14.2340   95.2640 O.co2 267  GLU267     -0.2457
     79  N         83.2780   -8.9580   98.8430 N.am  268  THR268     -0.1953
     80  CA        82.4320   -8.7930  100.0400 C.3   268  THR268      0.1897
     81  C         80.9900   -8.4780   99.6920 C.2   268  THR268      0.2313
     82  O         80.0740   -8.9530  100.3450 O.2   268  THR268     -0.2863
     83  CB        83.0020   -7.7240  100.9670 C.3   268  THR268      0.1794
     84  OG1       83.2950   -6.5530  100.1780 O.3   268  THR268     -0.2208
     85  CG2       84.2780   -8.1990  101.6130 C.3   268  THR268      0.0378
     86  N         80.4780   -9.8090  105.7430 N.3   327  THR327     -0.1203
     87  CA        81.3850  -10.4970  104.8240 C.3   327  THR327      0.1994
     88  C         82.8560  -10.0360  104.8910 C.2   327  THR327      0.2617
     89  O         83.7160  -10.6520  104.2760 O.2   327  THR327     -0.2717
     90  CB        80.8710  -10.4330  103.4090 C.3   327  THR327      0.1784
     91  OG1       80.5920   -9.0940  103.0670 O.3   327  THR327     -0.2211
     92  CG2       79.6210  -11.2420  103.2880 C.3   327  THR327      0.0376
     93  N         83.1620   -9.0010  105.6620 N.am  328  ALA328     -0.1979
     94  CA        84.5470   -8.7490  106.1280 C.3   328  ALA328      0.1597
     95  C         84.5100   -8.8940  107.6510 C.2   328  ALA328      0.2287
     96  O         84.2390   -7.9340  108.3320 O.2   328  ALA328     -0.2864
     97  CB        84.9970   -7.3470  105.7440 C.3   328  ALA328      0.0319
     98  N         86.2050   -9.1630  110.3950 N.3   330  ALA330     -0.1231
     99  CA        87.0130   -8.5920  111.4450 C.3   330  ALA330      0.1694
    100  C         87.7980   -7.4180  110.9600 C.2   330  ALA330      0.2592
    101  O         88.0120   -7.2650  109.7460 O.2   330  ALA330     -0.2718
    102  CB        87.9270   -9.6540  112.0470 C.3   330  ALA330      0.0304
    103  N         88.1470   -6.5380  111.8990 N.am  331  PHE331     -0.1976
    104  CA        89.1400   -5.5110  111.6540 C.3   331  PHE331      0.1639
    105  C         89.9740   -5.3450  112.9070 C.2   331  PHE331      0.2290
    106  O         89.5830   -5.8210  113.9960 O.2   331  PHE331     -0.2864
    107  CB        88.5750   -4.1850  111.1360 C.3   331  PHE331      0.0560
    108  CG        87.5830   -3.5120  112.0670 C.ar  331  PHE331     -0.0200
    109  CD1       86.2430   -3.8600  112.0340 C.ar  331  PHE331     -0.0042
    110  CD2       87.9900   -2.5250  112.9150 C.ar  331  PHE331     -0.0042
    111  CE1       85.3370   -3.2710  112.8850 C.ar  331  PHE331     -0.0003
    112  CE2       87.0880   -1.8970  113.7620 C.ar  331  PHE331     -0.0003
    113  CZ        85.7540   -2.2980  113.7610 C.ar  331  PHE331     -0.0000
    114  N         85.0970    1.8120  105.7580 N.3   400  CYS400     -0.1235
    115  CA        85.0530    1.4560  104.3320 C.3   400  CYS400      0.1677
    116  C         84.7030    2.6310  103.4790 C.2   400  CYS400      0.2270
    117  O         83.6250    3.1960  103.6070 O.2   400  CYS400     -0.2867
    118  CB        84.0270    0.3450  104.0810 C.3   400  CYS400      0.0956
    119  SG        83.9280   -0.1900  102.3900 S.3   400  CYS400     -0.0801
    120  N         89.2660  -15.0520  103.1700 N.3   437  LEU437     -0.1231
    121  CA        89.2290  -13.8320  103.9740 C.3   437  LEU437      0.1693
    122  C         87.8020  -13.2900  104.1190 C.2   437  LEU437      0.2592
    123  O         87.5420  -12.4880  104.9870 O.2   437  LEU437     -0.2718
    124  CB        90.1490  -12.7590  103.4160 C.3   437  LEU437      0.0284
    125  CG        91.6490  -13.0050  103.5700 C.3   437  LEU437      0.0019
    126  CD1       92.4000  -11.7810  103.1010 C.3   437  LEU437      0.0001
    127  CD2       92.0010  -13.3060  105.0040 C.3   437  LEU437      0.0001
    128  N         86.9000  -13.7510  103.2560 N.am  438  THR438     -0.1953
    129  CA        85.5030  -13.4510  103.3240 C.3   438  THR438      0.1897
    130  C         84.6680  -14.7010  103.6310 C.2   438  THR438      0.2313
    131  O         85.1900  -15.7550  103.9080 O.2   438  THR438     -0.2863
    132  CB        85.0230  -12.7370  102.0390 C.3   438  THR438      0.1794
    133  OG1       83.6970  -12.2390  102.2260 O.3   438  THR438     -0.2208
    134  CG2       85.0400  -13.6670  100.7930 C.3   438  THR438      0.0378
@<TRIPOS>BOND
     1    64    62    1
     2    57    58    1
     3    62    61    1
     4    50    51    1
     5    58    61    1
     6    58    59    1
     7    78    76   ar
     8    77    76   ar
     9    52    51    1
    10    52    53    2
    11    76    75    1
    12    61    63    1
    13    51    54    1
    14    75    74    1
    15    59    60    2
    16    59    65   am
    17    70    71    1
    18    33    31   ar
    19    33    35   ar
    20    65    66    1
    21    54    55    1
    22    54    56    1
    23    71    74    1
    24    71    72    1
    25    31    30   ar
    26    67    66    1
    27    67    68    2
    28    35    34   ar
    29    66    69    1
    30    26    25    1
    31    26    27    1
    32    26    29    1
    33    30    29    1
    34    30    32   ar
    35    72    73    2
    36    72    79   am
    37    28    27    2
    38    34    32   ar
    39    79    80    1
    40    81    80    1
    41    81    82    2
    42    80    83    1
    43    21    20    2
    44    84    83    1
    45   134   132    1
    46    83    85    1
    47    20    19    1
    48    42    40    1
    49    48    47    1
    50    22    19    1
    51    22    23    1
    52    22    24    1
    53    19    18    1
    54    36    37    1
    55    40    37    1
    56    40    41    1
    57   132   133    1
    58   132   129    1
    59   119   118    1
    60    49    47    1
    61    47    44    1
    62    37    38    1
    63    43    38   am
    64    43    44    1
    65    91    90    1
    66   126   125    1
    67   120   121    1
    68   128   129    1
    69   128   122   am
    70    92    90    1
    71   129   130    1
    72    90    87    1
    73   124   125    1
    74   124   121    1
    75   116   117    2
    76   116   115    1
    77    38    39    2
    78    44    45    1
    79   125   127    1
    80   130   131    2
    81    45    46    2
    82   121   122    1
    83   118   115    1
    84   122   123    2
    85    89    88    2
    86   115   114    1
    87    13    12    2
    88    87    88    1
    89    87    86    1
    90    88    93   am
    91    17    15    1
    92    93    94    1
    93    97    94    1
    94    12    11    1
    95    94    95    1
    96    11    14    1
    97    11    10    1
    98     9     8    1
    99    15    14    1
   100    15    16    1
   101    95    96    2
   102     8     7    1
   103     7     6    1
   104   101   100    2
   105     6     5    1
   106    98    99    1
   107   100    99    1
   108   100   103   am
   109   107   104    1
   110   107   108    1
   111     5     2    1
   112    99   102    1
   113   104   103    1
   114   104   105    1
   115   109   108   ar
   116   109   111   ar
   117   108   110   ar
   118     4     3    2
   119     2     3    1
   120     2     1    1
   121   111   113   ar
   122   105   106    2
   123   110   112   ar
   124   113   112   ar
