@<TRIPOS>MOLECULE
tmp/6h1tA03.pdb
 98 92 0 0 0
SMALL
GASTEIGER

@<TRIPOS>ATOM
      1  N         98.8090   -9.7220  102.8930 N.3    78  VAL78      -0.1245
      2  CA        98.3180   -9.2320  101.5840 C.3    78  VAL78       0.1561
      3  C         98.9190   -7.9080  101.1930 C.2    78  VAL78       0.2260
      4  O         98.8110   -7.4830  100.0480 O.2    78  VAL78      -0.2867
      5  CB        96.7820   -9.1990  101.4600 C.3    78  VAL78       0.0252
      6  CG1       96.1800  -10.5600  101.6910 C.3    78  VAL78       0.0019
      7  CG2       96.1740   -8.1890  102.3910 C.3    78  VAL78       0.0019
      8  N         98.9910   -5.6020   97.8390 N.3    82  PHE82      -0.1241
      9  CA        98.2560   -4.3490   97.7440 C.3    82  PHE82       0.1605
     10  C         99.0580   -3.1310   98.1550 C.2    82  PHE82       0.2264
     11  O         98.5540   -1.9990   98.1000 O.2    82  PHE82      -0.2867
     12  CB        96.9400   -4.4470   98.5250 C.3    82  PHE82       0.0534
     13  CG        96.0700   -5.5610   98.0490 C.ar   82  PHE82      -0.0203
     14  CD1       95.3430   -5.4210   96.8660 C.ar   82  PHE82      -0.0042
     15  CD2       96.0040   -6.7670   98.7270 C.ar   82  PHE82      -0.0042
     16  CE1       94.5290   -6.4510   96.3740 C.ar   82  PHE82      -0.0003
     17  CE2       95.2230   -7.8310   98.2070 C.ar   82  PHE82      -0.0003
     18  CZ        94.4760   -7.6580   97.0480 C.ar   82  PHE82      -0.0000
     19  N         91.2220  -12.9240   88.2310 N.3   174  ILE174     -0.1245
     20  CA        90.7930  -13.4410   89.5260 C.3   174  ILE174      0.1561
     21  C         91.5370  -14.7770   89.8130 C.2   174  ILE174      0.2260
     22  O         92.0970  -14.9750   90.8690 O.2   174  ILE174     -0.2867
     23  CB        89.2890  -13.6150   89.5930 C.3   174  ILE174      0.0252
     24  CG1       88.5930  -12.2410   89.5700 C.3   174  ILE174      0.0019
     25  CG2       88.8720  -14.3680   90.8440 C.3   174  ILE174      0.0019
     26  CD1       89.0400  -11.2830   90.6520 C.3   174  ILE174      0.0001
     27  N         95.0960  -14.0440   90.7160 N.3   177  MET177     -0.1230
     28  CA        95.2260  -13.4800   92.0430 C.3   177  MET177      0.1702
     29  C         95.0710  -14.5910   93.1090 C.2   177  MET177      0.2592
     30  O         95.8750  -14.6630   94.0340 O.2   177  MET177     -0.2718
     31  CB        94.2020  -12.3650   92.2600 C.3   177  MET177      0.0401
     32  CG        94.0870  -11.8220   93.6610 C.3   177  MET177      0.0596
     33  SD        95.3530  -10.6110   94.0910 S.3   177  MET177     -0.1393
     34  CE        94.7410   -9.2530   93.1430 C.3   177  MET177      0.0692
     35  N         94.0480  -15.4040   92.9940 N.am  178  VAL178     -0.1980
     36  CA        93.7860  -16.4640   93.9600 C.3   178  VAL178      0.1595
     37  C         94.9930  -17.3960   94.0380 C.2   178  VAL178      0.2287
     38  O         95.4380  -17.7680   95.1220 O.2   178  VAL178     -0.2864
     39  CB        92.5210  -17.2340   93.6200 C.3   178  VAL178      0.0276
     40  CG1       92.3910  -18.5180   94.4720 C.3   178  VAL178      0.0022
     41  CG2       91.3190  -16.3340   93.7970 C.3   178  VAL178      0.0022
     42  N         98.1280  -15.6640   95.6530 N.3   181  LEU181     -0.1245
     43  CA        97.9990  -15.5450   97.0920 C.3   181  LEU181      0.1561
     44  C         98.1510  -16.9150   97.7380 C.2   181  LEU181      0.2260
     45  O         98.8060  -17.0330   98.7510 O.2   181  LEU181     -0.2867
     46  CB        96.6660  -14.9330   97.4810 C.3   181  LEU181      0.0270
     47  CG        96.4960  -13.4360   97.2040 C.3   181  LEU181      0.0019
     48  CD1       95.0290  -13.0300   97.3310 C.3   181  LEU181      0.0001
     49  CD2       97.3010  -12.6250   98.1620 C.3   181  LEU181      0.0001
     50  N         89.6370   -5.6500   93.9150 N.3   263  ILE263     -0.1245
     51  CA        89.3780   -6.7510   94.9250 C.3   263  ILE263      0.1561
     52  C         88.3390   -6.2660   95.9510 C.2   263  ILE263      0.2260
     53  O         87.3710   -6.9340   96.1900 O.2   263  ILE263     -0.2867
     54  CB        90.6730   -7.1670   95.5850 C.3   263  ILE263      0.0252
     55  CG1       91.6170   -7.8190   94.5360 C.3   263  ILE263      0.0019
     56  CG2       90.4310   -8.1310   96.7240 C.3   263  ILE263      0.0019
     57  CD1       90.9680   -8.7520   93.5550 C.3   263  ILE263      0.0001
     58  N         84.4790   -6.1940   94.8820 N.3   266  HIS266     -0.1226
     59  CA        83.6220   -7.2220   94.4640 C.3   266  HIS266      0.1752
     60  C         83.3140   -8.3790   95.4170 C.2   266  HIS266      0.2595
     61  O         82.1820   -8.7910   95.5100 O.2   266  HIS266     -0.2718
     62  CB        84.0940   -7.7460   93.1430 C.3   266  HIS266      0.0759
     63  CG        85.0540   -8.8730   93.2330 C.ar  266  HIS266      0.0818
     64  ND1       86.4070   -8.6750   93.2800 N.ar  266  HIS266     -0.2268
     65  CD2       84.8640  -10.2070   93.0630 C.ar  266  HIS266      0.1154
     66  CE1       87.0150   -9.8490   93.2180 C.ar  266  HIS266      0.1986
     67  NE2       86.0930  -10.7910   93.0980 N.ar  266  HIS266     -0.2212
     68  N         84.3040   -8.9450   96.0930 N.am  267  GLU267     -0.1979
     69  CA        83.9590  -10.1980   96.7930 C.3   267  GLU267      0.1602
     70  C         83.0990  -10.0230   98.0580 C.2   267  GLU267      0.2287
     71  O         82.2560  -10.8420   98.2960 O.2   267  GLU267     -0.2864
     72  CB        85.1620  -11.0540   97.0720 C.3   267  GLU267      0.0415
     73  CG        85.5940  -11.9920   95.9140 C.3   267  GLU267      0.1163
     74  CD        84.6150  -13.1420   95.5640 C.2   267  GLU267      0.3649
     75  OE1       83.3590  -12.9970   95.5480 O.co2 267  GLU267     -0.2457
     76  OE2       85.1270  -14.2340   95.2640 O.co2 267  GLU267     -0.2457
     77  N         87.2310  -17.7360  103.4210 N.3   436  THR436     -0.1203
     78  CA        88.5200  -17.3510  102.8690 C.3   436  THR436      0.1994
     79  C         88.8770  -16.1840  103.7280 C.2   436  THR436      0.2618
     80  O         88.7610  -16.2780  104.9250 O.2   436  THR436     -0.2717
     81  CB        88.3900  -16.9860  101.4170 C.3   436  THR436      0.1784
     82  OG1       87.3050  -16.0710  101.2050 O.3   436  THR436     -0.2211
     83  CG2       88.1100  -18.2500  100.5660 C.3   436  THR436      0.0376
     84  N         89.2660  -15.0520  103.1700 N.am  437  LEU437     -0.1965
     85  CA        89.2290  -13.8320  103.9740 C.3   437  LEU437      0.1728
     86  C         87.8020  -13.2900  104.1190 C.2   437  LEU437      0.2616
     87  O         87.5420  -12.4880  104.9870 O.2   437  LEU437     -0.2715
     88  CB        90.1490  -12.7590  103.4160 C.3   437  LEU437      0.0311
     89  CG        91.6490  -13.0050  103.5700 C.3   437  LEU437      0.0022
     90  CD1       92.4000  -11.7810  103.1010 C.3   437  LEU437      0.0001
     91  CD2       92.0010  -13.3060  105.0040 C.3   437  LEU437      0.0001
     92  N         86.9000  -13.7510  103.2560 N.am  438  THR438     -0.1951
     93  CA        85.5030  -13.4510  103.3240 C.3   438  THR438      0.1897
     94  C         84.6680  -14.7010  103.6310 C.2   438  THR438      0.2313
     95  O         85.1900  -15.7550  103.9080 O.2   438  THR438     -0.2863
     96  CB        85.0230  -12.7370  102.0390 C.3   438  THR438      0.1794
     97  OG1       83.6970  -12.2390  102.2260 O.3   438  THR438     -0.2208
     98  CG2       85.0400  -13.6670  100.7930 C.3   438  THR438      0.0378
@<TRIPOS>BOND
     1    19    20    1
     2    20    23    1
     3    20    21    1
     4    24    23    1
     5    24    26    1
     6    23    25    1
     7    21    22    2
     8    27    28    1
     9    28    31    1
    10    28    29    1
    11    31    32    1
    12    35    29   am
    13    35    36    1
    14    65    67   ar
    15    65    63   ar
    16    67    66   ar
    17    29    30    2
    18    34    33    1
    19    62    63    1
    20    62    59    1
    21    66    64   ar
    22    63    64   ar
    23    57    55    1
    24    39    41    1
    25    39    36    1
    26    39    40    1
    27    32    33    1
    28    50    51    1
    29    36    37    1
    30    37    38    2
    31    59    58    1
    32    59    60    1
    33    55    54    1
    34    51    54    1
    35    51    52    1
    36    76    74   ar
    37    60    61    2
    38    60    68   am
    39    75    74   ar
    40    74    73    1
    41    54    56    1
    42    42    43    1
    43    73    72    1
    44    52    53    2
    45    68    69    1
    46    16    14   ar
    47    16    18   ar
    48    69    72    1
    49    69    70    1
    50    14    13   ar
    51    18    17   ar
    52    43    46    1
    53    43    44    1
    54    47    48    1
    55    47    46    1
    56    47    49    1
    57    44    45    2
    58     9     8    1
    59     9    10    1
    60     9    12    1
    61    13    12    1
    62    13    15   ar
    63    70    71    2
    64    11    10    2
    65    17    15   ar
    66     4     3    2
    67    83    81    1
    68    98    96    1
    69     3     2    1
    70    82    81    1
    71    81    78    1
    72     5     2    1
    73     5     6    1
    74     5     7    1
    75     2     1    1
    76    96    97    1
    77    96    93    1
    78    78    77    1
    79    78    79    1
    80    90    89    1
    81    84    79   am
    82    84    85    1
    83    92    93    1
    84    92    86   am
    85    93    94    1
    86    88    89    1
    87    88    85    1
    88    89    91    1
    89    94    95    2
    90    79    80    2
    91    85    86    1
    92    86    87    2
