@<TRIPOS>MOLECULE
tmp/6h1tA04.pdb
 90 85 0 0 0
SMALL
GASTEIGER

@<TRIPOS>ATOM
      1  N        101.8750   -7.4690  100.6490 N.3    80  ASP80      -0.1225
      2  CA       102.8260   -7.7850   99.6050 C.3    80  ASP80       0.1805
      3  C        102.2340   -7.5540   98.2320 C.2    80  ASP80       0.2597
      4  O        102.9450   -7.3030   97.2940 O.2    80  ASP80      -0.2718
      5  CB       103.3340   -9.2110   99.6950 C.3    80  ASP80       0.1424
      6  CG       104.2790   -9.4480  100.8820 C.2    80  ASP80       0.3668
      7  OD1      104.8590   -8.4910  101.4180 O.co2  80  ASP80      -0.2456
      8  OD2      104.3530  -10.6150  101.3280 O.co2  80  ASP80      -0.2456
      9  N        100.9220   -7.7030   98.1210 N.am   81  PHE81      -0.1976
     10  CA       100.1950   -7.5220   96.8660 C.3    81  PHE81       0.1639
     11  C         99.5500   -6.1330   96.7530 C.2    81  PHE81       0.2290
     12  O         99.5580   -5.5430   95.6720 O.2    81  PHE81      -0.2864
     13  CB        99.1490   -8.5880   96.7180 C.3    81  PHE81       0.0560
     14  CG        99.7260   -9.9820   96.6580 C.ar   81  PHE81      -0.0200
     15  CD1      100.0450  -10.6750   97.7860 C.ar   81  PHE81      -0.0042
     16  CD2       99.9610  -10.5550   95.4440 C.ar   81  PHE81      -0.0042
     17  CE1      100.6130  -11.9230   97.7300 C.ar   81  PHE81      -0.0003
     18  CE2      100.4900  -11.8250   95.3580 C.ar   81  PHE81      -0.0003
     19  CZ       100.7950  -12.5230   96.5140 C.ar   81  PHE81      -0.0000
     20  N        101.6840  -13.2110   88.5700 N.3   209  ILE209     -0.1245
     21  CA       102.0230  -11.8200   88.7910 C.3   209  ILE209      0.1561
     22  C        101.9420  -11.0130   87.4680 C.2   209  ILE209      0.2260
     23  O        101.5090   -9.8590   87.4480 O.2   209  ILE209     -0.2867
     24  CB       103.4360  -11.6830   89.4310 C.3   209  ILE209      0.0252
     25  CG1      103.4480  -12.3140   90.8470 C.3   209  ILE209      0.0019
     26  CG2      103.8910  -10.2340   89.5040 C.3   209  ILE209      0.0019
     27  CD1      102.4780  -11.6820   91.8390 C.3   209  ILE209      0.0001
     28  N         98.3820  -10.1950   86.4130 N.3   212  MET212     -0.1230
     29  CA        97.8700   -9.0610   87.1660 C.3   212  MET212      0.1702
     30  C         98.4710   -7.7160   86.7230 C.2   212  MET212      0.2592
     31  O         97.7470   -6.7210   86.5660 O.2   212  MET212     -0.2718
     32  CB        98.0990   -9.2980   88.6600 C.3   212  MET212      0.0401
     33  CG        97.2670  -10.4470   89.1650 C.3   212  MET212      0.0596
     34  SD        97.4180  -10.6440   90.9360 S.3   212  MET212     -0.1393
     35  CE        99.0940  -11.1230   91.0800 C.3   212  MET212      0.0692
     36  N         99.7710   -7.6870   86.4950 N.am  213  ASN213     -0.1974
     37  CA       100.4280   -6.4830   86.0290 C.3   213  ASN213      0.1688
     38  C        100.0060   -6.1000   84.6370 C.2   213  ASN213      0.2292
     39  O         99.8600   -4.9320   84.3360 O.2   213  ASN213     -0.2864
     40  CB       101.9490   -6.6170   86.0940 C.3   213  ASN213      0.1181
     41  CG       102.4850   -6.3240   87.4630 C.2   213  ASN213      0.2629
     42  OD1      102.1140   -5.3540   88.0650 O.2   213  ASN213     -0.2716
     43  ND2      103.3750   -7.1600   87.9510 N.am  213  ASN213     -0.0877
     44  N         96.5670   -4.3060   84.9490 N.3   216  VAL216     -0.1245
     45  CA        96.7030   -2.9640   85.4710 C.3   216  VAL216      0.1561
     46  C         97.3020   -2.0290   84.4040 C.2   216  VAL216      0.2260
     47  O         96.8290   -0.8880   84.2290 O.2   216  VAL216     -0.2867
     48  CB        97.5530   -2.9560   86.7760 C.3   216  VAL216      0.0252
     49  CG1       97.7800   -1.5220   87.2450 C.3   216  VAL216      0.0019
     50  CG2       96.8230   -3.7360   87.8610 C.3   216  VAL216      0.0019
     51  N        103.4660    4.3150   91.2330 N.3   252  GLU252     -0.1245
     52  CA       103.4740    3.0670   91.9570 C.3   252  GLU252      0.1567
     53  C        102.2350    2.9540   92.8350 C.2   252  GLU252      0.2260
     54  O        101.6100    1.9090   92.9120 O.2   252  GLU252     -0.2867
     55  CB       104.7540    2.9560   92.8070 C.3   252  GLU252      0.0388
     56  CG       106.0750    3.0120   92.0250 C.3   252  GLU252      0.1160
     57  CD       106.3370    4.3330   91.2820 C.2   252  GLU252      0.3649
     58  OE1      106.8410    4.2450   90.1550 O.co2 252  GLU252     -0.2457
     59  OE2      106.0650    5.4550   91.7810 O.co2 252  GLU252     -0.2457
     60  N         99.0310    2.0560   90.9190 N.3   255  ARG255     -0.1231
     61  CA        98.9260    0.6180   90.6110 C.3   255  ARG255      0.1694
     62  C         98.3700   -0.1870   91.7990 C.2   255  ARG255      0.2592
     63  O         97.4920   -1.0010   91.6400 O.2   255  ARG255     -0.2718
     64  CB       100.2500    0.0260   90.2200 C.3   255  ARG255      0.0321
     65  CG       100.8860    0.6460   88.9920 C.3   255  ARG255      0.0489
     66  CD       102.1640   -0.0980   88.5970 C.3   255  ARG255      0.2205
     67  NE       101.9220   -1.4500   88.1180 N.pl3 255  ARG255     -0.0865
     68  CZ       101.5670   -1.7630   86.8840 C.cat 255  ARG255      0.5346
     69  NH1      101.3940   -0.8170   85.9850 N.pl3 255  ARG255      0.1354
     70  NH2      101.4270   -3.0370   86.5300 N.pl3 255  ARG255      0.1354
     71  N         98.8370    0.1020   92.9910 N.am  256  TYR256     -0.1976
     72  CA        98.2700   -0.5160   94.1970 C.3   256  TYR256      0.1639
     73  C         96.8090   -0.1640   94.4190 C.2   256  TYR256      0.2290
     74  O         96.0310   -1.0170   94.8630 O.2   256  TYR256     -0.2864
     75  CB        99.0800   -0.1200   95.4420 C.3   256  TYR256      0.0560
     76  CG       100.4510   -0.7360   95.4750 C.ar  256  TYR256     -0.0198
     77  CD1      100.6210   -2.1000   95.3130 C.ar  256  TYR256     -0.0009
     78  CD2      101.5810    0.0420   95.7400 C.ar  256  TYR256     -0.0009
     79  CE1      101.8770   -2.6740   95.3420 C.ar  256  TYR256      0.0417
     80  CE2      102.8460   -0.5210   95.7820 C.ar  256  TYR256      0.0417
     81  CZ       102.9810   -1.8540   95.5830 C.ar  256  TYR256      0.1957
     82  OH       104.1930   -2.4200   95.6770 O.3   256  TYR256     -0.2866
     83  N         94.4270   -2.2980   91.9600 N.3   259  ILE259     -0.1245
     84  CA        94.1460   -3.6750   92.3520 C.3   259  ILE259      0.1561
     85  C         93.4290   -3.7230   93.6700 C.2   259  ILE259      0.2260
     86  O         92.6170   -4.6230   93.8950 O.2   259  ILE259     -0.2867
     87  CB        95.3610   -4.6370   92.3700 C.3   259  ILE259      0.0252
     88  CG1       96.4570   -4.1130   93.2500 C.3   259  ILE259      0.0019
     89  CG2       95.9080   -4.8520   90.9790 C.3   259  ILE259      0.0019
     90  CD1       97.3630   -5.2260   93.7220 C.3   259  ILE259      0.0001
@<TRIPOS>BOND
     1    47    46    2
     2    39    38    2
     3    46    45    1
     4    38    37    1
     5    44    45    1
     6    45    48    1
     7    69    68    1
     8    37    40    1
     9    37    36    1
    10    40    41    1
    11    28    29    1
    12    36    30   am
    13    70    68    1
    14    31    30    2
    15    30    29    1
    16    48    49    1
    17    48    50    1
    18    68    67    2
    19    29    32    1
    20    23    22    2
    21    41    43   am
    22    41    42    2
    23    22    21    1
    24    67    66    1
    25    20    21    1
    26    66    65    1
    27    32    33    1
    28    21    24    1
    29    65    64    1
    30    33    34    1
    31    24    26    1
    32    24    25    1
    33    58    57   ar
    34    64    61    1
    35    61    60    1
    36    61    62    1
    37    25    27    1
    38    34    35    1
    39    89    87    1
    40    51    52    1
    41    57    59   ar
    42    57    56    1
    43    63    62    2
    44    62    71   am
    45    52    55    1
    46    52    53    1
    47    83    84    1
    48    56    55    1
    49    84    87    1
    50    84    85    1
    51    87    88    1
    52    53    54    2
    53    71    72    1
    54    88    90    1
    55    85    86    2
    56    72    73    1
    57    72    75    1
    58    73    74    2
    59    77    79   ar
    60    77    76   ar
    61    79    81   ar
    62    18    16   ar
    63    18    19   ar
    64    75    76    1
    65    16    14   ar
    66    76    78   ar
    67    81    82    1
    68    81    80   ar
    69    12    11    2
    70    78    80   ar
    71    19    17   ar
    72    14    13    1
    73    14    15   ar
    74    13    10    1
    75    11    10    1
    76    10     9    1
    77     4     3    2
    78    17    15   ar
    79     9     3   am
    80     3     2    1
    81     2     5    1
    82     2     1    1
    83     5     6    1
    84     6     8   ar
    85     6     7   ar
