@<TRIPOS>MOLECULE
tmp/6h1uA00.pdb
 118 111 0 0 0
SMALL
GASTEIGER

@<TRIPOS>ATOM
      1  N        -14.5440  -16.0410    5.0870 N.3   103  ALA103     -0.1245
      2  CA       -13.8240  -15.3110    6.1350 C.3   103  ALA103      0.1562
      3  C        -12.7270  -14.4280    5.5500 C.2   103  ALA103      0.2260
      4  O        -12.4980  -13.3000    6.0150 O.2   103  ALA103     -0.2867
      5  CB       -13.2250  -16.2980    7.1420 C.3   103  ALA103      0.0290
      6  N        -13.9740  -10.7960    4.1250 N.3   106  ARG106     -0.1245
      7  CA       -14.7720   -9.8560    4.9060 C.3   106  ARG106      0.1563
      8  C        -14.2250   -8.4420    4.7860 C.2   106  ARG106      0.2260
      9  O        -14.9950   -7.4840    4.6350 O.2   106  ARG106     -0.2867
     10  CB       -14.8090  -10.2890    6.3740 C.3   106  ARG106      0.0307
     11  CG       -15.6280  -11.5550    6.5990 C.3   106  ARG106      0.0489
     12  CD       -15.5260  -12.0150    8.0490 C.3   106  ARG106      0.2205
     13  NE       -14.1970  -12.5500    8.3540 N.pl3 106  ARG106     -0.0865
     14  CZ       -13.8620  -13.1010    9.5160 C.cat 106  ARG106      0.5346
     15  NH1      -14.7510  -13.1610   10.5060 N.pl3 106  ARG106      0.1354
     16  NH2      -12.6380  -13.5900    9.6910 N.pl3 106  ARG106      0.1354
     17  N        -20.4200  -11.4020   10.4280 N.3   120  LYS120     -0.1231
     18  CA       -19.8840  -12.7450   10.1800 C.3   120  LYS120      0.1693
     19  C        -18.7500  -12.9630   11.1860 C.2   120  LYS120      0.2592
     20  O        -17.5720  -12.8920   10.8320 O.2   120  LYS120     -0.2718
     21  CB       -19.4020  -12.9220    8.7390 C.3   120  LYS120      0.0285
     22  CG       -19.2030  -14.3900    8.3750 C.3   120  LYS120      0.0035
     23  CD       -18.5090  -14.5580    7.0380 C.3   120  LYS120      0.0206
     24  CE       -18.4750  -16.0190    6.6430 C.3   120  LYS120      0.1093
     25  NZ       -18.1480  -16.9130    7.7890 N.3   120  LYS120     -0.1314
     26  N        -19.1470  -13.2200   12.4430 N.am  121  THR121     -0.1953
     27  CA       -18.2740  -13.5070   13.5860 C.3   121  THR121      0.1897
     28  C        -16.9590  -12.7340   13.5140 C.2   121  THR121      0.2313
     29  O        -15.8880  -13.3130   13.6870 O.2   121  THR121     -0.2863
     30  CB       -18.0020  -15.0270   13.7060 C.3   121  THR121      0.1794
     31  OG1      -17.3700  -15.5350   12.5160 O.3   121  THR121     -0.2208
     32  CG2      -19.2990  -15.7960   13.9200 C.3   121  THR121      0.0378
     33  N        -14.0310  -10.6850   14.5010 N.3   123  SER123     -0.1217
     34  CA       -13.2850  -10.1580   15.6400 C.3   123  SER123      0.1889
     35  C        -12.7110   -8.7900   15.3260 C.2   123  SER123      0.2288
     36  O        -12.1330   -8.5770   14.2560 O.2   123  SER123     -0.2866
     37  CB       -12.1570  -11.1110   16.0210 C.3   123  SER123      0.2089
     38  OG       -12.7080  -12.3280   16.4660 O.3   123  SER123     -0.2183
     39  N         -7.1670   -5.0360   11.8140 N.3   128  ARG128     -0.1245
     40  CA        -8.3140   -4.8390   10.9370 C.3   128  ARG128      0.1563
     41  C         -8.8190   -3.4040   10.9840 C.2   128  ARG128      0.2260
     42  O         -9.3530   -2.9110    9.9840 O.2   128  ARG128     -0.2867
     43  CB        -9.4250   -5.8130   11.3070 C.3   128  ARG128      0.0307
     44  CG        -9.0940   -7.2320   10.8760 C.3   128  ARG128      0.0489
     45  CD       -10.1110   -8.2110   11.4270 C.3   128  ARG128      0.2205
     46  NE        -9.7880   -9.5720   10.9880 N.pl3 128  ARG128     -0.0865
     47  CZ       -10.4610  -10.6550   11.3710 C.cat 128  ARG128      0.5346
     48  NH1      -11.4910  -10.5380   12.2060 N.pl3 128  ARG128      0.1354
     49  NH2      -10.0970  -11.8610   10.9270 N.pl3 128  ARG128      0.1354
     50  N         -8.6050  -15.8710    9.1140 N.3   170  THR170     -0.1203
     51  CA        -9.1510  -15.7670   10.4620 C.3   170  THR170      0.1994
     52  C         -8.0620  -15.4100   11.4670 C.2   170  THR170      0.2619
     53  O         -6.8750  -15.6680   11.2500 O.2   170  THR170     -0.2717
     54  CB        -9.8370  -17.0710   10.9070 C.3   170  THR170      0.1784
     55  OG1       -8.8770  -18.1430   10.9260 O.3   170  THR170     -0.2211
     56  CG2      -10.9880  -17.4270    9.9670 C.3   170  THR170      0.0376
     57  N         -8.4880  -14.7860   12.5720 N.am  171  THR171     -0.1938
     58  CA        -7.5940  -14.5500   13.7050 C.3   171  THR171      0.2028
     59  C         -7.0830  -15.8540   14.2840 C.2   171  THR171      0.2642
     60  O         -6.0300  -15.8710   14.9300 O.2   171  THR171     -0.2714
     61  CB        -8.3110  -13.7870   14.8210 C.3   171  THR171      0.1808
     62  OG1       -9.4720  -14.5310   15.2310 O.3   171  THR171     -0.2208
     63  CG2       -8.7120  -12.3720   14.3680 C.3   171  THR171      0.0379
     64  N         -7.8290  -16.9350   14.0810 N.am  172  SER172     -0.1949
     65  CA        -7.4860  -18.2140   14.6830 C.3   172  SER172      0.1924
     66  C         -6.1190  -18.6900   14.2170 C.2   172  SER172      0.2314
     67  O         -5.3780  -19.3070   14.9900 O.2   172  SER172     -0.2863
     68  CB        -8.5630  -19.2370   14.3310 C.3   172  SER172      0.2116
     69  OG        -9.8440  -18.6760   14.5830 O.3   172  SER172     -0.2180
     70  N        -15.0530  -23.0850    8.2320 N.3   191  TRP191     -0.1241
     71  CA       -14.9620  -23.9640    9.3930 C.3   191  TRP191      0.1605
     72  C        -15.7550  -25.2470    9.1880 C.2   191  TRP191      0.2264
     73  O        -15.3880  -26.2880    9.7500 O.2   191  TRP191     -0.2867
     74  CB       -15.4170  -23.2250   10.6580 C.3   191  TRP191      0.0550
     75  CG       -14.4640  -22.1200   11.0230 C.ar  191  TRP191      0.0003
     76  CD1      -14.6990  -20.7690   10.9440 C.ar  191  TRP191      0.0946
     77  CD2      -13.1100  -22.2660   11.4680 C.ar  191  TRP191      0.0152
     78  NE1      -13.5800  -20.0710   11.3420 N.ar  191  TRP191     -0.2442
     79  CE2      -12.5900  -20.9650   11.6650 C.ar  191  TRP191      0.0810
     80  CE3      -12.2900  -23.3690   11.7430 C.ar  191  TRP191      0.0012
     81  CZ2      -11.2850  -20.7410   12.1020 C.ar  191  TRP191      0.0191
     82  CZ3      -11.0010  -23.1470   12.1900 C.ar  191  TRP191      0.0001
     83  CH2      -10.5090  -21.8390   12.3670 C.ar  191  TRP191      0.0015
     84  N        -10.6890  -22.5970   17.0050 N.3   208  THR208     -0.1203
     85  CA       -11.2560  -21.2830   16.7050 C.3   208  THR208      0.1994
     86  C        -12.1880  -20.8880   17.8470 C.2   208  THR208      0.2617
     87  O        -12.1890  -21.5140   18.9140 O.2   208  THR208     -0.2717
     88  CB       -11.9650  -21.2720   15.3390 C.3   208  THR208      0.1784
     89  OG1      -12.3080  -19.9230   14.9680 O.3   208  THR208     -0.2211
     90  CG2      -13.2340  -22.1220   15.3340 C.3   208  THR208      0.0376
     91  N        -12.9610  -19.8210   17.6200 N.am  209  ASP209     -0.1973
     92  CA       -13.9190  -19.3050   18.5970 C.3   209  ASP209      0.1709
     93  C        -14.7780  -20.4250   19.1680 C.2   209  ASP209      0.2293
     94  O        -15.3390  -21.2260   18.4140 O.2   209  ASP209     -0.2864
     95  CB       -14.8540  -18.2920   17.9370 C.3   209  ASP209      0.1436
     96  CG       -14.1340  -17.1850   17.1830 C.2   209  ASP209      0.3671
     97  OD1      -12.8910  -17.1140   17.1690 O.co2 209  ASP209     -0.2456
     98  OD2      -14.8620  -16.3660   16.5910 O.co2 209  ASP209     -0.2456
     99  N        -18.1550  -20.6800   17.4550 N.3   212  ILE212     -0.1245
    100  CA       -18.1280  -21.4210   16.1960 C.3   212  ILE212      0.1561
    101  C        -17.9670  -22.9110   16.4630 C.2   212  ILE212      0.2260
    102  O        -18.6470  -23.7460   15.8500 O.2   212  ILE212     -0.2867
    103  CB       -16.9930  -20.8880   15.3030 C.3   212  ILE212      0.0252
    104  CG1      -17.2600  -19.4130   14.9450 C.3   212  ILE212      0.0019
    105  CG2      -16.8210  -21.7660   14.0580 C.3   212  ILE212      0.0019
    106  CD1      -16.1810  -18.8070   14.0720 C.3   212  ILE212      0.0001
    107  N        -16.6270   -9.7570   18.8270 N.3   235  TYR235     -0.1241
    108  CA       -17.2390   -9.5680   17.5150 C.3   235  TYR235      0.1605
    109  C        -17.7570   -8.1540   17.3310 C.2   235  TYR235      0.2264
    110  O        -18.4250   -7.6000   18.2080 O.2   235  TYR235     -0.2867
    111  CB       -18.4230  -10.5050   17.3020 C.3   235  TYR235      0.0534
    112  CG       -18.1210  -11.9720   17.2520 C.ar  235  TYR235     -0.0201
    113  CD1      -16.8190  -12.4530   17.2890 C.ar  235  TYR235     -0.0009
    114  CD2      -19.1630  -12.8880   17.1730 C.ar  235  TYR235     -0.0009
    115  CE1      -16.5650  -13.8380   17.2350 C.ar  235  TYR235      0.0417
    116  CE2      -18.9140  -14.2620   17.1220 C.ar  235  TYR235      0.0417
    117  CZ       -17.6170  -14.7180   17.1650 C.ar  235  TYR235      0.1957
    118  OH       -17.3930  -16.0860   17.1080 O.3   235  TYR235     -0.2866
@<TRIPOS>BOND
     1     6     7    1
     2     9     8    2
     3     8     7    1
     4     7    10    1
     5     1     2    1
     6     3     4    2
     7     3     2    1
     8     2     5    1
     9    10    11    1
    10    11    12    1
    11    24    23    1
    12    24    25    1
    13    23    22    1
    14    12    13    1
    15    70    71    1
    16    13    14    2
    17    22    21    1
    18    21    18    1
    19    50    51    1
    20    72    71    1
    21    72    73    2
    22    71    74    1
    23    14    16    1
    24    14    15    1
    25    56    54    1
    26    42    41    2
    27    18    17    1
    28    18    19    1
    29    51    54    1
    30    51    52    1
    31    74    75    1
    32    20    19    2
    33    44    43    1
    34    44    45    1
    35    54    55    1
    36    49    47    1
    37    40    41    1
    38    40    43    1
    39    40    39    1
    40    76    75   ar
    41    76    78   ar
    42    46    47    2
    43    46    45    1
    44    75    77   ar
    45    19    26   am
    46    53    52    2
    47    78    79   ar
    48    47    48    1
    49    52    57   am
    50    77    79   ar
    51    77    80   ar
    52    79    81   ar
    53    80    82   ar
    54    81    83   ar
    55    82    83   ar
    56    26    27    1
    57    31    30    1
    58    57    58    1
    59    28    27    1
    60    28    29    2
    61    27    30    1
    62    58    59    1
    63    58    61    1
    64    30    32    1
    65   105   103    1
    66   106   104    1
    67    64    59   am
    68    64    65    1
    69    66    65    1
    70    66    67    2
    71    36    35    2
    72    59    60    2
    73    68    69    1
    74    68    65    1
    75    63    61    1
    76    33    34    1
    77    61    62    1
    78   104   103    1
    79    89    88    1
    80   103   100    1
    81    35    34    1
    82    90    88    1
    83    88    85    1
    84    34    37    1
    85   102   101    2
    86    37    38    1
    87   100   101    1
    88   100    99    1
    89    98    96   ar
    90    85    84    1
    91    85    86    1
    92   118   117    1
    93   116   117   ar
    94   116   114   ar
    95   117   115   ar
    96    97    96   ar
    97   114   112   ar
    98    96    95    1
    99   115   113   ar
   100   112   113   ar
   101   112   111    1
   102   111   108    1
   103   109   108    1
   104   109   110    2
   105   108   107    1
   106    91    86   am
   107    91    92    1
   108    86    87    2
   109    95    92    1
   110    94    93    2
   111    92    93    1
