@<TRIPOS>MOLECULE
tmp/6h20A00.pdb
 118 111 0 0 0
SMALL
GASTEIGER

@<TRIPOS>ATOM
      1  N        -14.3850  -15.6560    5.0690 N.3   103  ALA103     -0.1245
      2  CA       -13.6630  -14.8890    6.0800 C.3   103  ALA103      0.1562
      3  C        -12.5800  -14.0310    5.4490 C.2   103  ALA103      0.2260
      4  O        -12.3590  -12.8790    5.8530 O.2   103  ALA103     -0.2867
      5  CB       -13.0480  -15.8420    7.1140 C.3   103  ALA103      0.0290
      6  N        -13.9950  -10.5230    3.8850 N.3   106  ARG106     -0.1245
      7  CA       -14.7830   -9.5350    4.6210 C.3   106  ARG106      0.1563
      8  C        -14.2300   -8.1240    4.4540 C.2   106  ARG106      0.2260
      9  O        -14.9950   -7.1780    4.2480 O.2   106  ARG106     -0.2867
     10  CB       -14.8220   -9.9010    6.1050 C.3   106  ARG106      0.0307
     11  CG       -15.5930  -11.1700    6.3870 C.3   106  ARG106      0.0489
     12  CD       -15.4690  -11.5770    7.8750 C.3   106  ARG106      0.2205
     13  NE       -14.1110  -12.0330    8.1760 N.pl3 106  ARG106     -0.0865
     14  CZ       -13.7620  -12.6150    9.3270 C.cat 106  ARG106      0.5346
     15  NH1      -14.6700  -12.7910   10.2840 N.pl3 106  ARG106      0.1354
     16  NH2      -12.5100  -13.0200    9.5210 N.pl3 106  ARG106      0.1354
     17  N        -20.3190  -11.1240   10.4610 N.3   120  LYS120     -0.1231
     18  CA       -19.7830  -12.4640   10.2380 C.3   120  LYS120      0.1693
     19  C        -18.6330  -12.6790   11.2000 C.2   120  LYS120      0.2592
     20  O        -17.4600  -12.6320   10.8050 O.2   120  LYS120     -0.2718
     21  CB       -19.3260  -12.6350    8.7830 C.3   120  LYS120      0.0285
     22  CG       -19.0550  -14.1070    8.4440 C.3   120  LYS120      0.0035
     23  CD       -18.1070  -14.2450    7.2660 C.3   120  LYS120      0.0206
     24  CE       -17.8140  -15.7050    6.9140 C.3   120  LYS120      0.1093
     25  NZ       -17.6330  -16.6100    8.0850 N.3   120  LYS120     -0.1314
     26  N        -18.9840  -12.8870   12.4690 N.am  121  THR121     -0.1953
     27  CA       -18.0470  -13.1510   13.5640 C.3   121  THR121      0.1897
     28  C        -16.7500  -12.3410   13.4460 C.2   121  THR121      0.2313
     29  O        -15.6520  -12.8660   13.6090 O.2   121  THR121     -0.2863
     30  CB       -17.7590  -14.6630   13.7070 C.3   121  THR121      0.1794
     31  OG1      -17.1420  -15.1890   12.5130 O.3   121  THR121     -0.2208
     32  CG2      -19.0520  -15.4370   13.9780 C.3   121  THR121      0.0378
     33  N        -13.8620  -10.2720   14.2850 N.3   123  SER123     -0.1217
     34  CA       -13.0990   -9.7200   15.4000 C.3   123  SER123      0.1889
     35  C        -12.5320   -8.3510   15.0540 C.2   123  SER123      0.2288
     36  O        -11.9720   -8.1320   13.9740 O.2   123  SER123     -0.2866
     37  CB       -11.9510  -10.6450   15.7790 C.3   123  SER123      0.2089
     38  OG       -12.4720  -11.8630   16.2560 O.3   123  SER123     -0.2183
     39  N         -7.0900   -4.5690   11.2990 N.3   128  ARG128     -0.1245
     40  CA        -8.2860   -4.4110   10.4770 C.3   128  ARG128      0.1563
     41  C         -8.8040   -2.9830   10.5140 C.2   128  ARG128      0.2260
     42  O         -9.3610   -2.5010    9.5230 O.2   128  ARG128     -0.2867
     43  CB        -9.3720   -5.4000   10.9080 C.3   128  ARG128      0.0307
     44  CG        -9.0480   -6.8260   10.5200 C.3   128  ARG128      0.0489
     45  CD       -10.0000   -7.8040   11.1830 C.3   128  ARG128      0.2205
     46  NE        -9.6580   -9.1700   10.7840 N.pl3 128  ARG128     -0.0865
     47  CZ       -10.3070  -10.2490   11.2110 C.cat 128  ARG128      0.5346
     48  NH1      -11.3380  -10.1160   12.0390 N.pl3 128  ARG128      0.1354
     49  NH2       -9.9410  -11.4580   10.7890 N.pl3 128  ARG128      0.1354
     50  N         -8.3680  -15.4740    8.8880 N.3   170  THR170     -0.1203
     51  CA        -8.9180  -15.3220   10.2270 C.3   170  THR170      0.1994
     52  C         -7.8360  -14.9630   11.2320 C.2   170  THR170      0.2619
     53  O         -6.6460  -15.2390   11.0390 O.2   170  THR170     -0.2717
     54  CB        -9.6050  -16.6140   10.6940 C.3   170  THR170      0.1784
     55  OG1       -8.6430  -17.6830   10.7540 O.3   170  THR170     -0.2211
     56  CG2      -10.7610  -16.9840    9.7680 C.3   170  THR170      0.0376
     57  N         -8.2730  -14.3550   12.3380 N.am  171  THR171     -0.1938
     58  CA        -7.3650  -14.1330   13.4540 C.3   171  THR171      0.2028
     59  C         -6.9160  -15.4550   14.0400 C.2   171  THR171      0.2642
     60  O         -5.8270  -15.5300   14.6220 O.2   171  THR171     -0.2714
     61  CB        -8.0850  -13.3600   14.5630 C.3   171  THR171      0.1808
     62  OG1       -9.2580  -14.0900   14.9490 O.3   171  THR171     -0.2208
     63  CG2       -8.4620  -11.9180   14.1120 C.3   171  THR171      0.0379
     64  N         -7.7240  -16.5060   13.8470 N.am  172  SER172     -0.1949
     65  CA        -7.4160  -17.8170   14.4060 C.3   172  SER172      0.1924
     66  C         -6.1220  -18.3570   13.8310 C.2   172  SER172      0.2314
     67  O         -5.2910  -18.9180   14.5580 O.2   172  SER172     -0.2863
     68  CB        -8.5610  -18.7770   14.0860 C.3   172  SER172      0.2116
     69  OG        -9.8080  -18.1730   14.3510 O.3   172  SER172     -0.2180
     70  N        -15.2870  -22.6210    8.3060 N.3   191  TRP191     -0.1241
     71  CA       -15.1730  -23.4820    9.4790 C.3   191  TRP191      0.1605
     72  C        -15.9190  -24.7990    9.3140 C.2   191  TRP191      0.2264
     73  O        -15.5110  -25.8070    9.9010 O.2   191  TRP191     -0.2867
     74  CB       -15.6160  -22.7310   10.7320 C.3   191  TRP191      0.0550
     75  CG       -14.6590  -21.6340   11.0290 C.ar  191  TRP191      0.0003
     76  CD1      -14.8850  -20.2930   10.8970 C.ar  191  TRP191      0.0946
     77  CD2      -13.2970  -21.7770   11.4520 C.ar  191  TRP191      0.0152
     78  NE1      -13.7540  -19.5990   11.2350 N.ar  191  TRP191     -0.2442
     79  CE2      -12.7650  -20.4750   11.5800 C.ar  191  TRP191      0.0810
     80  CE3      -12.4780  -22.8720   11.7520 C.ar  191  TRP191      0.0012
     81  CZ2      -11.4520  -20.2430   11.9650 C.ar  191  TRP191      0.0191
     82  CZ3      -11.1690  -22.6480   12.1430 C.ar  191  TRP191      0.0001
     83  CH2      -10.6640  -21.3290   12.2500 C.ar  191  TRP191      0.0015
     84  N        -10.4380  -22.1020   16.9280 N.3   208  THR208     -0.1203
     85  CA       -11.0270  -20.7990   16.6010 C.3   208  THR208      0.1994
     86  C        -11.8840  -20.3670   17.7850 C.2   208  THR208      0.2617
     87  O        -11.8490  -20.9920   18.8560 O.2   208  THR208     -0.2717
     88  CB       -11.7960  -20.8180   15.2680 C.3   208  THR208      0.1784
     89  OG1      -12.1880  -19.4850   14.9250 O.3   208  THR208     -0.2211
     90  CG2      -13.0670  -21.6580   15.3190 C.3   208  THR208      0.0376
     91  N        -12.6610  -19.3020   17.5810 N.am  209  ASP209     -0.1973
     92  CA       -13.5380  -18.7540   18.6060 C.3   209  ASP209      0.1709
     93  C        -14.3910  -19.8510   19.2340 C.2   209  ASP209      0.2293
     94  O        -14.9820  -20.6690   18.5270 O.2   209  ASP209     -0.2864
     95  CB       -14.5110  -17.7680   17.9490 C.3   209  ASP209      0.1436
     96  CG       -13.8390  -16.7010   17.0930 C.2   209  ASP209      0.3671
     97  OD1      -12.5930  -16.6100   17.0030 O.co2 209  ASP209     -0.2456
     98  OD2      -14.6180  -15.9410   16.4910 O.co2 209  ASP209     -0.2456
     99  N        -17.8540  -20.2060   17.6420 N.3   212  ILE212     -0.1245
    100  CA       -17.8780  -20.9870   16.3990 C.3   212  ILE212      0.1561
    101  C        -17.7140  -22.4700   16.7070 C.2   212  ILE212      0.2260
    102  O        -18.4230  -23.3310   16.1500 O.2   212  ILE212     -0.2867
    103  CB       -16.7920  -20.4790   15.4260 C.3   212  ILE212      0.0252
    104  CG1      -17.0480  -19.0210   15.0540 C.3   212  ILE212      0.0019
    105  CG2      -16.7180  -21.3860   14.1700 C.3   212  ILE212      0.0019
    106  CD1      -15.9380  -18.4280   14.1910 C.3   212  ILE212      0.0001
    107  N        -16.3880   -9.2660   18.6710 N.3   235  TYR235     -0.1241
    108  CA       -17.0340   -9.1240   17.3690 C.3   235  TYR235      0.1605
    109  C        -17.5750   -7.7170   17.1680 C.2   235  TYR235      0.2264
    110  O        -18.2230   -7.1470   18.0500 O.2   235  TYR235     -0.2867
    111  CB       -18.2210  -10.0770   17.2530 C.3   235  TYR235      0.0534
    112  CG       -17.8970  -11.5500   17.2240 C.ar  235  TYR235     -0.0201
    113  CD1      -16.5850  -12.0210   17.2200 C.ar  235  TYR235     -0.0009
    114  CD2      -18.9190  -12.4680   17.2090 C.ar  235  TYR235     -0.0009
    115  CE1      -16.3120  -13.4070   17.1900 C.ar  235  TYR235      0.0417
    116  CE2      -18.6640  -13.8310   17.1740 C.ar  235  TYR235      0.0417
    117  CZ       -17.3720  -14.2940   17.1680 C.ar  235  TYR235      0.1957
    118  OH       -17.1520  -15.6640   17.1320 O.3   235  TYR235     -0.2866
@<TRIPOS>BOND
     1     6     7    1
     2     9     8    2
     3     8     7    1
     4     7    10    1
     5     1     2    1
     6     3     4    2
     7     3     2    1
     8     2     5    1
     9    10    11    1
    10    11    12    1
    11    24    23    1
    12    24    25    1
    13    23    22    1
    14    12    13    1
    15    13    14    2
    16    70    71    1
    17    22    21    1
    18    21    18    1
    19    50    51    1
    20    72    71    1
    21    72    73    2
    22    14    16    1
    23    14    15    1
    24    71    74    1
    25    42    41    2
    26    56    54    1
    27    51    54    1
    28    51    52    1
    29    18    17    1
    30    18    19    1
    31    40    41    1
    32    40    43    1
    33    40    39    1
    34    44    43    1
    35    44    45    1
    36    54    55    1
    37    74    75    1
    38    46    45    1
    39    46    47    2
    40    49    47    1
    41    20    19    2
    42    76    75   ar
    43    76    78   ar
    44    75    77   ar
    45    53    52    2
    46    19    26   am
    47    47    48    1
    48    52    57   am
    49    78    79   ar
    50    77    79   ar
    51    77    80   ar
    52    79    81   ar
    53    80    82   ar
    54    81    83   ar
    55    82    83   ar
    56    57    58    1
    57    26    27    1
    58    31    30    1
    59    28    27    1
    60    28    29    2
    61    58    59    1
    62    58    61    1
    63    27    30    1
    64    30    32    1
    65    66    65    1
    66    66    67    2
    67    64    59   am
    68    64    65    1
    69    36    35    2
    70    59    60    2
    71    68    69    1
    72    68    65    1
    73    63    61    1
    74   105   103    1
    75   106   104    1
    76    33    34    1
    77    61    62    1
    78    89    88    1
    79   104   103    1
    80    35    34    1
    81    88    90    1
    82    88    85    1
    83    34    37    1
    84   103   100    1
    85    37    38    1
    86   102   101    2
    87   100   101    1
    88   100    99    1
    89    98    96   ar
    90    85    84    1
    91    85    86    1
    92    97    96   ar
    93    96    95    1
    94   118   117    1
    95   117   116   ar
    96   117   115   ar
    97   109   108    1
    98   109   110    2
    99   116   114   ar
   100   115   113   ar
   101   114   112   ar
   102   113   112   ar
   103   112   111    1
   104   111   108    1
   105   108   107    1
   106    91    86   am
   107    91    92    1
   108    86    87    2
   109    95    92    1
   110    94    93    2
   111    92    93    1
