@<TRIPOS>MOLECULE
tmp/6h23A01.pdb
 96 89 0 0 0
SMALL
GASTEIGER

@<TRIPOS>ATOM
      1  N        166.8740  -25.3050  175.8420 N.3     2  ILE2       -0.1245
      2  CA       167.1330  -26.7270  176.0570 C.3     2  ILE2        0.1561
      3  C        168.2210  -26.9360  177.1050 C.2     2  ILE2        0.2260
      4  O        168.1890  -27.9210  177.8530 O.2     2  ILE2       -0.2867
      5  CB       167.4650  -27.4240  174.7190 C.3     2  ILE2        0.0252
      6  CG1      166.8450  -28.8220  174.6860 C.3     2  ILE2        0.0019
      7  CG2      168.9670  -27.4990  174.4760 C.3     2  ILE2        0.0019
      8  CD1      165.3460  -28.8190  174.4790 C.3     2  ILE2        0.0001
      9  N        166.6490  -26.9650  180.5580 N.3     5  ARG5       -0.1231
     10  CA       166.0250  -28.2390  180.8960 C.3     5  ARG5        0.1694
     11  C        167.0650  -29.3120  181.1890 C.2     5  ARG5        0.2591
     12  O        166.8150  -30.2060  182.0060 O.2     5  ARG5       -0.2718
     13  CB       165.1000  -28.6970  179.7690 C.3     5  ARG5        0.0321
     14  CG       163.6240  -28.4420  180.0320 C.3     5  ARG5        0.0489
     15  CD       162.7570  -29.4770  179.3320 C.3     5  ARG5        0.2205
     16  NE       161.3710  -29.0390  179.1940 N.pl3   5  ARG5       -0.0865
     17  CZ       160.8980  -28.3810  178.1400 C.cat   5  ARG5        0.5346
     18  NH1      161.7000  -28.0840  177.1270 N.pl3   5  ARG5        0.1354
     19  NH2      159.6230  -28.0200  178.0980 N.pl3   5  ARG5        0.1354
     20  N        168.2260  -29.2500  180.5280 N.am    6  LEU6       -0.1980
     21  CA       169.3090  -30.1770  180.8440 C.3     6  LEU6        0.1596
     22  C        169.7130  -30.0720  182.3080 C.2     6  LEU6        0.2287
     23  O        169.9380  -31.0900  182.9730 O.2     6  LEU6       -0.2864
     24  CB       170.5090  -29.9140  179.9340 C.3     6  LEU6        0.0297
     25  CG       170.4740  -30.5360  178.5390 C.3     6  LEU6        0.0022
     26  CD1      171.5130  -29.8880  177.6440 C.3     6  LEU6        0.0001
     27  CD2      170.7270  -32.0290  178.6380 C.3     6  LEU6        0.0001
     28  N        167.6750  -31.8410  184.7950 N.3     9  GLU9       -0.1245
     29  CA       167.9330  -33.2720  184.8740 C.3     9  GLU9        0.1567
     30  C        169.3370  -33.5650  185.3820 C.2     9  GLU9        0.2260
     31  O        169.8160  -34.6960  185.2390 O.2     9  GLU9       -0.2867
     32  CB       167.7190  -33.9290  183.5100 C.3     9  GLU9        0.0388
     33  CG       166.3350  -33.7050  182.9320 C.3     9  GLU9        0.1160
     34  CD       165.3270  -34.7210  183.4320 C.2     9  GLU9        0.3649
     35  OE1      165.7410  -35.8400  183.8020 O.co2   9  GLU9       -0.2457
     36  OE2      164.1210  -34.4000  183.4550 O.co2   9  GLU9       -0.2457
     37  N        172.3290  -32.5260  184.3550 N.3    11  ILE11      -0.1245
     38  CA       173.2620  -32.7950  183.2680 C.3    11  ILE11       0.1561
     39  C        174.0440  -31.5210  182.9840 C.2    11  ILE11       0.2260
     40  O        173.4510  -30.4670  182.7270 O.2    11  ILE11      -0.2867
     41  CB       172.5400  -33.2890  182.0020 C.3    11  ILE11       0.0252
     42  CG1      171.7470  -34.5610  182.3060 C.3    11  ILE11       0.0019
     43  CG2      173.5400  -33.5350  180.8840 C.3    11  ILE11       0.0019
     44  CD1      171.1170  -35.1910  181.0870 C.3    11  ILE11       0.0001
     45  N        181.4250  -29.2910  176.5400 N.3    15  MET15      -0.1245
     46  CA       181.6930  -29.4480  175.1210 C.3    15  MET15       0.1570
     47  C        182.4610  -28.2380  174.6090 C.2    15  MET15       0.2261
     48  O        182.2630  -27.1120  175.0760 O.2    15  MET15      -0.2867
     49  CB       180.3920  -29.6290  174.3290 C.3    15  MET15       0.0387
     50  CG       179.4350  -30.6330  174.9580 C.3    15  MET15       0.0595
     51  SD       178.2350  -31.3100  173.7970 S.3    15  MET15      -0.1393
     52  CE       177.2680  -32.3590  174.8800 C.3    15  MET15       0.0692
     53  N        175.3510  -35.6410  186.1170 N.3    43  HIS43      -0.1241
     54  CA       175.8000  -36.2110  184.8560 C.3    43  HIS43       0.1621
     55  C        176.6080  -35.1700  184.0970 C.2    43  HIS43       0.2264
     56  O        176.1390  -34.0470  183.8830 O.2    43  HIS43      -0.2867
     57  CB       174.6120  -36.6880  184.0220 C.3    43  HIS43       0.0745
     58  CG       173.7960  -37.7470  184.6940 C.ar   43  HIS43       0.0817
     59  ND1      174.1080  -39.0870  184.6180 N.ar   43  HIS43      -0.2268
     60  CD2      172.6880  -37.6620  185.4680 C.ar   43  HIS43       0.1154
     61  CE1      173.2230  -39.7830  185.3090 C.ar   43  HIS43       0.1986
     62  NE2      172.3510  -38.9420  185.8350 N.ar   43  HIS43      -0.2212
     63  N        178.4320  -34.5130  180.6100 N.3    45  ALA45      -0.1245
     64  CA       178.6320  -34.8920  179.2200 C.3    45  ALA45       0.1562
     65  C        179.8690  -34.1830  178.6870 C.2    45  ALA45       0.2260
     66  O        179.9860  -32.9580  178.7960 O.2    45  ALA45      -0.2867
     67  CB       177.4070  -34.5590  178.3820 C.3    45  ALA45       0.0290
     68  N        180.3310  -39.0580  180.8890 N.3    73  TRP73      -0.1241
     69  CA       179.9520  -39.6660  179.6200 C.3    73  TRP73       0.1605
     70  C        180.8040  -39.0460  178.5240 C.2    73  TRP73       0.2264
     71  O        180.7180  -37.8380  178.2800 O.2    73  TRP73      -0.2867
     72  CB       178.4620  -39.4520  179.3340 C.3    73  TRP73       0.0550
     73  CG       177.5540  -40.2140  180.2550 C.ar   73  TRP73       0.0003
     74  CD1      177.1830  -39.8560  181.5190 C.ar   73  TRP73       0.0946
     75  CD2      176.8850  -41.4500  179.9760 C.ar   73  TRP73       0.0152
     76  NE1      176.3350  -40.7990  182.0490 N.ar   73  TRP73      -0.2442
     77  CE2      176.1350  -41.7870  181.1210 C.ar   73  TRP73       0.0810
     78  CE3      176.8510  -42.3070  178.8720 C.ar   73  TRP73       0.0012
     79  CZ2      175.3620  -42.9450  181.1940 C.ar   73  TRP73       0.0191
     80  CZ3      176.0820  -43.4560  178.9460 C.ar   73  TRP73       0.0001
     81  CH2      175.3480  -43.7640  180.0980 C.ar   73  TRP73       0.0015
     82  N        181.3210  -38.4740  174.8050 N.3    75  VAL75      -0.1245
     83  CA       180.5890  -38.4670  173.5440 C.3    75  VAL75       0.1561
     84  C        181.4220  -37.7040  172.5210 C.2    75  VAL75       0.2260
     85  O        181.9020  -36.5990  172.7980 O.2    75  VAL75      -0.2867
     86  CB       179.1740  -37.8700  173.7030 C.3    75  VAL75       0.0252
     87  CG1      179.2190  -36.4000  174.1110 C.3    75  VAL75       0.0019
     88  CG2      178.3700  -38.0550  172.4270 C.3    75  VAL75       0.0019
     89  N        180.4440  -43.8110  174.7940 N.3    97  LEU97      -0.1245
     90  CA       179.7480  -44.3450  173.6390 C.3    97  LEU97       0.1561
     91  C        180.7390  -45.0480  172.7140 C.2    97  LEU97       0.2260
     92  O        181.9450  -44.7970  172.7800 O.2    97  LEU97      -0.2867
     93  CB       179.0180  -43.2140  172.9200 C.3    97  LEU97       0.0270
     94  CG       177.8820  -42.6190  173.7600 C.3    97  LEU97       0.0019
     95  CD1      177.0410  -41.6370  172.9610 C.3    97  LEU97       0.0001
     96  CD2      177.0110  -43.7240  174.3450 C.3    97  LEU97       0.0001
@<TRIPOS>BOND
     1    88    86    1
     2    84    85    2
     3    84    83    1
     4    91    92    2
     5    91    90    1
     6    93    90    1
     7    93    94    1
     8    95    94    1
     9    83    86    1
    10    83    82    1
    11    90    89    1
    12    86    87    1
    13    94    96    1
    14    51    52    1
    15    51    50    1
    16    49    50    1
    17    49    46    1
    18     7     5    1
    19     8     6    1
    20    47    48    2
    21    47    46    1
    22     6     5    1
    23     5     2    1
    24    46    45    1
    25     1     2    1
    26     2     3    1
    27     3     4    2
    28    18    17    1
    29    26    25    1
    30    19    17    1
    31    17    16    2
    32    71    70    2
    33    67    64    1
    34    70    69    1
    35    25    27    1
    36    25    24    1
    37    65    66    2
    38    65    64    1
    39    78    80   ar
    40    78    75   ar
    41    80    81   ar
    42    16    15    1
    43    64    63    1
    44    15    14    1
    45    72    69    1
    46    72    73    1
    47    69    68    1
    48    13    14    1
    49    13    10    1
    50    24    21    1
    51    75    73   ar
    52    75    77   ar
    53    81    79   ar
    54    73    74   ar
    55    20    21    1
    56    20    11   am
    57     9    10    1
    58    21    22    1
    59    43    41    1
    60    10    11    1
    61    44    42    1
    62    77    79   ar
    63    77    76   ar
    64    11    12    2
    65    74    76   ar
    66    41    42    1
    67    41    38    1
    68    22    23    2
    69    40    39    2
    70    33    34    1
    71    33    32    1
    72    39    38    1
    73    38    37    1
    74    34    36   ar
    75    34    35   ar
    76    32    29    1
    77    56    55    2
    78    57    58    1
    79    57    54    1
    80    55    54    1
    81    59    58   ar
    82    59    61   ar
    83    58    60   ar
    84    28    29    1
    85    54    53    1
    86    29    30    1
    87    31    30    2
    88    61    62   ar
    89    60    62   ar
