@<TRIPOS>MOLECULE
tmp/6h29A00.pdb
 118 114 0 0 0
SMALL
GASTEIGER

@<TRIPOS>ATOM
      1  N         -0.7050   -1.6850    6.3670 N.3    64  HIS64      -0.1241
      2  CA        -0.8420   -2.4730    7.6000 C.3    64  HIS64       0.1621
      3  C         -2.2660   -2.9580    7.8740 C.2    64  HIS64       0.2264
      4  O         -2.4580   -3.8690    8.6750 O.2    64  HIS64      -0.2867
      5  CB        -0.2490   -1.7820    8.8470 C.3    64  HIS64       0.0745
      6  CG        -0.5580   -0.3320    8.9810 C.ar   64  HIS64       0.0817
      7  ND1       -1.5710    0.1440    9.7860 N.ar   64  HIS64      -0.2268
      8  CD2        0.0730    0.7580    8.4820 C.ar   64  HIS64       0.1154
      9  CE1       -1.5520    1.4640    9.7770 C.ar   64  HIS64       0.1986
     10  NE2       -0.5660    1.8610    8.9930 N.ar   64  HIS64      -0.2212
     11  N        -12.7380    6.7060   11.0950 N.3    92  GLN92      -0.1245
     12  CA       -12.4350    5.5400   10.2670 C.3    92  GLN92       0.1566
     13  C        -12.6050    4.2640   11.0450 C.2    92  GLN92       0.2260
     14  O        -12.6630    4.2960   12.2730 O.2    92  GLN92      -0.2867
     15  CB       -10.9740    5.5680    9.7540 C.3    92  GLN92       0.0367
     16  CG        -9.9110    5.7120   10.8730 C.3    92  GLN92       0.0905
     17  CD        -9.1470    4.4280   11.1950 C.2    92  GLN92       0.2608
     18  OE1       -9.6740    3.3200   11.0890 O.2    92  GLN92      -0.2717
     19  NE2       -7.9020    4.5920   11.6230 N.am   92  GLN92      -0.0878
     20  N        -11.2350   -0.0240   10.8440 N.3    94  HIS94      -0.1241
     21  CA       -10.3440   -0.9930   10.2220 C.3    94  HIS94       0.1621
     22  C        -10.3830   -2.2570   11.0510 C.2    94  HIS94       0.2264
     23  O        -10.9940   -2.2910   12.1230 O.2    94  HIS94      -0.2867
     24  CB        -8.9050   -0.4680   10.1490 C.3    94  HIS94       0.0745
     25  CG        -8.3260   -0.1640   11.4900 C.ar   94  HIS94       0.0817
     26  ND1       -8.5010    1.0290   12.1490 N.ar   94  HIS94      -0.2268
     27  CD2       -7.6530   -0.9700   12.3470 C.ar   94  HIS94       0.1154
     28  CE1       -7.9420    0.9160   13.3640 C.ar   94  HIS94       0.1986
     29  NE2       -7.4160   -0.2870   13.5230 N.ar   94  HIS94      -0.2212
     30  N         -8.0790   -6.0260   12.3190 N.3    96  HIS96      -0.1241
     31  CA        -6.8350   -6.7740   12.5270 C.3    96  HIS96       0.1621
     32  C         -7.2820   -8.2240   12.4240 C.2    96  HIS96       0.2264
     33  O         -8.3370   -8.5820   12.9580 O.2    96  HIS96      -0.2867
     34  CB        -6.2270   -6.5360   13.9110 C.3    96  HIS96       0.0745
     35  CG        -5.9280   -5.1020   14.1800 C.ar   96  HIS96       0.0817
     36  ND1       -4.6890   -4.5390   13.9730 N.ar   96  HIS96      -0.2268
     37  CD2       -6.7410   -4.0850   14.5780 C.ar   96  HIS96       0.1154
     38  CE1       -4.7710   -3.2200   14.2550 C.ar   96  HIS96       0.1986
     39  NE2       -6.0010   -2.8940   14.6170 N.ar   96  HIS96      -0.2212
     40  N        -12.0050   -2.1400   14.7420 N.3   119  HIS119     -0.1241
     41  CA       -11.7650   -0.9210   15.5060 C.3   119  HIS119      0.1621
     42  C        -12.4580    0.2470   14.8240 C.2   119  HIS119      0.2264
     43  O        -12.1040    0.5800   13.6810 O.2   119  HIS119     -0.2867
     44  CB       -10.2570   -0.6480   15.5830 C.3   119  HIS119      0.0745
     45  CG        -9.5430   -1.6150   16.4740 C.ar  119  HIS119      0.0817
     46  ND1       -8.1740   -1.7970   16.4320 N.ar  119  HIS119     -0.2268
     47  CD2      -10.0730   -2.4280   17.4220 C.ar  119  HIS119      0.1154
     48  CE1       -7.9090   -2.7070   17.3510 C.ar  119  HIS119      0.1986
     49  NE2       -9.0220   -3.1200   17.9750 N.ar  119  HIS119     -0.2212
     50  N        -12.7980    4.0440   15.1160 N.3   121  VAL121     -0.1245
     51  CA       -12.0110    5.1210   15.7130 C.3   121  VAL121      0.1561
     52  C        -12.7520    6.4320   15.7270 C.2   121  VAL121      0.2260
     53  O        -13.2300    6.8710   14.6810 O.2   121  VAL121     -0.2867
     54  CB       -10.6950    5.2880   14.9190 C.3   121  VAL121      0.0252
     55  CG1       -9.7970    6.3540   15.5780 C.3   121  VAL121      0.0019
     56  CG2       -9.9700    3.9500   14.8320 C.3   121  VAL121      0.0019
     57  N         -8.3420   15.6850   14.5820 N.3   130  PHE130     -0.1241
     58  CA        -7.7770   14.4050   14.9540 C.3   130  PHE130      0.1605
     59  C         -6.3180   14.5120   15.3910 C.2   130  PHE130      0.2264
     60  O         -5.9080   13.8940   16.3830 O.2   130  PHE130     -0.2867
     61  CB        -7.9050   13.4480   13.7710 C.3   130  PHE130      0.0534
     62  CG        -7.2920   12.1010   14.0090 C.ar  130  PHE130     -0.0203
     63  CD1       -7.9970   11.1080   14.6900 C.ar  130  PHE130     -0.0042
     64  CD2       -6.0060   11.8340   13.5750 C.ar  130  PHE130     -0.0042
     65  CE1       -7.4210    9.8690   14.9270 C.ar  130  PHE130     -0.0003
     66  CE2       -5.4170   10.5940   13.8080 C.ar  130  PHE130     -0.0003
     67  CZ        -6.1260    9.6120   14.4820 C.ar  130  PHE130     -0.0000
     68  N         -9.0540   10.0660   21.9840 N.3   140  LEU140     -0.1245
     69  CA        -9.7700    9.1300   21.1310 C.3   140  LEU140      0.1561
     70  C        -10.5850    8.1540   21.9380 C.2   140  LEU140      0.2260
     71  O        -10.2890    7.8820   23.1010 O.2   140  LEU140     -0.2867
     72  CB        -8.7880    8.2950   20.2870 C.3   140  LEU140      0.0270
     73  CG        -7.8060    9.0000   19.3410 C.3   140  LEU140      0.0019
     74  CD1       -7.1520    7.9400   18.4760 C.3   140  LEU140      0.0001
     75  CD2       -8.4820   10.0180   18.4320 C.3   140  LEU140      0.0001
     76  N        -12.0390    4.3270   20.9900 N.3   142  VAL142     -0.1245
     77  CA       -12.0840    3.2890   19.9850 C.3   142  VAL142      0.1561
     78  C        -12.9910    2.1720   20.4630 C.2   142  VAL142      0.2260
     79  O        -12.8470    1.6540   21.5820 O.2   142  VAL142     -0.2867
     80  CB       -10.6690    2.7350   19.6630 C.3   142  VAL142      0.0252
     81  CG1      -10.7670    1.6880   18.5270 C.3   142  VAL142      0.0019
     82  CG2       -9.7770    3.8600   19.2180 C.3   142  VAL142      0.0019
     83  N         -2.9250    3.6170   21.0500 N.3   197  LEU197     -0.1231
     84  CA        -3.0210    3.1260   19.6770 C.3   197  LEU197      0.1693
     85  C         -2.2510    1.7920   19.7250 C.2   197  LEU197      0.2593
     86  O         -1.2460    1.6450   20.4720 O.2   197  LEU197     -0.2718
     87  CB        -2.2740    4.0390   18.6890 C.3   197  LEU197      0.0284
     88  CG        -2.5860    5.5340   18.7210 C.3   197  LEU197      0.0019
     89  CD1       -1.8280    6.1940   17.5510 C.3   197  LEU197      0.0001
     90  CD2       -4.0720    5.8130   18.6250 C.3   197  LEU197      0.0001
     91  N         -2.6670    0.8180   18.9250 N.am  198  THR198     -0.1939
     92  CA        -1.9650   -0.4630   18.8990 C.3   198  THR198      0.2028
     93  C         -0.9710   -0.5550   17.7560 C.2   198  THR198      0.2642
     94  O         -0.3470   -1.5890   17.5610 O.2   198  THR198     -0.2714
     95  CB        -2.9270   -1.6470   18.8080 C.3   198  THR198      0.1808
     96  OG1       -3.5310   -1.6710   17.5090 O.3   198  THR198     -0.2208
     97  CG2       -4.0000   -1.5550   19.8940 C.3   198  THR198      0.0379
     98  N         -0.8260    0.5380   17.0010 N.am  199  THR199     -0.1950
     99  CA         0.1700    0.6040   15.9230 C.3   199  THR199      0.1897
    100  C          0.9740    1.8710   16.1680 C.2   199  THR199      0.2313
    101  O          0.4660    2.8350   16.7610 O.2   199  THR199     -0.2863
    102  CB        -0.4900    0.7490   14.5260 C.3   199  THR199      0.1794
    103  OG1       -1.5300    1.7470   14.5710 O.3   199  THR199     -0.2208
    104  CG2       -1.0880   -0.5580   14.0730 C.3   199  THR199      0.0378
    105  N        -10.5150    2.8450   25.4900 N.3   208  TRP208     -0.1241
    106  CA       -10.9580    1.6430   24.8050 C.3   208  TRP208      0.1605
    107  C        -12.2840    1.1750   25.3320 C.2   208  TRP208      0.2264
    108  O        -12.4900    1.1240   26.5380 O.2   208  TRP208     -0.2867
    109  CB        -9.9250    0.5060   24.9890 C.3   208  TRP208      0.0550
    110  CG        -8.7980    0.6050   24.0120 C.ar  208  TRP208      0.0003
    111  CD1       -7.5740    1.1910   24.2190 C.ar  208  TRP208      0.0946
    112  CD2       -8.8260    0.2060   22.6430 C.ar  208  TRP208      0.0152
    113  NE1       -6.8460    1.1890   23.0480 N.ar  208  TRP208     -0.2442
    114  CE2       -7.5900    0.5850   22.0670 C.ar  208  TRP208      0.0810
    115  CE3       -9.7840   -0.4400   21.8380 C.ar  208  TRP208      0.0012
    116  CZ2       -7.2900    0.3350   20.7260 C.ar  208  TRP208      0.0191
    117  CZ3       -9.4780   -0.6880   20.5030 C.ar  208  TRP208      0.0001
    118  CH2       -8.2470   -0.3040   19.9650 C.ar  208  TRP208      0.0015
@<TRIPOS>BOND
     1     1     2    1
     2     2     3    1
     3     2     5    1
     4     3     4    2
     5     8     6   ar
     6     8    10   ar
     7     5     6    1
     8     6     7   ar
     9    10     9   ar
    10    15    12    1
    11    15    16    1
    12     9     7   ar
    13    24    21    1
    14    24    25    1
    15    21    20    1
    16    21    22    1
    17    12    13    1
    18    12    11    1
    19    16    17    1
    20    13    14    2
    21    22    23    2
    22    18    17    2
    23    17    19   am
    24    25    26   ar
    25    25    27   ar
    26    26    28   ar
    27    30    31    1
    28    27    29   ar
    29    32    31    1
    30    32    33    2
    31    31    34    1
    32    28    29   ar
    33    64    66   ar
    34    64    62   ar
    35    43    42    2
    36    61    62    1
    37    61    58    1
    38    66    67   ar
    39    34    35    1
    40    36    35   ar
    41    36    38   ar
    42    62    63   ar
    43   104   102    1
    44    35    37   ar
    45    38    39   ar
    46    67    65   ar
    47   102   103    1
    48   102    99    1
    49    37    39   ar
    50    57    58    1
    51    53    52    2
    52    63    65   ar
    53    40    41    1
    54    42    41    1
    55    56    54    1
    56    54    55    1
    57    54    51    1
    58    58    59    1
    59    50    51    1
    60    59    60    2
    61    41    44    1
    62    44    45    1
    63    51    52    1
    64    99   100    1
    65    99    98    1
    66   100   101    2
    67    46    45   ar
    68    46    48   ar
    69    45    47   ar
    70    98    93   am
    71    48    49   ar
    72    47    49   ar
    73    96    95    1
    74    89    88    1
    75    94    93    2
    76    93    92    1
    77    75    73    1
    78    74    73    1
    79    81    80    1
    80    90    88    1
    81    87    88    1
    82    87    84    1
    83    95    92    1
    84    95    97    1
    85    92    91    1
    86    91    85   am
    87    82    80    1
    88    73    72    1
    89    80    77    1
    90    84    85    1
    91    84    83    1
    92    85    86    2
    93   118   117   ar
    94   118   116   ar
    95    77    78    1
    96    77    76    1
    97    72    69    1
    98    78    79    2
    99   117   115   ar
   100   116   114   ar
   101    69    70    1
   102    69    68    1
   103   115   112   ar
   104    70    71    2
   105   114   112   ar
   106   114   113   ar
   107   112   110   ar
   108   113   111   ar
   109   110   111   ar
   110   110   109    1
   111   106   109    1
   112   106   107    1
   113   106   105    1
   114   107   108    2
