@<TRIPOS>MOLECULE
tmp/6h2aA01.pdb
 93 85 0 0 0
SMALL
GASTEIGER

@<TRIPOS>ATOM
      1  N         21.3090  -23.1300  -37.3310 N.3    41  CYS41      -0.1221
      2  CA        20.7590  -24.3660  -37.9060 C.3    41  CYS41       0.1808
      3  C         20.6840  -25.3440  -36.7530 C.2    41  CYS41       0.2601
      4  O         20.5020  -24.8980  -35.6290 O.2    41  CYS41      -0.2717
      5  CB        21.5730  -24.8320  -39.0810 C.3    41  CYS41       0.0970
      6  SG        21.6680  -23.6310  -40.4250 S.3    41  CYS41      -0.0800
      7  N         20.8730  -26.6410  -36.9640 N.am   42  ALA42      -0.1979
      8  CA        20.6800  -27.6120  -35.8580 C.3    42  ALA42       0.1597
      9  C         21.7280  -27.6210  -34.7820 C.2    42  ALA42       0.2287
     10  O         21.5490  -28.3560  -33.8320 O.2    42  ALA42      -0.2864
     11  CB        20.5260  -29.0280  -36.3720 C.3    42  ALA42       0.0319
     12  N         20.5820  -27.6800  -31.1890 N.3    45  LYS45      -0.1245
     13  CA        19.9610  -28.8730  -30.5660 C.3    45  LYS45       0.1561
     14  C         20.7630  -29.4320  -29.3950 C.2    45  LYS45       0.2260
     15  O         20.1630  -29.9350  -28.4400 O.2    45  LYS45      -0.2867
     16  CB        19.6650  -29.9640  -31.5860 C.3    45  LYS45       0.0271
     17  CG        18.6000  -29.5560  -32.5890 C.3    45  LYS45       0.0035
     18  CD        18.4080  -30.6270  -33.6670 C.3    45  LYS45       0.0206
     19  CE        17.5310  -30.0510  -34.7880 C.3    45  LYS45       0.1093
     20  NZ        17.2940  -31.0430  -35.8670 N.3    45  LYS45      -0.1314
     21  N          9.2050  -31.4050  -41.1540 N.3    74  SER74      -0.1202
     22  CA        10.6680  -31.3910  -41.4090 C.3    74  SER74       0.2020
     23  C         11.1530  -32.8230  -41.3320 C.2    74  SER74       0.2618
     24  O         10.4950  -33.6640  -40.7100 O.2    74  SER74      -0.2717
     25  CB        11.4590  -30.5670  -40.3490 C.3    74  SER74       0.2103
     26  OG        11.2010  -31.0000  -38.9970 O.3    74  SER74      -0.2182
     27  N         12.3030  -33.0870  -41.9630 N.am   75  ILE75      -0.1979
     28  CA        12.9350  -34.4060  -41.9540 C.3    75  ILE75       0.1595
     29  C         13.0880  -34.8220  -40.4840 C.2    75  ILE75       0.2287
     30  O         13.6780  -34.1100  -39.6770 O.2    75  ILE75      -0.2864
     31  CB        14.2600  -34.4670  -42.7740 C.3    75  ILE75       0.0276
     32  CG1       13.9420  -34.3880  -44.2860 C.3    75  ILE75       0.0022
     33  CG2       15.0410  -35.7550  -42.4970 C.3    75  ILE75       0.0022
     34  CD1       15.1620  -34.1710  -45.2010 C.3    75  ILE75       0.0001
     35  N         19.6470  -35.6440  -36.0230 N.3   100  SER100     -0.1217
     36  CA        19.1420  -34.2900  -36.1840 C.3   100  SER100      0.1889
     37  C         17.6610  -34.1960  -36.5800 C.2   100  SER100      0.2288
     38  O         17.3020  -33.5180  -37.5000 O.2   100  SER100     -0.2866
     39  CB        20.0170  -33.5010  -37.1610 C.3   100  SER100      0.2089
     40  OG        19.8840  -32.1110  -36.8650 O.3   100  SER100     -0.2183
     41  N         14.0390  -33.0430  -36.8140 N.3   102  GLY102     -0.1225
     42  CA        13.5100  -31.6770  -36.6220 C.3   102  GLY102      0.1811
     43  C         12.2550  -31.6050  -35.7500 C.2   102  GLY102      0.2280
     44  O         12.0560  -30.6770  -34.9700 O.2   102  GLY102     -0.2866
     45  N         11.7860  -25.4130  -36.1980 N.3   140  GLU140     -0.1231
     46  CA        12.1630  -26.1830  -37.3820 C.3   140  GLU140      0.1684
     47  C         10.9340  -26.3040  -38.2900 C.2   140  GLU140      0.2434
     48  O          9.8310  -26.4280  -37.7980 O.2   140  GLU140     -0.2733
     49  CB        12.6630  -27.5870  -36.9800 C.3   140  GLU140      0.0402
     50  CG        13.9960  -27.6260  -36.2420 C.3   140  GLU140      0.1161
     51  CD        15.2070  -27.3980  -37.1510 C.2   140  GLU140      0.3649
     52  OE1       15.0080  -27.1140  -38.3530 O.co2 140  GLU140     -0.2457
     53  OE2       16.3760  -27.4890  -36.6810 O.co2 140  GLU140     -0.2457
     54  N         11.0690  -26.2260  -39.6080 N.am  141  PRO141     -0.2729
     55  CA        12.3110  -25.9820  -40.3430 C.3   141  PRO141      0.1401
     56  C         12.6070  -24.5190  -40.6290 C.2   141  PRO141      0.2269
     57  O         13.6500  -24.2370  -41.2210 O.2   141  PRO141     -0.2865
     58  CB        12.0270  -26.6840  -41.6690 C.3   141  PRO141      0.0296
     59  CG        10.5830  -26.4150  -41.8850 C.3   141  PRO141      0.0237
     60  CD         9.9610  -26.5540  -40.5270 C.3   141  PRO141      0.0939
     61  N         16.1800  -22.5770  -40.2930 N.3   144  ASN144     -0.1240
     62  CA        17.2340  -22.7790  -41.3100 C.3   144  ASN144      0.1653
     63  C         17.1260  -21.8480  -42.5410 C.2   144  ASN144      0.2266
     64  O         17.9950  -21.9080  -43.3680 O.2   144  ASN144     -0.2867
     65  CB        17.2120  -24.2330  -41.7850 C.3   144  ASN144      0.1155
     66  CG        17.3040  -25.2250  -40.6500 C.2   144  ASN144      0.2627
     67  OD1       18.3140  -25.3020  -39.9410 O.2   144  ASN144     -0.2716
     68  ND2       16.2340  -25.9770  -40.4580 N.am  144  ASN144     -0.0877
     69  N         25.4920  -37.8680  -38.0920 N.3   190  THR190     -0.1218
     70  CA        25.4710  -36.9100  -39.1840 C.3   190  THR190      0.1862
     71  C         26.7710  -36.1690  -39.4600 C.2   190  THR190      0.2287
     72  O         26.7940  -35.3840  -40.3790 O.2   190  THR190     -0.2866
     73  CB        24.3980  -35.8360  -38.9430 C.3   190  THR190      0.1770
     74  OG1       24.8560  -34.9570  -37.9090 O.3   190  THR190     -0.2211
     75  CG2       23.0040  -36.4920  -38.6040 C.3   190  THR190      0.0375
     76  N         25.9720  -31.2190  -35.8650 N.3   209  THR209     -0.1203
     77  CA        26.0250  -30.5020  -37.1350 C.3   209  THR209      0.1994
     78  C         24.8610  -29.5310  -37.2890 C.2   209  THR209      0.2618
     79  O         23.8390  -29.6070  -36.5820 O.2   209  THR209     -0.2717
     80  CB        25.9320  -31.4580  -38.3310 C.3   209  THR209      0.1784
     81  OG1       24.7190  -32.2130  -38.2380 O.3   209  THR209     -0.2211
     82  CG2       27.0990  -32.3760  -38.3680 C.3   209  THR209      0.0376
     83  N         25.0240  -28.6340  -38.2530 N.am  210  GLY210     -0.1942
     84  CA        23.9030  -27.8420  -38.7340 C.3   210  GLY210      0.2014
     85  C         24.0400  -27.6130  -40.2150 C.2   210  GLY210      0.2639
     86  O         25.1530  -27.4630  -40.7160 O.2   210  GLY210     -0.2714
     87  N         22.9130  -27.5830  -40.9000 N.am  211  THR211     -0.1950
     88  CA        22.8670  -27.4430  -42.3450 C.3   211  THR211      0.1897
     89  C         21.6360  -26.6480  -42.6910 C.2   211  THR211      0.2313
     90  O         20.5950  -26.8150  -42.0930 O.2   211  THR211     -0.2863
     91  CB        22.8200  -28.7920  -43.0840 C.3   211  THR211      0.1794
     92  OG1       23.9170  -29.6100  -42.6370 O.3   211  THR211     -0.2208
     93  CG2       22.9460  -28.5820  -44.5940 C.3   211  THR211      0.0378
@<TRIPOS>BOND
     1    34    32    1
     2    93    91    1
     3    32    31    1
     4    64    63    2
     5    91    92    1
     6    91    88    1
     7    31    33    1
     8    31    28    1
     9    89    88    1
    10    89    90    2
    11    63    62    1
    12    88    87    1
    13    27    28    1
    14    27    23   am
    15    28    29    1
    16    59    58    1
    17    59    60    1
    18    65    62    1
    19    65    66    1
    20    58    55    1
    21    22    23    1
    22    22    21    1
    23    22    25    1
    24    23    24    2
    25    62    61    1
    26    57    56    2
    27    87    85   am
    28    86    85    2
    29    66    68   am
    30    66    67    2
    31    56    55    1
    32    60    54    1
    33    29    30    2
    34     6     5    1
    35    72    71    2
    36    25    26    1
    37    55    54    1
    38    85    84    1
    39    54    47   am
    40    71    70    1
    41    70    73    1
    42    70    69    1
    43     5     2    1
    44    73    75    1
    45    73    74    1
    46    84    83    1
    47    82    80    1
    48    52    51   ar
    49    80    81    1
    50    80    77    1
    51    47    48    2
    52    47    46    1
    53    83    78   am
    54     2     1    1
    55     2     3    1
    56    38    37    2
    57    46    49    1
    58    46    45    1
    59    78    77    1
    60    78    79    2
    61    39    40    1
    62    39    36    1
    63    51    53   ar
    64    51    50    1
    65    77    76    1
    66    49    50    1
    67     7     3   am
    68     7     8    1
    69    41    42    1
    70     3     4    2
    71    42    43    1
    72    37    36    1
    73    11     8    1
    74    36    35    1
    75    20    19    1
    76     8     9    1
    77    43    44    2
    78    19    18    1
    79     9    10    2
    80    18    17    1
    81    17    16    1
    82    16    13    1
    83    12    13    1
    84    13    14    1
    85    14    15    2
