@<TRIPOS>MOLECULE
tmp/6h2aC01.pdb
 95 86 0 0 0
SMALL
GASTEIGER

@<TRIPOS>ATOM
      1  N         43.1100    1.2570  -15.1210 N.3    43  ALA43      -0.1245
      2  CA        44.1420    0.3430  -14.5940 C.3    43  ALA43       0.1562
      3  C         43.7050   -1.0850  -14.4350 C.2    43  ALA43       0.2260
      4  O         44.5520   -1.8940  -14.0870 O.2    43  ALA43      -0.2867
      5  CB        44.7110    0.8220  -13.2860 C.3    43  ALA43       0.0290
      6  N         46.0340   -3.7180  -15.7810 N.3    46  LYS46      -0.1245
      7  CA        47.2970   -4.0780  -15.1160 C.3    46  LYS46       0.1561
      8  C         47.3470   -5.5200  -14.6320 C.2    46  LYS46       0.2260
      9  O         48.4170   -6.1230  -14.6710 O.2    46  LYS46      -0.2867
     10  CB        47.6310   -3.1070  -13.9890 C.3    46  LYS46       0.0271
     11  CG        47.9970   -1.7290  -14.5080 C.3    46  LYS46       0.0035
     12  CD        48.1730   -0.7010  -13.4150 C.3    46  LYS46       0.0206
     13  CE        48.2150    0.7040  -13.9500 C.3    46  LYS46       0.1093
     14  NZ        48.4430    1.7300  -12.8970 N.3    46  LYS46      -0.1314
     15  N         52.6230   -2.2990   -9.8910 N.3    76  ALA76      -0.1245
     16  CA        51.5660   -2.1360  -10.8930 C.3    76  ALA76       0.1562
     17  C         50.2030   -2.5490  -10.3650 C.2    76  ALA76       0.2260
     18  O         49.2190   -1.8580  -10.5780 O.2    76  ALA76      -0.2867
     19  CB        51.9040   -2.8990  -12.1460 C.3    76  ALA76       0.0290
     20  N         51.2050    1.5610   -7.7950 N.3    80  SER80      -0.1202
     21  CA        51.8920    2.5120   -8.6530 C.3    80  SER80       0.2020
     22  C         51.0490    3.5640   -9.3480 C.2    80  SER80       0.2618
     23  O         49.8480    3.4560   -9.4580 O.2    80  SER80      -0.2717
     24  CB        52.7850    1.8070   -9.6480 C.3    80  SER80       0.2103
     25  OG        53.8370    2.6570  -10.0040 O.3    80  SER80      -0.2182
     26  N         51.7290    4.6080   -9.7730 N.am   81  ASP81      -0.1973
     27  CA        51.1380    5.7190  -10.4860 C.3    81  ASP81       0.1709
     28  C         51.1030    5.3860  -11.9880 C.2    81  ASP81       0.2293
     29  O         50.7500    6.2460  -12.7850 O.2    81  ASP81      -0.2864
     30  CB        51.9860    6.9990  -10.1960 C.3    81  ASP81       0.1436
     31  CG        53.3680    7.0740  -10.9900 C.2    81  ASP81       0.3671
     32  OD1       54.0510    6.0640  -11.2450 O.co2  81  ASP81      -0.2456
     33  OD2       53.7620    8.1930  -11.3700 O.co2  81  ASP81      -0.2456
     34  N         50.3320    4.7940  -20.1170 N.3   120  GLU120     -0.1245
     35  CA        49.9300    5.6540  -18.9950 C.3   120  GLU120      0.1567
     36  C         50.5850    7.0370  -19.1950 C.2   120  GLU120      0.2260
     37  O         51.7230    7.0950  -19.6780 O.2   120  GLU120     -0.2867
     38  CB        50.3540    5.0390  -17.6700 C.3   120  GLU120      0.0388
     39  CG        49.5840    3.7660  -17.2870 C.3   120  GLU120      0.1160
     40  CD        48.2070    4.0030  -16.7390 C.2   120  GLU120      0.3649
     41  OE1       47.7360    5.1660  -16.7820 O.co2 120  GLU120     -0.2457
     42  OE2       47.5510    3.0350  -16.2870 O.co2 120  GLU120     -0.2457
     43  N         43.8320    6.4180  -19.7400 N.3   124  ASN124     -0.1240
     44  CA        42.6830    6.7850  -18.8790 C.3   124  ASN124      0.1653
     45  C         41.7640    7.9100  -19.4400 C.2   124  ASN124      0.2266
     46  O         40.7620    8.2190  -18.8300 O.2   124  ASN124     -0.2867
     47  CB        43.2030    7.2060  -17.4990 C.3   124  ASN124      0.1155
     48  CG        44.0820    6.1420  -16.8600 C.2   124  ASN124      0.2627
     49  OD1       43.6090    5.0730  -16.5130 O.2   124  ASN124     -0.2716
     50  ND2       45.3720    6.4220  -16.7410 N.am  124  ASN124     -0.0877
     51  N         43.3060   -0.1190   -2.2380 N.3   170  THR170     -0.1218
     52  CA        42.6990    0.8660   -3.2030 C.3   170  THR170      0.1862
     53  C         41.2550    0.5080   -3.5450 C.2   170  THR170      0.2287
     54  O         40.4710    1.3900   -3.8750 O.2   170  THR170     -0.2866
     55  CB        43.5050    1.1720   -4.5270 C.3   170  THR170      0.1770
     56  OG1       42.8910    0.5970   -5.7220 O.3   170  THR170     -0.2211
     57  CG2       45.0030    0.7740   -4.4160 C.3   170  THR170      0.0375
     58  N         34.7350   -0.4380   -3.2870 N.3   174  ARG174     -0.1245
     59  CA        34.1150   -0.9080   -4.5280 C.3   174  ARG174      0.1563
     60  C         33.5500   -2.3360   -4.3670 C.2   174  ARG174      0.2260
     61  O         32.6010   -2.5120   -3.5640 O.2   174  ARG174     -0.2867
     62  CB        35.1100   -0.7630   -5.6770 C.3   174  ARG174      0.0307
     63  CG        35.4740    0.6950   -5.9060 C.3   174  ARG174      0.0489
     64  CD        36.5310    0.8680   -6.9570 C.3   174  ARG174      0.2205
     65  NE        36.9250    2.2860   -7.0100 N.pl3 174  ARG174     -0.0865
     66  CZ        37.5360    2.8790   -8.0520 C.cat 174  ARG174      0.5346
     67  NH1       37.8800    4.1330   -7.9310 N.pl3 174  ARG174      0.1354
     68  NH2       37.7970    2.2570   -9.2180 N.pl3 174  ARG174      0.1354
     69  N         41.3080   -5.7000   -8.8460 N.3   188  LYS188     -0.1231
     70  CA        42.0930   -4.5900   -9.4210 C.3   188  LYS188      0.1693
     71  C         41.1450   -3.5000   -9.8840 C.2   188  LYS188      0.2593
     72  O         40.2500   -3.7640  -10.6740 O.2   188  LYS188     -0.2718
     73  CB        42.9680   -5.0130  -10.5680 C.3   188  LYS188      0.0285
     74  CG        43.7810   -3.8950  -11.1610 C.3   188  LYS188      0.0035
     75  CD        44.9740   -3.4360  -10.2980 C.3   188  LYS188      0.0206
     76  CE        45.5980   -2.1200  -10.8200 C.3   188  LYS188      0.1093
     77  NZ        44.7970   -1.0140  -10.1960 N.3   188  LYS188     -0.1314
     78  N         41.3930   -2.2840   -9.4180 N.am  189  THR189     -0.1939
     79  CA        40.5640   -1.1310   -9.7220 C.3   189  THR189      0.2028
     80  C         41.0400   -0.3940  -10.9550 C.2   189  THR189      0.2643
     81  O         42.1840   -0.5500  -11.4270 O.2   189  THR189     -0.2714
     82  CB        40.6190   -0.0940   -8.5700 C.3   189  THR189      0.1808
     83  OG1       41.9810    0.2770   -8.3300 O.3   189  THR189     -0.2208
     84  CG2       40.0520   -0.6480   -7.3260 C.3   189  THR189      0.0379
     85  N         40.1490    0.4520  -11.4530 N.am  190  GLY190     -0.1939
     86  CA        40.5370    1.4450  -12.4580 C.3   190  GLY190      0.2014
     87  C         39.7400    2.7100  -12.2650 C.2   190  GLY190      0.2639
     88  O         38.5700    2.6440  -11.8510 O.2   190  GLY190     -0.2714
     89  N         40.3750    3.8500  -12.5580 N.am  191  THR191     -0.1950
     90  CA        39.7540    5.1590  -12.3510 C.3   191  THR191      0.1897
     91  C         40.2440    6.0890  -13.4220 C.2   191  THR191      0.2313
     92  O         41.4190    6.0260  -13.8220 O.2   191  THR191     -0.2863
     93  CB        40.0950    5.7450  -10.9480 C.3   191  THR191      0.1794
     94  OG1       39.7060    4.8160   -9.9310 O.3   191  THR191     -0.2208
     95  CG2       39.3490    7.0290  -10.6970 C.3   191  THR191      0.0378
@<TRIPOS>BOND
     1    34    35    1
     2    43    44    1
     3    37    36    2
     4    45    44    1
     5    45    46    2
     6    36    35    1
     7    35    38    1
     8    44    47    1
     9    38    39    1
    10    47    48    1
    11    39    40    1
    12    48    50   am
    13    48    49    2
    14    41    40   ar
    15    40    42   ar
    16     6     7    1
    17     1     2    1
    18     7     8    1
    19     7    10    1
    20     9     8    2
    21     2     3    1
    22     2     5    1
    23    11    10    1
    24    11    12    1
    25     3     4    2
    26    13    12    1
    27    13    14    1
    28    92    91    2
    29    91    90    1
    30    29    28    2
    31    89    90    1
    32    89    87   am
    33    86    87    1
    34    86    85    1
    35    90    93    1
    36    87    88    2
    37    19    16    1
    38    28    27    1
    39    85    80   am
    40    81    80    2
    41    33    31   ar
    42    32    31   ar
    43    74    73    1
    44    74    75    1
    45    31    30    1
    46    80    79    1
    47    93    95    1
    48    93    94    1
    49    16    17    1
    50    16    15    1
    51    76    75    1
    52    76    77    1
    53    72    71    2
    54    18    17    2
    55    73    70    1
    56    27    30    1
    57    27    26    1
    58    25    24    1
    59    71    70    1
    60    71    78   am
    61    26    22   am
    62    79    78    1
    63    79    82    1
    64    24    21    1
    65    23    22    2
    66    70    69    1
    67    22    21    1
    68    68    66    1
    69    21    20    1
    70    82    83    1
    71    82    84    1
    72    66    67    1
    73    66    65    2
    74    65    64    1
    75    64    63    1
    76    63    62    1
    77    56    55    1
    78    62    59    1
    79    59    60    1
    80    59    58    1
    81    55    57    1
    82    55    52    1
    83    60    61    2
    84    54    53    2
    85    53    52    1
    86    52    51    1
