@<TRIPOS>MOLECULE
tmp/6h2aB00.pdb
 94 84 0 0 0
SMALL
GASTEIGER

@<TRIPOS>ATOM
      1  N         39.4200   -4.2480  -63.9870 N.3    42  ALA42      -0.1245
      2  CA        39.6920   -3.2150  -62.9810 C.3    42  ALA42       0.1562
      3  C         38.5390   -2.7820  -62.1110 C.2    42  ALA42       0.2260
      4  O         38.7610   -1.9780  -61.2320 O.2    42  ALA42      -0.2867
      5  CB        40.2800   -1.9720  -63.6270 C.3    42  ALA42       0.0290
      6  N         39.1310   -2.4930  -58.4010 N.3    45  LYS45      -0.1245
      7  CA        39.9400   -1.4260  -57.7980 C.3    45  LYS45       0.1561
      8  C         39.1480   -0.5280  -56.8420 C.2    45  LYS45       0.2260
      9  O         39.7030   -0.0670  -55.8460 O.2    45  LYS45      -0.2867
     10  CB        40.6560   -0.5900  -58.8550 C.3    45  LYS45       0.0271
     11  CG        41.7130   -1.3840  -59.5860 C.3    45  LYS45       0.0035
     12  CD        42.3340   -0.5890  -60.7450 C.3    45  LYS45       0.0206
     13  CE        43.1690   -1.5220  -61.6290 C.3    45  LYS45       0.1093
     14  NZ        43.7950   -0.8170  -62.7370 N.3    45  LYS45      -0.1314
     15  N         52.3030   -3.3650  -66.3050 N.3    74  SER74      -0.1202
     16  CA        50.9350   -3.1190  -66.8010 C.3    74  SER74       0.2020
     17  C         50.7940   -1.6470  -67.0950 C.2    74  SER74       0.2618
     18  O         51.5900   -0.8440  -66.5600 O.2    74  SER74      -0.2717
     19  CB        49.8650   -3.5240  -65.7830 C.3    74  SER74       0.2103
     20  OG        50.0730   -2.9210  -64.5300 O.3    74  SER74      -0.2182
     21  N         49.7880   -1.2910  -67.9210 N.am   75  ILE75      -0.1979
     22  CA        49.5040    0.1220  -68.2440 C.3    75  ILE75       0.1595
     23  C         49.3290    0.8640  -66.9170 C.2    75  ILE75       0.2287
     24  O         48.4950    0.4680  -66.0950 O.2    75  ILE75      -0.2864
     25  CB        48.2960    0.2900  -69.2250 C.3    75  ILE75       0.0276
     26  CG1       48.6960   -0.2040  -70.6340 C.3    75  ILE75       0.0022
     27  CG2       47.8250    1.7560  -69.2920 C.3    75  ILE75       0.0022
     28  CD1       47.5780   -0.2960  -71.6550 C.3    75  ILE75       0.0001
     29  N         42.8740    4.1590  -63.8100 N.3   100  SER100     -0.1217
     30  CA        42.9880    2.7050  -63.7370 C.3   100  SER100      0.1889
     31  C         44.4200    2.1670  -63.8310 C.2   100  SER100      0.2288
     32  O         44.7040    1.2780  -64.5920 O.2   100  SER100     -0.2866
     33  CB        42.0810    2.0290  -64.7590 C.3   100  SER100      0.2089
     34  OG        41.7670    0.7400  -64.2840 O.3   100  SER100     -0.2183
     35  N         47.5620    0.1090  -63.2300 N.3   102  GLY102     -0.1225
     36  CA        47.7020   -1.2790  -62.7740 C.3   102  GLY102      0.1811
     37  C         48.7790   -1.5060  -61.7450 C.2   102  GLY102      0.2280
     38  O         48.6160   -2.3540  -60.8640 O.2   102  GLY102     -0.2866
     39  N         47.6340   -7.6450  -61.5040 N.3   140  GLU140     -0.1231
     40  CA        47.6420   -6.9780  -62.7980 C.3   140  GLU140      0.1684
     41  C         48.9640   -7.3120  -63.5010 C.2   140  GLU140      0.2434
     42  O         49.9840   -7.3940  -62.8350 O.2   140  GLU140     -0.2733
     43  CB        47.5000   -5.4540  -62.6270 C.3   140  GLU140      0.0402
     44  CG        46.1310   -4.9780  -62.1610 C.3   140  GLU140      0.1161
     45  CD        45.0540   -5.0020  -63.2310 C.2   140  GLU140      0.3649
     46  OE1       45.3340   -5.4770  -64.3420 O.co2 140  GLU140     -0.2457
     47  OE2       43.8990   -4.5510  -62.9830 O.co2 140  GLU140     -0.2457
     48  N         48.9770   -7.5300  -64.8200 N.am  141  PRO141     -0.2729
     49  CA        47.8230   -7.5440  -65.7140 C.3   141  PRO141      0.1401
     50  C         47.1620   -8.9140  -65.8830 C.2   141  PRO141      0.2269
     51  O         46.1780   -8.9980  -66.6060 O.2   141  PRO141     -0.2865
     52  CB        48.4340   -7.1510  -67.0490 C.3   141  PRO141      0.0296
     53  CG        49.7870   -7.8130  -66.9860 C.3   141  PRO141      0.0237
     54  CD        50.2410   -7.6460  -65.5660 C.3   141  PRO141      0.0939
     55  N         43.1770   -9.8390  -66.0030 N.3   144  ASN144     -0.1240
     56  CA        42.3640   -9.5030  -67.1620 C.3   144  ASN144      0.1653
     57  C         42.3420  -10.5840  -68.2760 C.2   144  ASN144      0.2266
     58  O         41.6540  -10.4010  -69.2860 O.2   144  ASN144     -0.2867
     59  CB        42.8650   -8.1920  -67.7750 C.3   144  ASN144      0.1155
     60  CG        42.9240   -7.0560  -66.7740 C.2   144  ASN144      0.2627
     61  OD1       41.9180   -6.6000  -66.2820 O.2   144  ASN144     -0.2716
     62  ND2       44.1090   -6.5900  -66.4880 N.am  144  ASN144     -0.0877
     63  N         38.2880    7.4730  -67.1950 N.3   190  THR190     -0.1218
     64  CA        38.2310    6.3810  -68.1600 C.3   190  THR190      0.1862
     65  C         36.8300    5.9600  -68.5770 C.2   190  THR190      0.2287
     66  O         36.7060    5.0710  -69.4000 O.2   190  THR190     -0.2866
     67  CB        38.9260    5.1330  -67.6200 C.3   190  THR190      0.1770
     68  OG1       38.1130    4.5630  -66.5960 O.3   190  THR190     -0.2211
     69  CG2       40.3430    5.4510  -67.0900 C.3   190  THR190      0.0375
     70  N         30.8730    4.8480  -71.4630 N.3   194  ARG194     -0.1245
     71  CA        30.1640    3.6990  -70.9060 C.3   194  ARG194      0.1563
     72  C         28.8870    4.0990  -70.1580 C.2   194  ARG194      0.2260
     73  O         27.9910    4.6320  -70.7860 O.2   194  ARG194     -0.2867
     74  CB        31.1410    2.8670  -70.0880 C.3   194  ARG194      0.0307
     75  CG        32.1880    2.2450  -70.9750 C.3   194  ARG194      0.0489
     76  CD        33.2150    1.4870  -70.1700 C.3   194  ARG194      0.2205
     77  NE        34.3350    1.1180  -71.0250 N.pl3 194  ARG194     -0.0865
     78  CZ        35.2090    0.1470  -70.7930 C.cat 194  ARG194      0.5346
     79  NH1       36.1720   -0.0460  -71.6820 N.pl3 194  ARG194      0.1354
     80  NH2       35.1520   -0.6420  -69.7050 N.pl3 194  ARG194      0.1354
     81  N         35.6780    1.6100  -64.3840 N.3   209  THR209     -0.1218
     82  CA        35.6570    0.7300  -65.5530 C.3   209  THR209      0.1862
     83  C         36.5050   -0.5240  -65.3720 C.2   209  THR209      0.2287
     84  O         37.3530   -0.6080  -64.4810 O.2   209  THR209     -0.2866
     85  CB        36.1970    1.4270  -66.7950 C.3   209  THR209      0.1770
     86  OG1       37.5320    1.8540  -66.5480 O.3   209  THR209     -0.2211
     87  CG2       35.3250    2.5940  -67.1600 C.3   209  THR209      0.0375
     88  N         38.3780   -3.4270  -68.3670 N.3   211  THR211     -0.1218
     89  CA        38.5600   -3.8120  -69.7550 C.3   211  THR211      0.1862
     90  C         39.5310   -4.9600  -69.8230 C.2   211  THR211      0.2287
     91  O         40.4780   -5.0140  -69.0760 O.2   211  THR211     -0.2866
     92  CB        39.0860   -2.6280  -70.6030 C.3   211  THR211      0.1770
     93  OG1       38.2130   -1.4960  -70.4580 O.3   211  THR211     -0.2211
     94  CG2       39.1670   -3.0020  -72.0950 C.3   211  THR211      0.0375
@<TRIPOS>BOND
     1    94    92    1
     2    79    78    1
     3    28    26    1
     4    70    71    1
     5    77    78    2
     6    77    76    1
     7    75    76    1
     8    75    74    1
     9    71    72    1
    10    71    74    1
    11    78    80    1
    12    73    72    2
    13    26    25    1
    14    92    93    1
    15    92    89    1
    16    90    89    1
    17    90    91    2
    18    89    88    1
    19    66    65    2
    20    27    25    1
    21    58    57    2
    22    25    22    1
    23    65    64    1
    24    57    56    1
    25    22    21    1
    26    22    23    1
    27    64    67    1
    28    64    63    1
    29    21    17   am
    30    59    56    1
    31    59    60    1
    32    67    69    1
    33    67    68    1
    34    56    55    1
    35    87    85    1
    36    17    16    1
    37    17    18    2
    38    52    53    1
    39    52    49    1
    40    53    54    1
    41    23    24    2
    42    16    15    1
    43    16    19    1
    44    85    86    1
    45    85    82    1
    46    60    62   am
    47    60    61    2
    48    51    50    2
    49    50    49    1
    50    19    20    1
    51    49    48    1
    52    54    48    1
    53    82    83    1
    54    82    81    1
    55    83    84    2
    56    48    41   am
    57    33    34    1
    58    33    30    1
    59    32    31    2
    60    46    45   ar
    61     1     2    1
    62    31    30    1
    63    29    30    1
    64     5     2    1
    65    41    42    2
    66    41    40    1
    67    45    47   ar
    68    45    44    1
    69    35    36    1
    70     2     3    1
    71    40    43    1
    72    40    39    1
    73    36    37    1
    74    14    13    1
    75    43    44    1
    76     3     4    2
    77    37    38    2
    78    13    12    1
    79    12    11    1
    80    11    10    1
    81    10     7    1
    82     6     7    1
    83     7     8    1
    84     8     9    2
