@<TRIPOS>MOLECULE
tmp/6h2aA00.pdb
 80 77 0 0 0
SMALL
GASTEIGER

@<TRIPOS>ATOM
      1  N         18.6500  -29.8720  -17.7530 N.3    54  HIS54      -0.1226
      2  CA        18.8500  -28.9900  -16.6090 C.3    54  HIS54       0.1752
      3  C         17.5550  -28.6830  -15.8480 C.2    54  HIS54       0.2595
      4  O         17.5620  -28.6510  -14.6290 O.2    54  HIS54      -0.2718
      5  CB        19.4950  -27.6820  -17.0340 C.3    54  HIS54       0.0759
      6  CG        19.5240  -26.6520  -15.9500 C.ar   54  HIS54       0.0818
      7  ND1       20.3860  -26.7310  -14.8720 N.ar   54  HIS54      -0.2268
      8  CD2       18.7670  -25.5400  -15.7550 C.ar   54  HIS54       0.1154
      9  CE1       20.1770  -25.6950  -14.0750 C.ar   54  HIS54       0.1986
     10  NE2       19.1910  -24.9670  -14.5760 N.ar   54  HIS54      -0.2212
     11  N         16.4610  -28.4740  -16.5650 N.am   55  GLN55      -0.1979
     12  CA        15.2360  -27.9190  -15.9830 C.3    55  GLN55       0.1601
     13  C         14.3330  -28.9170  -15.2350 C.2    55  GLN55       0.2287
     14  O         13.3390  -28.5390  -14.6510 O.2    55  GLN55      -0.2864
     15  CB        14.3960  -27.2620  -17.0810 C.3    55  GLN55       0.0394
     16  CG        14.2300  -25.7690  -16.9670 C.3    55  GLN55       0.0908
     17  CD        13.9220  -25.1490  -18.3150 C.2    55  GLN55       0.2608
     18  OE1       14.7640  -24.4080  -18.8650 O.2    55  GLN55      -0.2717
     19  NE2       12.6860  -25.4070  -18.8490 N.am   55  GLN55      -0.0878
     20  N         17.7010  -19.7360  -21.5050 N.3   125  TYR125     -0.1241
     21  CA        18.6650  -20.6960  -20.9990 C.3   125  TYR125      0.1605
     22  C         20.0790  -20.2860  -21.4180 C.2   125  TYR125      0.2264
     23  O         20.9940  -20.3110  -20.6040 O.2   125  TYR125     -0.2867
     24  CB        18.3380  -22.1190  -21.4710 C.3   125  TYR125      0.0534
     25  CG        19.3800  -23.1480  -21.0510 C.ar  125  TYR125     -0.0201
     26  CD1       19.4930  -23.5700  -19.7300 C.ar  125  TYR125     -0.0009
     27  CD2       20.2760  -23.6540  -21.9630 C.ar  125  TYR125     -0.0009
     28  CE1       20.4710  -24.4870  -19.3390 C.ar  125  TYR125      0.0417
     29  CE2       21.2420  -24.5840  -21.5980 C.ar  125  TYR125      0.0417
     30  CZ        21.3370  -24.9990  -20.2910 C.ar  125  TYR125      0.1957
     31  OH        22.3100  -25.8980  -19.9530 O.3   125  TYR125     -0.2866
     32  N         21.2490  -17.4980  -19.2770 N.3   128  SER128     -0.1202
     33  CA        21.6240  -18.0040  -17.9470 C.3   128  SER128      0.2020
     34  C         23.0110  -18.6270  -17.9590 C.2   128  SER128      0.2618
     35  O         23.5830  -18.7880  -16.9010 O.2   128  SER128     -0.2717
     36  CB        20.6160  -19.0230  -17.4380 C.3   128  SER128      0.2103
     37  OG        20.9290  -20.3240  -17.9330 O.3   128  SER128     -0.2182
     38  N         23.5130  -19.0290  -19.1340 N.am  129  LEU129     -0.1979
     39  CA        24.8960  -19.5330  -19.2770 C.3   129  LEU129      0.1596
     40  C         25.9090  -18.4640  -19.6250 C.2   129  LEU129      0.2287
     41  O         27.0550  -18.7700  -19.8190 O.2   129  LEU129     -0.2864
     42  CB        24.9810  -20.6570  -20.3150 C.3   129  LEU129      0.0297
     43  CG        24.1840  -21.9560  -20.1030 C.3   129  LEU129      0.0022
     44  CD1       24.3880  -22.9390  -21.2470 C.3   129  LEU129      0.0001
     45  CD2       24.6210  -22.6160  -18.8510 C.3   129  LEU129      0.0001
     46  N         31.6050  -25.7390  -24.3790 N.3   165  GLN165     -0.1231
     47  CA        32.6130  -25.9950  -23.3420 C.3   165  GLN165      0.1698
     48  C         31.9820  -26.0570  -21.9470 C.2   165  GLN165      0.2592
     49  O         32.3130  -26.9350  -21.1670 O.2   165  GLN165     -0.2718
     50  CB        33.6900  -24.9250  -23.3490 C.3   165  GLN165      0.0381
     51  CG        34.8220  -25.1170  -22.3620 C.3   165  GLN165      0.0905
     52  CD        35.9560  -24.1400  -22.6200 C.2   165  GLN165      0.2608
     53  OE1       37.0960  -24.5360  -22.9390 O.2   165  GLN165     -0.2717
     54  NE2       35.6460  -22.8490  -22.5050 N.am  165  GLN165     -0.0878
     55  N         31.0710  -25.1460  -21.6340 N.am  166  GLN166     -0.1979
     56  CA        30.4190  -25.1690  -20.3240 C.3   166  GLN166      0.1601
     57  C         29.6290  -26.4660  -20.1430 C.2   166  GLN166      0.2287
     58  O         29.5910  -27.0100  -19.0530 O.2   166  GLN166     -0.2864
     59  CB        29.4570  -23.9870  -20.1360 C.3   166  GLN166      0.0394
     60  CG        30.0890  -22.6840  -19.6280 C.3   166  GLN166      0.0908
     61  CD        29.1430  -21.5060  -19.7470 C.2   166  GLN166      0.2608
     62  OE1       29.1130  -20.8420  -20.7600 O.2   166  GLN166     -0.2717
     63  NE2       28.3090  -21.3090  -18.7560 N.am  166  GLN166     -0.0878
     64  N         32.7910  -28.0860  -18.5320 N.3   170  GLY170     -0.1210
     65  CA        32.5170  -27.4430  -17.2610 C.3   170  GLY170      0.1956
     66  C         31.3640  -28.0950  -16.5150 C.2   170  GLY170      0.2612
     67  O         31.0910  -29.3010  -16.6860 O.2   170  GLY170     -0.2717
     68  N         30.6720  -27.2650  -15.7280 N.am  171  ASN171     -0.1960
     69  CA        29.7940  -27.7160  -14.6550 C.3   171  ASN171      0.1819
     70  C         28.3800  -27.2040  -14.8530 C.2   171  ASN171      0.2621
     71  O         27.6150  -27.1170  -13.8930 O.2   171  ASN171     -0.2715
     72  CB        30.3420  -27.1960  -13.3040 C.3   171  ASN171      0.1195
     73  CG        31.3730  -28.1210  -12.6900 C.2   171  ASN171      0.2630
     74  OD1       32.4910  -27.7140  -12.3270 O.2   171  ASN171     -0.2716
     75  ND2       31.0020  -29.3770  -12.5670 N.am  171  ASN171     -0.0877
     76  N         28.0140  -26.9120  -16.0980 N.am  172  ALA172     -0.1977
     77  CA        26.6620  -26.4710  -16.4300 C.3   172  ALA172      0.1597
     78  C         25.6080  -27.5150  -16.1500 C.2   172  ALA172      0.2287
     79  O         24.4730  -27.1960  -15.7920 O.2   172  ALA172     -0.2864
     80  CB        26.5950  -26.0860  -17.8850 C.3   172  ALA172      0.0319
@<TRIPOS>BOND
     1    46    47    1
     2    50    47    1
     3    50    51    1
     4    47    48    1
     5    53    52    2
     6    52    54   am
     7    52    51    1
     8    27    29   ar
     9    27    25   ar
    10    48    55   am
    11    48    49    2
    12    55    56    1
    13    29    30   ar
    14    20    21    1
    15    24    25    1
    16    24    21    1
    17    22    21    1
    18    22    23    2
    19    44    43    1
    20    25    26   ar
    21    62    61    2
    22    56    57    1
    23    56    59    1
    24    42    43    1
    25    42    39    1
    26    30    31    1
    27    30    28   ar
    28    57    58    2
    29    59    60    1
    30    43    45    1
    31    41    40    2
    32    61    60    1
    33    61    63   am
    34    26    28   ar
    35    40    39    1
    36    32    33    1
    37    39    38    1
    38    38    34   am
    39    18    17    2
    40    19    17   am
    41    64    65    1
    42    17    16    1
    43    34    33    1
    44    34    35    2
    45    33    36    1
    46    37    36    1
    47    80    77    1
    48     1     2    1
    49    65    66    1
    50    15    16    1
    51    15    12    1
    52     5     2    1
    53     5     6    1
    54    67    66    2
    55     2     3    1
    56    11    12    1
    57    11     3   am
    58    66    68   am
    59    77    78    1
    60    77    76    1
    61    78    79    2
    62    76    70   am
    63    12    13    1
    64     6     8   ar
    65     6     7   ar
    66     3     4    2
    67     8    10   ar
    68    68    69    1
    69    13    14    2
    70     7     9   ar
    71    70    69    1
    72    70    71    2
    73    69    72    1
    74    10     9   ar
    75    72    73    1
    76    73    75   am
    77    73    74    2
