@<TRIPOS>MOLECULE
tmp/6h2cB01.pdb
 69 65 0 0 0
SMALL
GASTEIGER

@<TRIPOS>ATOM
      1  N          1.9270  -27.2860  -28.1480 N.3   107  ASN107     -0.1240
      2  CA         3.1010  -27.1070  -27.2540 C.3   107  ASN107      0.1653
      3  C          4.3600  -27.7800  -27.8190 C.2   107  ASN107      0.2266
      4  O          5.4460  -27.2330  -27.7530 O.2   107  ASN107     -0.2867
      5  CB         2.8120  -27.6390  -25.8510 C.3   107  ASN107      0.1155
      6  CG         1.8730  -26.7490  -25.0490 C.2   107  ASN107      0.2627
      7  OD1        1.4890  -25.6370  -25.4620 O.2   107  ASN107     -0.2716
      8  ND2        1.5220  -27.2200  -23.8770 N.am  107  ASN107     -0.0877
      9  N          5.5140  -25.6920  -30.6510 N.3   110  LEU110     -0.1231
     10  CA         6.2100  -24.5480  -30.0460 C.3   110  LEU110      0.1693
     11  C          7.6290  -24.8880  -29.6360 C.2   110  LEU110      0.2591
     12  O          8.5280  -24.0850  -29.8700 O.2   110  LEU110     -0.2718
     13  CB         5.4560  -23.9940  -28.8430 C.3   110  LEU110      0.0284
     14  CG         4.2210  -23.1050  -29.0850 C.3   110  LEU110      0.0019
     15  CD1        3.4690  -22.8560  -27.7670 C.3   110  LEU110      0.0001
     16  CD2        4.5400  -21.7970  -29.7990 C.3   110  LEU110      0.0001
     17  N          7.8240  -26.0820  -29.0660 N.am  111  ALA111     -0.1980
     18  CA         9.1740  -26.6020  -28.7190 C.3   111  ALA111      0.1597
     19  C         10.0780  -26.8600  -29.9320 C.2   111  ALA111      0.2287
     20  O         11.2780  -26.5120  -29.9470 O.2   111  ALA111     -0.2864
     21  CB         9.0540  -27.8790  -27.8680 C.3   111  ALA111      0.0319
     22  N         12.6340  -24.2700  -29.2530 N.3   115  GLY115     -0.1210
     23  CA        13.1710  -24.9680  -28.1130 C.3   115  GLY115      0.1940
     24  C         12.2430  -24.8540  -26.9150 C.2   115  GLY115      0.2454
     25  O         11.3020  -24.0540  -26.9320 O.2   115  GLY115     -0.2732
     26  N         12.5220  -25.6310  -25.8440 N.am  116  PRO116     -0.2717
     27  CA        11.7690  -25.4680  -24.5940 C.3   116  PRO116      0.1535
     28  C         12.0250  -24.0840  -24.0040 C.2   116  PRO116      0.2599
     29  O         13.1650  -23.6140  -23.9930 O.2   116  PRO116     -0.2715
     30  CB        12.3460  -26.5650  -23.6860 C.3   116  PRO116      0.0310
     31  CG        13.7260  -26.8240  -24.2100 C.3   116  PRO116      0.0237
     32  CD        13.6420  -26.5890  -25.7010 C.3   116  PRO116      0.0939
     33  N         10.9750  -23.4070  -23.5870 N.am  117  GLY117     -0.1955
     34  CA        11.1240  -22.0240  -23.1270 C.3   117  GLY117      0.1869
     35  C         11.3550  -20.9250  -24.1580 C.2   117  GLY117      0.2309
     36  O         11.2280  -19.7620  -23.8030 O.2   117  GLY117     -0.2863
     37  N          9.7680  -21.2180  -27.4680 N.3   119  GLY119     -0.1210
     38  CA         8.6170  -21.3790  -28.3960 C.3   119  GLY119      0.1956
     39  C          7.6630  -20.2220  -28.5650 C.2   119  GLY119      0.2612
     40  O          7.3730  -19.8220  -29.6920 O.2   119  GLY119     -0.2717
     41  N          7.1870  -19.6440  -27.4640 N.am  120  THR120     -0.1952
     42  CA         6.2250  -18.5650  -27.5640 C.3   120  THR120      0.1897
     43  C          6.8550  -17.3090  -28.1810 C.2   120  THR120      0.2313
     44  O          6.1750  -16.5870  -28.9260 O.2   120  THR120     -0.2863
     45  CB         5.6250  -18.1830  -26.1930 C.3   120  THR120      0.1794
     46  OG1        6.6840  -17.7440  -25.3110 O.3   120  THR120     -0.2208
     47  CG2        4.7940  -19.3400  -25.5920 C.3   120  THR120      0.0378
     48  N          2.6980  -15.5510  -25.1310 N.3   138  ASP138     -0.1225
     49  CA         3.5300  -15.4990  -23.9010 C.3   138  ASP138      0.1805
     50  C          3.4820  -16.7720  -23.0540 C.2   138  ASP138      0.2598
     51  O          4.3440  -16.9900  -22.2290 O.2   138  ASP138     -0.2718
     52  CB         3.1220  -14.3030  -23.0330 C.3   138  ASP138      0.1424
     53  CG         3.2040  -12.9800  -23.7590 C.2   138  ASP138      0.3668
     54  OD1        2.2620  -12.5800  -24.4350 O.co2 138  ASP138     -0.2456
     55  OD2        4.1880  -12.2700  -23.6110 O.co2 138  ASP138     -0.2456
     56  N          2.4620  -17.5950  -23.2440 N.am  139  ALA139     -0.1966
     57  CA         2.2770  -18.7990  -22.4600 C.3   139  ALA139      0.1728
     58  C          1.9520  -19.9510  -23.3910 C.2   139  ALA139      0.2616
     59  O          1.5480  -19.7710  -24.5400 O.2   139  ALA139     -0.2715
     60  CB         1.1390  -18.5730  -21.4670 C.3   139  ALA139      0.0334
     61  N          2.1550  -21.1410  -22.8760 N.am  140  GLU140     -0.1977
     62  CA         1.7820  -22.3470  -23.5600 C.3   140  GLU140      0.1602
     63  C          0.3710  -22.8060  -23.1640 C.2   140  GLU140      0.2287
     64  O         -0.3270  -22.1500  -22.3650 O.2   140  GLU140     -0.2864
     65  CB         2.8020  -23.4130  -23.2320 C.3   140  GLU140      0.0415
     66  CG         4.2040  -22.9640  -23.6060 C.3   140  GLU140      0.1163
     67  CD         5.2600  -24.0540  -23.4600 C.2   140  GLU140      0.3649
     68  OE1        6.3860  -23.7500  -23.0090 O.co2 140  GLU140     -0.2457
     69  OE2        4.9850  -25.2220  -23.7870 O.co2 140  GLU140     -0.2457
@<TRIPOS>BOND
     1     9    10    1
     2    10    11    1
     3    10    13    1
     4    20    19    2
     5    19    18    1
     6    12    11    2
     7    16    14    1
     8    40    39    2
     9    11    17   am
    10    22    23    1
    11    14    13    1
    12    14    15    1
    13    17    18    1
    14    44    43    2
    15    18    21    1
    16    39    38    1
    17    39    41   am
    18    38    37    1
    19    43    42    1
    20     1     2    1
    21    23    24    1
    22     3     4    2
    23     3     2    1
    24    42    41    1
    25    42    45    1
    26     2     5    1
    27    25    24    2
    28    24    26   am
    29    45    47    1
    30    45    46    1
    31     5     6    1
    32    26    32    1
    33    26    27    1
    34    32    31    1
    35     7     6    2
    36    48    49    1
    37     6     8   am
    38    27    28    1
    39    27    30    1
    40    59    58    2
    41    54    53   ar
    42    31    30    1
    43    35    36    2
    44    35    34    1
    45    28    29    2
    46    28    33   am
    47    49    50    1
    48    49    52    1
    49    69    67   ar
    50    53    55   ar
    51    53    52    1
    52    66    67    1
    53    66    65    1
    54    33    34    1
    55    62    65    1
    56    62    63    1
    57    62    61    1
    58    67    68   ar
    59    58    61   am
    60    58    57    1
    61    56    50   am
    62    56    57    1
    63    63    64    2
    64    50    51    2
    65    57    60    1
