@<TRIPOS>MOLECULE
tmp/6h2hA00.pdb
 120 112 0 0 0
SMALL
GASTEIGER

@<TRIPOS>ATOM
      1  N         -0.2050   -3.8180    5.2690 N.3    43  SER43      -0.1217
      2  CA         0.4520   -4.2870    4.0650 C.3    43  SER43       0.1889
      3  C          0.7170   -3.2660    3.0030 C.2    43  SER43       0.2288
      4  O          1.3300   -3.6310    2.0040 O.2    43  SER43      -0.2866
      5  CB        -0.3710   -5.3290    3.3540 C.3    43  SER43       0.2089
      6  OG        -0.5290   -6.5210    4.1590 O.3    43  SER43      -0.2183
      7  N          4.0870   -2.7280    1.0090 N.3    46  LYS46      -0.1245
      8  CA         4.6230   -3.7000    0.0620 C.3    46  LYS46       0.1561
      9  C          4.7310   -3.1410   -1.3550 C.2    46  LYS46       0.2260
     10  O          5.5660   -3.5880   -2.1330 O.2    46  LYS46      -0.2867
     11  CB         3.8590   -5.0130    0.1240 C.3    46  LYS46       0.0271
     12  CG         3.9040   -5.6380    1.5050 C.3    46  LYS46       0.0035
     13  CD         2.9590   -6.7870    1.7090 C.3    46  LYS46       0.0206
     14  CE         2.9420   -7.1820    3.1790 C.3    46  LYS46       0.1093
     15  NZ         2.0850   -8.3450    3.3890 N.3    46  LYS46      -0.1314
     16  N          3.5870  -15.3370    9.0370 N.3    75  SER75      -0.1202
     17  CA         2.4490  -14.4400    8.7390 C.3    75  SER75       0.2020
     18  C          1.6970  -15.0520    7.5910 C.2    75  SER75       0.2618
     19  O          2.1690  -16.0490    6.9910 O.2    75  SER75      -0.2717
     20  CB         2.9510  -13.0540    8.3500 C.3    75  SER75       0.2103
     21  OG         3.7030  -13.1450    7.1420 O.3    75  SER75      -0.2182
     22  N          0.5510  -14.4660    7.2760 N.am   76  ILE76      -0.1979
     23  CA        -0.3340  -14.9400    6.1880 C.3    76  ILE76       0.1595
     24  C          0.3900  -14.7740    4.8550 C.2    76  ILE76       0.2287
     25  O          0.7780  -13.6420    4.4410 O.2    76  ILE76      -0.2864
     26  CB        -1.6770  -14.1960    6.1620 C.3    76  ILE76       0.0276
     27  CG1       -2.4990  -14.5520    7.4090 C.3    76  ILE76       0.0022
     28  CG2       -2.4770  -14.5310    4.9120 C.3    76  ILE76       0.0022
     29  CD1       -3.4730  -13.4850    7.8560 C.3    76  ILE76       0.0001
     30  N         -0.2450  -16.5920    1.3350 N.3    78  PRO78      -0.2116
     31  CA        -0.9970  -17.5100    0.4600 C.3    78  PRO78       0.1372
     32  C         -0.1280  -18.0820   -0.6420 C.2    78  PRO78       0.2244
     33  O         -0.2830  -19.2320   -1.0170 O.2    78  PRO78      -0.2868
     34  CB        -2.1100  -16.6370   -0.1440 C.3    78  PRO78       0.0268
     35  CG        -2.0840  -15.3520    0.5890 C.3    78  PRO78       0.0207
     36  CD        -0.7110  -15.1970    1.2060 C.3    78  PRO78       0.0892
     37  N         -1.1900  -10.6290   -3.6270 N.3   100  TYR100     -0.1227
     38  CA        -1.7400  -11.4270   -2.5250 C.3   100  TYR100      0.1736
     39  C         -1.3880  -10.8950   -1.1550 C.2   100  TYR100      0.2596
     40  O         -1.6190  -11.5560   -0.1210 O.2   100  TYR100     -0.2718
     41  CB        -1.2440  -12.8340   -2.7110 C.3   100  TYR100      0.0548
     42  CG        -1.9240  -13.4740   -3.8980 C.ar  100  TYR100     -0.0200
     43  CD1       -3.1870  -14.0360   -3.7490 C.ar  100  TYR100     -0.0009
     44  CD2       -1.3340  -13.5270   -5.1440 C.ar  100  TYR100     -0.0009
     45  CE1       -3.8430  -14.6520   -4.8230 C.ar  100  TYR100      0.0417
     46  CE2       -1.9910  -14.1260   -6.2320 C.ar  100  TYR100      0.0417
     47  CZ        -3.2460  -14.6760   -6.0340 C.ar  100  TYR100      0.1957
     48  OH        -3.9450  -15.2710   -7.0120 O.3   100  TYR100     -0.2866
     49  N         -0.7990   -9.6920   -1.1400 N.am  101  SER101     -0.1952
     50  CA        -0.3150   -9.0900    0.0470 C.3   101  SER101      0.1924
     51  C          0.5120  -10.0660    0.9130 C.2   101  SER101      0.2314
     52  O          0.3800  -10.1020    2.1480 O.2   101  SER101     -0.2863
     53  CB        -1.5200   -8.6150    0.8080 C.3   101  SER101      0.2116
     54  OG        -1.1990   -7.5210    1.5350 O.3   101  SER101     -0.2180
     55  N          2.8830  -11.9700    3.1940 N.3   103  GLY103     -0.1225
     56  CA         3.7090  -11.5210    4.2750 C.3   103  GLY103      0.1811
     57  C          5.1210  -12.1090    4.2480 C.2   103  GLY103      0.2280
     58  O          6.1170  -11.3750    4.4050 O.2   103  GLY103     -0.2866
     59  N          6.1220   -8.2650    9.2230 N.3   141  GLU141     -0.1245
     60  CA         4.9530   -9.0440    9.5700 C.3   141  GLU141      0.1567
     61  C          5.3970  -10.3590   10.2440 C.2   141  GLU141      0.2260
     62  O          6.3620  -10.9440    9.8560 O.2   141  GLU141     -0.2867
     63  CB         4.0840   -9.3020    8.3720 C.3   141  GLU141      0.0388
     64  CG         3.1390   -8.1100    8.1920 C.3   141  GLU141      0.1160
     65  CD         2.6930   -7.8670    6.7640 C.2   141  GLU141      0.3649
     66  OE1        3.1730   -8.5910    5.8720 O.co2 141  GLU141     -0.2457
     67  OE2        1.8640   -6.9290    6.5530 O.co2 141  GLU141     -0.2457
     68  N          4.4520   -6.2500   13.1660 N.3   144  LEU144     -0.1231
     69  CA         3.9250   -4.9040   12.9430 C.3   144  LEU144      0.1693
     70  C          2.4200   -4.7250   13.1840 C.2   144  LEU144      0.2592
     71  O          1.9420   -3.5740   13.3030 O.2   144  LEU144     -0.2718
     72  CB         4.2810   -4.3810   11.5640 C.3   144  LEU144      0.0284
     73  CG         3.7380   -5.0260   10.2930 C.3   144  LEU144      0.0019
     74  CD1        2.3620   -4.5730    9.7950 C.3   144  LEU144      0.0001
     75  CD2        4.7890   -4.8200    9.2010 C.3   144  LEU144      0.0001
     76  N          1.6840   -5.8290   13.2820 N.am  145  ASN145     -0.1974
     77  CA         0.2440   -5.8270   13.6560 C.3   145  ASN145      0.1688
     78  C         -0.0360   -5.5500   15.1530 C.2   145  ASN145      0.2292
     79  O         -1.1140   -5.0990   15.5150 O.2   145  ASN145     -0.2864
     80  CB        -0.4110   -7.1510   13.2090 C.3   145  ASN145      0.1181
     81  CG        -0.2340   -7.4230   11.6960 C.2   145  ASN145      0.2629
     82  OD1       -0.2130   -8.5860   11.2240 O.2   145  ASN145     -0.2716
     83  ND2       -0.1070   -6.3760   10.9340 N.am  145  ASN145     -0.0877
     84  N         -6.9120   -8.2940   -3.9730 N.3   191  THR191     -0.1218
     85  CA        -7.3810   -8.0470   -2.6210 C.3   191  THR191      0.1862
     86  C         -8.1600   -6.7460   -2.4430 C.2   191  THR191      0.2287
     87  O         -8.6490   -6.4900   -1.3510 O.2   191  THR191     -0.2866
     88  CB        -6.1930   -8.0110   -1.6360 C.3   191  THR191      0.1770
     89  OG1       -5.3820   -6.8540   -1.9310 O.3   191  THR191     -0.2211
     90  CG2       -5.4020   -9.2700   -1.6910 C.3   191  THR191      0.0375
     91  N         -3.6580   -2.8830   -0.8800 N.3   210  THR210     -0.1203
     92  CA        -4.4190   -2.7780    0.3650 C.3   210  THR210      0.1994
     93  C         -3.5720   -3.0050    1.5990 C.2   210  THR210      0.2618
     94  O         -2.4360   -3.4540    1.5390 O.2   210  THR210     -0.2717
     95  CB        -5.5290   -3.8890    0.3810 C.3   210  THR210      0.1784
     96  OG1       -4.9170   -5.1670    0.2210 O.3   210  THR210     -0.2211
     97  CG2       -6.4960   -3.7050   -0.7870 C.3   210  THR210      0.0376
     98  N         -4.1860   -2.7690    2.7590 N.am  211  GLY211     -0.1942
     99  CA        -3.6600   -3.2610    4.0020 C.3   211  GLY211      0.2014
    100  C         -4.7940   -3.4470    4.9820 C.2   211  GLY211      0.2640
    101  O         -5.7890   -2.7460    4.9470 O.2   211  GLY211     -0.2714
    102  N         -4.6120   -4.3840    5.8890 N.am  212  THR212     -0.1936
    103  CA        -5.6030   -4.6710    6.9240 C.3   212  THR212      0.2028
    104  C         -4.8380   -5.0250    8.1970 C.2   212  THR212      0.2643
    105  O         -3.7850   -5.6160    8.1100 O.2   212  THR212     -0.2714
    106  CB        -6.4510   -5.8500    6.4480 C.3   212  THR212      0.1808
    107  OG1       -6.9860   -5.5660    5.1550 O.3   212  THR212     -0.2208
    108  CG2       -7.6360   -6.0900    7.3790 C.3   212  THR212      0.0379
    109  N         -5.3980   -4.7230    9.3730 N.am  213  GLY213     -0.1939
    110  CA        -4.7610   -5.1700   10.5800 C.3   213  GLY213      0.2014
    111  C         -5.6960   -5.1710   11.7550 C.2   213  GLY213      0.2638
    112  O         -6.9170   -5.0340   11.6590 O.2   213  GLY213     -0.2714
    113  N         -5.0830   -5.3190   12.9000 N.am  214  ASP214     -0.1971
    114  CA        -5.7510   -5.2560   14.1530 C.3   214  ASP214      0.1709
    115  C         -6.2230   -3.8600   14.4380 C.2   214  ASP214      0.2293
    116  O         -5.9580   -2.9150   13.6660 O.2   214  ASP214     -0.2864
    117  CB        -4.8000   -5.8580   15.2050 C.3   214  ASP214      0.1436
    118  CG        -4.5260   -7.3400   14.9150 C.2   214  ASP214      0.3671
    119  OD1       -5.5210   -8.0680   14.7790 O.co2 214  ASP214     -0.2456
    120  OD2       -3.3710   -7.7360   14.7300 O.co2 214  ASP214     -0.2456
@<TRIPOS>BOND
     1    48    47    1
     2    46    47   ar
     3    46    44   ar
     4    47    45   ar
     5    44    42   ar
     6    45    43   ar
     7    84    85    1
     8    42    43   ar
     9    42    41    1
    10    37    38    1
    11    41    38    1
    12    85    86    1
    13    85    88    1
    14    38    39    1
    15    86    87    2
    16    10     9    2
    17    89    88    1
    18    90    88    1
    19     9     8    1
    20    39    49   am
    21    39    40    2
    22    49    50    1
    23    33    32    2
    24    91    92    1
    25    97    95    1
    26    32    31    1
    27    34    31    1
    28    34    35    1
    29    50    53    1
    30    50    51    1
    31     8    11    1
    32     8     7    1
    33    11    12    1
    34    96    95    1
    35    92    95    1
    36    92    93    1
    37    31    30    1
    38    35    36    1
    39    53    54    1
    40    51    52    2
    41    36    30    1
    42    12    13    1
    43    94    93    2
    44    93    98   am
    45    13    14    1
    46     4     3    2
    47    98    99    1
    48     3     2    1
    49    14    15    1
    50    55    56    1
    51     5     2    1
    52     5     6    1
    53    99   100    1
    54     2     1    1
    55    57    56    1
    56    57    58    2
    57    25    24    2
    58    24    23    1
    59    28    26    1
    60   101   100    2
    61   100   102   am
    62   107   106    1
    63    66    65   ar
    64   102   103    1
    65    26    23    1
    66    26    27    1
    67    23    22    1
    68   106   103    1
    69   106   108    1
    70    67    65   ar
    71    65    64    1
    72   103   104    1
    73    19    18    2
    74    21    20    1
    75    22    18   am
    76    27    29    1
    77    18    17    1
    78   105   104    2
    79    64    63    1
    80   104   109   am
    81    20    17    1
    82    63    60    1
    83    17    16    1
    84    75    73    1
    85    59    60    1
    86   109   110    1
    87    60    61    1
    88    74    73    1
    89    62    61    2
    90    73    72    1
    91   110   111    1
    92    83    81   am
    93    82    81    2
    94    72    69    1
    95   112   111    2
    96    81    80    1
    97   111   113   am
    98   113   114    1
    99    69    68    1
   100    69    70    1
   101    70    76   am
   102    70    71    2
   103    80    77    1
   104    76    77    1
   105    77    78    1
   106   116   115    2
   107   114   115    1
   108   114   117    1
   109   120   118   ar
   110   119   118   ar
   111   118   117    1
   112    78    79    2
