@<TRIPOS>MOLECULE
tmp/6h2hA01.pdb
 73 68 0 0 0
SMALL
GASTEIGER

@<TRIPOS>ATOM
      1  N          0.1380   -4.0850   -9.3710 N.3   186  MET186     -0.1230
      2  CA        -0.9270   -3.3800   -8.6980 C.3   186  MET186      0.1702
      3  C         -2.2360   -3.4740   -9.4790 C.2   186  MET186      0.2592
      4  O         -3.3210   -3.5780   -8.8820 O.2   186  MET186     -0.2718
      5  CB        -0.5410   -1.9250   -8.4430 C.3   186  MET186      0.0401
      6  CG         0.5980   -1.7630   -7.4680 C.3   186  MET186      0.0596
      7  SD         0.9230   -0.0450   -7.0410 S.3   186  MET186     -0.1393
      8  CE        -0.5410    0.3600   -6.1070 C.3   186  MET186      0.0692
      9  N         -2.1610   -3.4640  -10.7960 N.am  187  ALA187     -0.1980
     10  CA        -3.3750   -3.6120  -11.6430 C.3   187  ALA187      0.1597
     11  C         -4.0200   -4.9730  -11.4650 C.2   187  ALA187      0.2287
     12  O         -5.2330   -5.1000  -11.5040 O.2   187  ALA187     -0.2864
     13  CB        -3.0350   -3.3330  -13.0990 C.3   187  ALA187      0.0319
     14  N         -3.9160   -6.7630   -8.7290 N.3   189  ASN189     -0.1240
     15  CA        -4.1150   -7.0630   -7.3250 C.3   189  ASN189      0.1653
     16  C         -5.4170   -7.8630   -7.1030 C.2   189  ASN189      0.2266
     17  O         -6.3830   -7.5700   -7.7660 O.2   189  ASN189     -0.2867
     18  CB        -4.1180   -5.7710   -6.5220 C.3   189  ASN189      0.1155
     19  CG        -4.3790   -6.0400   -5.0600 C.2   189  ASN189      0.2627
     20  OD1       -4.0180   -7.0780   -4.5580 O.2   189  ASN189     -0.2716
     21  ND2       -5.1360   -5.1520   -4.4050 N.am  189  ASN189     -0.0877
     22  N         -8.3040   -5.9340   -3.4860 N.3   192  GLY192     -0.1210
     23  CA        -8.8850   -4.5610   -3.3260 C.3   192  GLY192      0.1956
     24  C        -10.2500   -4.3500   -3.9770 C.2   192  GLY192      0.2611
     25  O        -10.6660   -3.2130   -4.1490 O.2   192  GLY192     -0.2717
     26  N        -10.9100   -5.4100   -4.4110 N.am  193  ALA193     -0.1979
     27  CA       -12.2340   -5.2820   -5.1240 C.3   193  ALA193      0.1597
     28  C        -13.3040   -4.4790   -4.3660 C.2   193  ALA193      0.2287
     29  O        -14.1420   -3.7820   -4.9830 O.2   193  ALA193     -0.2864
     30  CB       -12.8060   -6.6470   -5.4770 C.3   193  ALA193      0.0319
     31  N        -11.6260    0.5140   -5.5610 N.3   197  ARG197     -0.1245
     32  CA       -12.2920    0.0180   -6.8180 C.3   197  ARG197      0.1563
     33  C        -13.7990    0.1590   -6.7500 C.2   197  ARG197      0.2260
     34  O        -14.4610    0.4910   -7.7510 O.2   197  ARG197     -0.2867
     35  CB       -11.8980   -1.4350   -7.0160 C.3   197  ARG197      0.0307
     36  CG       -12.5250   -2.1800   -8.2020 C.3   197  ARG197      0.0489
     37  CD       -12.1040   -1.6280   -9.5660 C.3   197  ARG197      0.2205
     38  NE       -12.8980   -0.4600   -9.9250 N.pl3 197  ARG197     -0.0865
     39  CZ       -12.7920    0.2150  -11.0840 C.cat 197  ARG197      0.5346
     40  NH1      -11.9450   -0.2320  -11.9960 N.pl3 197  ARG197      0.1354
     41  NH2      -13.5180    1.2980  -11.3300 N.pl3 197  ARG197      0.1354
     42  N        -10.0860    3.1550  -14.6310 N.3   205  LYS205     -0.1227
     43  CA        -9.1090    2.1460  -14.3770 C.3   205  LYS205      0.1736
     44  C         -8.5510    2.3430  -12.9480 C.2   205  LYS205      0.2595
     45  O         -8.3060    3.5080  -12.5460 O.2   205  LYS205     -0.2718
     46  CB        -7.9680    2.2410  -15.3930 C.3   205  LYS205      0.0541
     47  CG        -8.2630    1.7710  -16.8580 C.2   205  LYS205     -0.0272
     48  CD        -9.3790    2.4860  -17.5460 C.2   205  LYS205     -0.0103
     49  CE        -9.8930    1.8440  -18.8450 C.3   205  LYS205      0.1350
     50  NZ       -11.1820    2.5050  -19.2250 N.3   205  LYS205     -0.1262
     51  N         -8.3040    1.2330  -12.2340 N.am  206  VAL206     -0.1966
     52  CA        -7.8210    1.2770  -10.8520 C.3   206  VAL206      0.1727
     53  C         -6.7020    0.3300  -10.6430 C.2   206  VAL206      0.2616
     54  O         -6.7930   -0.8710  -11.0430 O.2   206  VAL206     -0.2715
     55  CB        -8.9740    0.9220   -9.8480 C.3   206  VAL206      0.0290
     56  CG1       -8.4700    0.8910   -8.3990 C.3   206  VAL206      0.0023
     57  CG2      -10.0720    1.9650   -9.9730 C.3   206  VAL206      0.0023
     58  N         -5.6340    0.7910  -10.0170 N.am  207  ILE207     -0.1963
     59  CA        -4.6020   -0.1220   -9.5670 C.3   207  ILE207      0.1727
     60  C         -4.4810    0.1420   -8.0820 C.2   207  ILE207      0.2616
     61  O         -4.6810    1.2680   -7.6750 O.2   207  ILE207     -0.2715
     62  CB        -3.2620    0.0450  -10.3290 C.3   207  ILE207      0.0290
     63  CG1       -2.5220    1.3010   -9.9640 C.3   207  ILE207      0.0022
     64  CG2       -3.4790   -0.0540  -11.8520 C.3   207  ILE207      0.0023
     65  CD1       -1.1780    1.4010  -10.6480 C.3   207  ILE207      0.0001
     66  N         -4.1260   -0.8690   -7.2900 N.am  208  ASP208     -0.1971
     67  CA        -4.1240   -0.6340   -5.8210 C.3   208  ASP208      0.1709
     68  C         -3.3080   -1.6010   -5.0280 C.2   208  ASP208      0.2293
     69  O         -2.9120   -2.6720   -5.4930 O.2   208  ASP208     -0.2864
     70  CB        -5.5960   -0.5450   -5.2830 C.3   208  ASP208      0.1436
     71  CG        -6.1410   -1.8760   -4.9130 C.2   208  ASP208      0.3671
     72  OD1       -6.2280   -2.7320   -5.8140 O.co2 208  ASP208     -0.2456
     73  OD2       -6.4210   -2.1610   -3.7200 O.co2 208  ASP208     -0.2456
@<TRIPOS>BOND
     1    50    49    1
     2    49    48    1
     3    48    47    2
     4    47    46    1
     5    46    43    1
     6    42    43    1
     7    43    44    1
     8    13    10    1
     9    44    45    2
    10    44    51   am
    11    51    52    1
    12    40    39    1
    13    64    62    1
    14    10    11    1
    15    10     9    1
    16    12    11    2
    17    41    39    1
    18    39    38    2
    19    54    53    2
    20    52    53    1
    21    52    55    1
    22     9     3   am
    23    65    63    1
    24    53    58   am
    25    62    63    1
    26    62    59    1
    27    58    59    1
    28    57    55    1
    29    38    37    1
    30    55    56    1
    31    59    60    1
    32    37    36    1
    33     3     4    2
    34     3     2    1
    35     1     2    1
    36    14    15    1
    37     2     5    1
    38     5     6    1
    39    36    35    1
    40    60    61    2
    41    60    66   am
    42    17    16    2
    43    34    33    2
    44     6     7    1
    45    15    16    1
    46    15    18    1
    47    66    67    1
    48     7     8    1
    49    35    32    1
    50    32    33    1
    51    32    31    1
    52    18    19    1
    53    67    70    1
    54    67    68    1
    55    72    71   ar
    56    69    68    2
    57    30    27    1
    58    70    71    1
    59    27    26    1
    60    27    28    1
    61    19    20    2
    62    19    21   am
    63    29    28    2
    64    71    73   ar
    65    26    24   am
    66    25    24    2
    67    24    23    1
    68    22    23    1
