@<TRIPOS>MOLECULE
tmp/6h2iB00.pdb
 89 83 0 0 0
SMALL
GASTEIGER

@<TRIPOS>ATOM
      1  N          3.3910   11.2090  -11.0360 N.3    42  SER42      -0.1217
      2  CA         2.7420   12.2290  -11.8730 C.3    42  SER42       0.1889
      3  C          2.5030   11.7890  -13.3220 C.2    42  SER42       0.2288
      4  O          1.8400   12.5120  -14.0490 O.2    42  SER42      -0.2866
      5  CB         3.5210   13.5530  -11.8700 C.3    42  SER42       0.2089
      6  OG         3.9650   13.9520  -10.5640 O.3    42  SER42      -0.2183
      7  N         -0.8900   12.1430  -15.0900 N.3    45  LYS45      -0.1245
      8  CA        -1.3520   13.4620  -15.5730 C.3    45  LYS45       0.1561
      9  C         -1.4350   13.5840  -17.1020 C.2    45  LYS45       0.2260
     10  O         -2.1710   14.4490  -17.6060 O.2    45  LYS45      -0.2867
     11  CB        -0.5140   14.6320  -14.9750 C.3    45  LYS45       0.0271
     12  CG        -0.7410   14.8010  -13.4780 C.3    45  LYS45       0.0035
     13  CD         0.3210   15.6080  -12.7560 C.3    45  LYS45       0.0206
     14  CE         0.3950   15.2150  -11.2880 C.3    45  LYS45       0.1093
     15  NZ         1.1560   16.1610  -10.4200 N.3    45  LYS45      -0.1314
     16  N         -0.5510   20.0230   -2.0040 N.3    74  SER74      -0.1202
     17  CA         0.7310   19.5230   -2.5240 C.3    74  SER74       0.2020
     18  C          1.4800   20.6500   -3.2520 C.2    74  SER74       0.2618
     19  O          0.9340   21.7480   -3.4560 O.2    74  SER74      -0.2717
     20  CB         0.4950   18.3470   -3.4870 C.3    74  SER74       0.2103
     21  OG        -0.4460   18.6850   -4.5070 O.3    74  SER74      -0.2182
     22  N          2.7240   20.3790   -3.6450 N.am   75  ILE75      -0.1979
     23  CA         3.4970   21.3160   -4.4560 C.3    75  ILE75       0.1595
     24  C          2.7280   21.6780   -5.7440 C.2    75  ILE75       0.2287
     25  O          2.3940   20.8180   -6.5830 O.2    75  ILE75      -0.2864
     26  CB         4.9310   20.8160   -4.7640 C.3    75  ILE75       0.0276
     27  CG1        5.7790   20.8980   -3.4940 C.3    75  ILE75       0.0022
     28  CG2        5.5980   21.6710   -5.8470 C.3    75  ILE75       0.0022
     29  CD1        7.2180   20.4360   -3.6490 C.3    75  ILE75       0.0001
     30  N          4.0150   19.5810  -13.5110 N.3   100  SER100     -0.1217
     31  CA         3.6100   18.5150  -12.6000 C.3   100  SER100      0.1889
     32  C          2.8500   19.0950  -11.3700 C.2   100  SER100      0.2288
     33  O          3.0370   18.6340  -10.2400 O.2   100  SER100     -0.2866
     34  CB         4.8360   17.6690  -12.1970 C.3   100  SER100      0.2089
     35  OG         4.4620   16.3330  -11.9380 O.3   100  SER100     -0.2183
     36  N         -3.3620   13.6420   -5.3440 N.3   140  GLU140     -0.1231
     37  CA        -2.0980   14.2190   -4.8690 C.3   140  GLU140      0.1684
     38  C         -2.2430   14.7980   -3.4570 C.2   140  GLU140      0.2434
     39  O         -3.2600   15.4340   -3.1730 O.2   140  GLU140     -0.2733
     40  CB        -1.6570   15.3620   -5.7920 C.3   140  GLU140      0.0402
     41  CG        -1.1680   14.9250   -7.1700 C.3   140  GLU140      0.1161
     42  CD         0.3470   14.7540   -7.2500 C.2   140  GLU140      0.3649
     43  OE1        0.8110   14.2540   -8.3070 O.co2 140  GLU140     -0.2457
     44  OE2        1.0700   15.1250   -6.2960 O.co2 140  GLU140     -0.2457
     45  N         -1.2340   14.6450   -2.5840 N.am  141  PRO141     -0.2729
     46  CA         0.0400   13.9770   -2.8670 C.3   141  PRO141      0.1401
     47  C          0.0760   12.4870   -2.4850 C.2   141  PRO141      0.2269
     48  O          1.0910   11.8360   -2.7360 O.2   141  PRO141     -0.2865
     49  CB         1.0130   14.7600   -2.0020 C.3   141  PRO141      0.0296
     50  CG         0.2000   15.1030   -0.8200 C.3   141  PRO141      0.0237
     51  CD        -1.1570   15.4310   -1.3440 C.3   141  PRO141      0.0939
     52  N          1.5710    9.4450   -4.4590 N.3   144  ASN144     -0.1225
     53  CA         3.0090    9.3410   -4.5350 C.3   144  ASN144      0.1785
     54  C          3.6060    8.5500   -3.3560 C.2   144  ASN144      0.2597
     55  O          4.8190    8.3130   -3.3680 O.2   144  ASN144     -0.2718
     56  CB         3.6500   10.7440   -4.5750 C.3   144  ASN144      0.1169
     57  CG         2.9800   11.6840   -5.5940 C.2   144  ASN144      0.2627
     58  OD1        3.0220   11.4490   -6.8280 O.2   144  ASN144     -0.2716
     59  ND2        2.3540   12.7530   -5.0810 N.am  144  ASN144     -0.0877
     60  N          2.7810    8.1190   -2.3780 N.am  145  ARG145     -0.1979
     61  CA         3.2850    7.6750   -1.0660 C.3   145  ARG145      0.1597
     62  C          2.9000    6.2590   -0.5990 C.2   145  ARG145      0.2287
     63  O          3.0960    5.9290    0.5740 O.2   145  ARG145     -0.2864
     64  CB         2.8360    8.6840   -0.0200 C.3   145  ARG145      0.0334
     65  CG         3.3880   10.0770   -0.2670 C.3   145  ARG145      0.0492
     66  CD         2.8560   11.1200    0.7010 C.3   145  ARG145      0.2205
     67  NE         3.4020   12.4570    0.4170 N.pl3 145  ARG145     -0.0865
     68  CZ         2.8700   13.6100    0.8370 C.cat 145  ARG145      0.5346
     69  NH1        1.7630   13.6410    1.5950 N.pl3 145  ARG145      0.1354
     70  NH2        3.4750   14.7520    0.5130 N.pl3 145  ARG145      0.1354
     71  N          7.7610   11.2360  -10.0090 N.3   211  THR211     -0.1203
     72  CA         8.7390   11.1670   -8.9380 C.3   211  THR211      0.1994
     73  C          7.9540   10.9620   -7.6550 C.2   211  THR211      0.2618
     74  O          6.8000   11.3900   -7.5440 O.2   211  THR211     -0.2717
     75  CB         9.6110   12.4470   -8.8830 C.3   211  THR211      0.1784
     76  OG1       10.2460   12.6480  -10.1500 O.3   211  THR211     -0.2211
     77  CG2       10.6970   12.3550   -7.8050 C.3   211  THR211      0.0376
     78  N          8.5470   10.2880   -6.6870 N.am  212  GLY212     -0.1942
     79  CA         7.8260   10.0080   -5.4600 C.3   212  GLY212      0.2014
     80  C          8.6650    9.2860   -4.4430 C.2   212  GLY212      0.2638
     81  O          9.8830    9.1300   -4.6440 O.2   212  GLY212     -0.2714
     82  N          8.0190    8.8120   -3.3820 N.am  213  ASP213     -0.1971
     83  CA         8.7340    8.2220   -2.2730 C.3   213  ASP213      0.1709
     84  C          9.3620    6.8690   -2.6190 C.2   213  ASP213      0.2293
     85  O          9.1230    6.3170   -3.6720 O.2   213  ASP213     -0.2864
     86  CB         7.8270    8.1570   -1.0480 C.3   213  ASP213      0.1436
     87  CG         7.4980    9.5100   -0.5160 C.2   213  ASP213      0.3671
     88  OD1        8.0190    9.8200    0.5470 O.co2 213  ASP213     -0.2456
     89  OD2        6.7410   10.2730   -1.1520 O.co2 213  ASP213     -0.2456
@<TRIPOS>BOND
     1    10     9    2
     2     9     8    1
     3     8     7    1
     4     8    11    1
     5    11    12    1
     6     4     3    2
     7    30    31    1
     8    12    13    1
     9     3     2    1
    10    13    14    1
    11    31    34    1
    12    31    32    1
    13    34    35    1
    14     2     5    1
    15     2     1    1
    16     5     6    1
    17    32    33    2
    18    14    15    1
    19    76    75    1
    20    71    72    1
    21    72    75    1
    22    72    73    1
    23    75    77    1
    24    43    42   ar
    25    73    74    2
    26    73    78   am
    27    42    41    1
    28    42    44   ar
    29    41    40    1
    30    58    57    2
    31    78    79    1
    32    25    24    2
    33    28    26    1
    34    40    37    1
    35    24    23    1
    36    57    59   am
    37    57    56    1
    38    79    80    1
    39    36    37    1
    40    37    38    1
    41    26    23    1
    42    26    27    1
    43    81    80    2
    44    56    53    1
    45    53    52    1
    46    53    54    1
    47    21    20    1
    48    23    22    1
    49    80    82   am
    50    85    84    2
    51    29    27    1
    52    22    18   am
    53    20    17    1
    54    38    39    2
    55    38    45   am
    56    19    18    2
    57    82    83    1
    58    55    54    2
    59    54    60   am
    60    18    17    1
    61    46    45    1
    62    46    47    1
    63    46    49    1
    64    48    47    2
    65    84    83    1
    66    45    51    1
    67    17    16    1
    68    60    61    1
    69    83    86    1
    70    49    50    1
    71    51    50    1
    72    89    87   ar
    73    61    62    1
    74    61    64    1
    75    86    87    1
    76    62    63    2
    77    87    88   ar
    78    65    64    1
    79    65    66    1
    80    67    66    1
    81    67    68    2
    82    70    68    1
    83    68    69    1
