@<TRIPOS>MOLECULE
tmp/6h2jB00.pdb
 183 170 0 0 0
SMALL
GASTEIGER

@<TRIPOS>ATOM
      1  N         14.5180   -3.0000   39.8440 N.3   191  LYS191     -0.1245
      2  CA        14.4470   -3.9570   38.7520 C.3   191  LYS191      0.1561
      3  C         15.0670   -5.2870   39.1510 C.2   191  LYS191      0.2260
      4  O         15.2670   -6.1620   38.3060 O.2   191  LYS191     -0.2867
      5  CB        15.1610   -3.4070   37.5150 C.3   191  LYS191      0.0271
      6  CG        14.8060   -1.9780   37.1890 C.3   191  LYS191      0.0035
      7  CD        13.4120   -1.9140   36.6180 C.3   191  LYS191      0.0206
      8  CE        13.3460   -2.7220   35.3150 C.3   191  LYS191      0.1093
      9  NZ        12.2420   -2.3070   34.4130 N.3   191  LYS191     -0.1314
     10  N         11.1770   -9.7330   37.9250 N.3   196  PHE196     -0.1241
     11  CA        11.7930   -9.3780   36.6590 C.3   196  PHE196      0.1605
     12  C         12.6640  -10.4870   36.0800 C.2   196  PHE196      0.2264
     13  O         13.4480  -10.2370   35.1670 O.2   196  PHE196     -0.2867
     14  CB        12.5810   -8.0860   36.8140 C.3   196  PHE196      0.0534
     15  CG        11.7030   -6.9010   37.0620 C.ar  196  PHE196     -0.0203
     16  CD1       11.1080   -6.2310   36.0030 C.ar  196  PHE196     -0.0042
     17  CD2       11.4300   -6.4860   38.3590 C.ar  196  PHE196     -0.0042
     18  CE1       10.2820   -5.1580   36.2250 C.ar  196  PHE196     -0.0003
     19  CE2       10.6070   -5.4140   38.5940 C.ar  196  PHE196     -0.0003
     20  CZ        10.0310   -4.7380   37.5340 C.ar  196  PHE196     -0.0000
     21  N         17.9940   -3.6160   30.3300 N.3   240  LEU240     -0.1231
     22  CA        16.7700   -4.3900   30.1830 C.3   240  LEU240      0.1693
     23  C         17.0360   -5.4660   29.1440 C.2   240  LEU240      0.2591
     24  O         17.3950   -5.1500   28.0070 O.2   240  LEU240     -0.2718
     25  CB        15.5960   -3.5100   29.7520 C.3   240  LEU240      0.0284
     26  CG        15.2680   -2.2430   30.5440 C.3   240  LEU240      0.0019
     27  CD1       15.7560   -0.9660   29.8530 C.3   240  LEU240      0.0001
     28  CD2       13.7870   -2.1330   30.8300 C.3   240  LEU240      0.0001
     29  N         16.9020   -6.7270   29.5340 N.am  241  VAL241     -0.1980
     30  CA        16.9780   -7.8120   28.5660 C.3   241  VAL241      0.1595
     31  C         15.5620   -8.1220   28.1250 C.2   241  VAL241      0.2287
     32  O         14.6440   -8.2040   28.9460 O.2   241  VAL241     -0.2864
     33  CB        17.6730   -9.0510   29.1520 C.3   241  VAL241      0.0276
     34  CG1       17.7460  -10.1400   28.1020 C.3   241  VAL241      0.0022
     35  CG2       19.0930   -8.6950   29.6320 C.3   241  VAL241      0.0022
     36  N         12.1280   -9.7840   26.8240 N.3   242  ARG242     -0.1245
     37  CA        11.4410  -11.0530   26.9970 C.3   242  ARG242      0.1563
     38  C         11.1480  -11.6820   25.6300 C.2   242  ARG242      0.2260
     39  O         11.1650  -10.9930   24.6070 O.2   242  ARG242     -0.2867
     40  CB        10.1580  -10.8320   27.7770 C.3   242  ARG242      0.0307
     41  CG        10.4040  -10.2630   29.1350 C.3   242  ARG242      0.0489
     42  CD         9.2690   -9.3900   29.5630 C.3   242  ARG242      0.2205
     43  NE         9.5180   -8.6560   30.7960 N.pl3 242  ARG242     -0.0865
     44  CZ         8.6230   -7.8340   31.3370 C.cat 242  ARG242      0.5346
     45  NH1        7.4510   -7.6830   30.7350 N.pl3 242  ARG242      0.1354
     46  NH2        8.8900   -7.1670   32.4520 N.pl3 242  ARG242      0.1354
     47  N          8.7370  -10.0130   23.1500 N.3   245  GLN245     -0.1245
     48  CA         9.2630   -8.7590   22.6360 C.3   245  GLN245      0.1566
     49  C         10.2500   -9.0150   21.5090 C.2   245  GLN245      0.2260
     50  O         10.2160   -8.3420   20.4730 O.2   245  GLN245     -0.2867
     51  CB         9.8990   -7.9720   23.7800 C.3   245  GLN245      0.0367
     52  CG         8.9180   -7.7670   24.9270 C.3   245  GLN245      0.0905
     53  CD         9.5290   -7.1070   26.1490 C.2   245  GLN245      0.2608
     54  OE1       10.7270   -7.2190   26.4050 O.2   245  GLN245     -0.2717
     55  NE2        8.7010   -6.4140   26.9120 N.am  245  GLN245     -0.0878
     56  N         -1.6760   -4.3290   27.0580 N.3   278  THR278     -0.1203
     57  CA        -1.3980   -3.1290   27.8360 C.3   278  THR278      0.1994
     58  C         -0.4030   -3.3970   28.9640 C.2   278  THR278      0.2618
     59  O         -0.6200   -4.2680   29.8100 O.2   278  THR278     -0.2717
     60  CB        -2.7100   -2.5920   28.4090 C.3   278  THR278      0.1784
     61  OG1       -3.7570   -2.7540   27.4440 O.3   278  THR278     -0.2211
     62  CG2       -2.5730   -1.1470   28.7200 C.3   278  THR278      0.0376
     63  N          0.6940   -2.6410   28.9660 N.am  279  GLY279     -0.1942
     64  CA         1.6940   -2.7190   30.0080 C.3   279  GLY279      0.2014
     65  C          2.7690   -3.7480   29.7770 C.2   279  GLY279      0.2640
     66  O          3.6650   -3.8910   30.6200 O.2   279  GLY279     -0.2714
     67  N          2.7250   -4.4490   28.6540 N.am  280  SER280     -0.1935
     68  CA         3.6350   -5.5490   28.4160 C.3   280  SER280      0.2055
     69  C          4.9590   -5.0910   27.8500 C.2   280  SER280      0.2644
     70  O          5.8170   -5.9280   27.5930 O.2   280  SER280     -0.2714
     71  CB         2.9820   -6.5850   27.4810 C.3   280  SER280      0.2130
     72  OG         2.7790   -6.0740   26.1690 O.3   280  SER280     -0.2179
     73  N          5.1620   -3.8030   27.6650 N.am  281  GLY281     -0.1939
     74  CA         6.4050   -3.3020   27.1320 C.3   281  GLY281      0.2014
     75  C          6.3800   -2.8460   25.6790 C.2   281  GLY281      0.2639
     76  O          7.4370   -2.8850   25.0320 O.2   281  GLY281     -0.2714
     77  N          5.2170   -2.4080   25.1610 N.am  282  LYS282     -0.1963
     78  CA         5.0990   -1.9910   23.7630 C.3   282  LYS282      0.1728
     79  C          6.0200   -0.8170   23.4640 C.2   282  LYS282      0.2617
     80  O          6.6920   -0.7860   22.4270 O.2   282  LYS282     -0.2715
     81  CB         3.6500   -1.6090   23.4560 C.3   282  LYS282      0.0311
     82  CG         2.6040   -2.7110   23.6800 C.3   282  LYS282      0.0038
     83  CD         1.1640   -2.2160   23.4500 C.3   282  LYS282      0.0206
     84  CE         0.6240   -1.3840   24.6490 C.3   282  LYS282      0.1093
     85  NZ         0.8310    0.0530   24.3600 N.3   282  LYS282     -0.1314
     86  N          6.0660    0.1570   24.3700 N.am  283  THR283     -0.1937
     87  CA         6.9200    1.3210   24.1690 C.3   283  THR283      0.2028
     88  C          8.4050    0.9380   24.1980 C.2   283  THR283      0.2642
     89  O          9.2090    1.4630   23.4230 O.2   283  THR283     -0.2714
     90  CB         6.5610    2.3700   25.2310 C.3   283  THR283      0.1808
     91  OG1        5.1570    2.6650   25.1500 O.3   283  THR283     -0.2208
     92  CG2        7.3500    3.6320   25.0540 C.3   283  THR283      0.0379
     93  N          8.7900    0.0220   25.0790 N.am  284  LEU284     -0.1977
     94  CA        10.1510   -0.5000   25.0490 C.3   284  LEU284      0.1596
     95  C         10.4150   -1.2380   23.7400 C.2   284  LEU284      0.2287
     96  O         11.4440   -1.0340   23.0860 O.2   284  LEU284     -0.2864
     97  CB        10.3630   -1.4250   26.2540 C.3   284  LEU284      0.0297
     98  CG        11.7260   -2.0250   26.6040 C.3   284  LEU284      0.0022
     99  CD1       11.9930   -3.2750   25.7990 C.3   284  LEU284      0.0001
    100  CD2       12.8220   -1.0250   26.3660 C.3   284  LEU284      0.0001
    101  N          0.7140    9.9450   25.5280 N.3   310  ASP310     -0.1239
    102  CA         1.3990    8.8490   26.2020 C.3   310  ASP310      0.1674
    103  C          2.7830    9.2210   26.7190 C.2   310  ASP310      0.2266
    104  O          3.4660    8.3590   27.2840 O.2   310  ASP310     -0.2867
    105  CB         1.5150    7.6390   25.2730 C.3   310  ASP310      0.1410
    106  CG         0.1920    6.9230   25.0910 C.2   310  ASP310      0.3668
    107  OD1       -0.7330    7.2200   25.8680 O.co2 310  ASP310     -0.2456
    108  OD2        0.0650    6.0810   24.1730 O.co2 310  ASP310     -0.2456
    109  N          0.9370    2.5350   19.7130 N.3   376  GLU376     -0.1245
    110  CA        -0.3560    2.8000   20.3580 C.3   376  GLU376      0.1567
    111  C         -0.8820    4.2110   20.0810 C.2   376  GLU376      0.2260
    112  O         -1.1100    5.0090   20.9920 O.2   376  GLU376     -0.2867
    113  CB        -0.2490    2.5660   21.8700 C.3   376  GLU376      0.0388
    114  CG        -1.5750    2.3910   22.5680 C.3   376  GLU376      0.1160
    115  CD        -2.1560    1.0560   22.2570 C.2   376  GLU376      0.3649
    116  OE1       -2.9570    0.9690   21.3010 O.co2 376  GLU376     -0.2457
    117  OE2       -1.7810    0.0870   22.9480 O.co2 376  GLU376     -0.2457
    118  N          6.0440    9.3470   39.5570 N.3   604  LYS604     -0.1245
    119  CA         6.7050    8.0530   39.4780 C.3   604  LYS604      0.1561
    120  C          7.5560    7.7720   40.7160 C.2   604  LYS604      0.2260
    121  O          7.6130    6.6260   41.1760 O.2   604  LYS604     -0.2867
    122  CB         7.5400    7.9580   38.2090 C.3   604  LYS604      0.0271
    123  CG         8.3280    6.6660   38.1320 C.3   604  LYS604      0.0035
    124  CD         9.2120    6.6090   36.9050 C.3   604  LYS604      0.0206
    125  CE        10.2080    5.4570   36.9990 C.3   604  LYS604      0.1093
    126  NZ         9.9840    4.5120   35.8780 N.3   604  LYS604     -0.1314
    127  N         -2.9780    6.6650   29.7720 N.3   618  THR618     -0.1203
    128  CA        -2.8720    5.7410   28.6490 C.3   618  THR618      0.1994
    129  C         -1.4660    5.2120   28.3890 C.2   618  THR618      0.2618
    130  O         -1.3300    4.1060   27.8460 O.2   618  THR618     -0.2717
    131  CB        -3.3980    6.4140   27.3740 C.3   618  THR618      0.1784
    132  OG1       -2.8940    7.7440   27.3040 O.3   618  THR618     -0.2211
    133  CG2       -4.8970    6.5220   27.4140 C.3   618  THR618      0.0376
    134  N         -0.4170    5.9510   28.7570 N.am  619  GLY619     -0.1956
    135  CA         0.9280    5.4620   28.5130 C.3   619  GLY619      0.1869
    136  C          1.8640    5.6000   29.6970 C.2   619  GLY619      0.2309
    137  O          3.0050    5.1310   29.6600 O.2   619  GLY619     -0.2863
    138  N          3.9820    5.2830   32.9060 N.3   621  ASP621     -0.1239
    139  CA         4.6240    4.1070   33.4820 C.3   621  ASP621      0.1674
    140  C          5.0770    4.4250   34.9000 C.2   621  ASP621      0.2266
    141  O          5.9410    5.2870   35.1040 O.2   621  ASP621     -0.2867
    142  CB         5.8110    3.6700   32.6300 C.3   621  ASP621      0.1410
    143  CG         6.5440    2.4990   33.2310 C.2   621  ASP621      0.3668
    144  OD1        5.9450    1.4120   33.3390 O.co2 621  ASP621     -0.2456
    145  OD2        7.7240    2.6560   33.5910 O.co2 621  ASP621     -0.2456
    146  N          5.7390    1.9890   38.1580 N.3   623  PRO623     -0.2116
    147  CA         5.6670    0.7070   38.8840 C.3   623  PRO623      0.1372
    148  C          5.1960    0.8150   40.3330 C.2   623  PRO623      0.2244
    149  O          4.4800   -0.0720   40.7970 O.2   623  PRO623     -0.2868
    150  CB         7.1050    0.1830   38.7770 C.3   623  PRO623      0.0268
    151  CG         7.5720    0.7350   37.4230 C.3   623  PRO623      0.0207
    152  CD         6.9730    2.1140   37.3580 C.3   623  PRO623      0.0892
    153  N         -6.7970    0.8110   29.2040 N.3   640  GLN640     -0.1245
    154  CA        -5.6050    1.6410   29.3210 C.3   640  GLN640      0.1566
    155  C         -5.5470    2.3580   30.6620 C.2   640  GLN640      0.2260
    156  O         -4.4810    2.4310   31.2760 O.2   640  GLN640     -0.2867
    157  CB        -5.5460    2.6380   28.1700 C.3   640  GLN640      0.0367
    158  CG        -5.3060    1.9740   26.8090 C.3   640  GLN640      0.0905
    159  CD        -5.7940    2.8160   25.6260 C.2   640  GLN640      0.2608
    160  OE1       -6.3550    3.9050   25.8020 O.2   640  GLN640     -0.2717
    161  NE2       -5.5840    2.3060   24.4100 N.am  640  GLN640     -0.0878
    162  N         -2.8050    1.6570   34.4040 N.3   644  ARG644     -0.1245
    163  CA        -1.8260    2.4870   35.0990 C.3   644  ARG644      0.1563
    164  C         -1.2830    1.7950   36.3510 C.2   644  ARG644      0.2260
    165  O         -0.1370    2.0540   36.7520 O.2   644  ARG644     -0.2867
    166  CB        -2.4430    3.8400   35.4590 C.3   644  ARG644      0.0307
    167  CG        -2.3060    4.9300   34.3820 C.3   644  ARG644      0.0489
    168  CD        -2.4900    4.4010   32.9730 C.3   644  ARG644      0.2205
    169  NE        -1.2210    4.1490   32.3140 N.pl3 644  ARG644     -0.0865
    170  CZ        -1.0180    3.2660   31.3430 C.cat 644  ARG644      0.5346
    171  NH1       -1.9970    2.5100   30.8730 N.pl3 644  ARG644      0.1354
    172  NH2        0.1980    3.1420   30.8410 N.pl3 644  ARG644      0.1354
    173  N          1.7120   -2.5600   36.6520 N.3   647  ARG647     -0.1245
    174  CA         3.1380   -2.8580   36.5460 C.3   647  ARG647      0.1563
    175  C          3.5930   -3.7770   37.6710 C.2   647  ARG647      0.2260
    176  O          3.2490   -3.5600   38.8440 O.2   647  ARG647     -0.2867
    177  CB         3.9630   -1.5780   36.5780 C.3   647  ARG647      0.0307
    178  CG         4.1970   -0.9580   35.2180 C.3   647  ARG647      0.0489
    179  CD         2.9650   -0.2460   34.6530 C.3   647  ARG647      0.2205
    180  NE         3.3140    0.3930   33.3890 N.pl3 647  ARG647     -0.0865
    181  CZ         2.4960    0.5470   32.3550 C.cat 647  ARG647      0.5346
    182  NH1        1.2460    0.1270   32.4290 N.pl3 647  ARG647      0.1354
    183  NH2        2.9260    1.1390   31.2500 N.pl3 647  ARG647      0.1354
@<TRIPOS>BOND
     1   109   110    1
     2   111   110    1
     3   111   112    2
     4   110   113    1
     5    50    49    2
     6   116   115   ar
     7    49    48    1
     8   113   114    1
     9   115   114    1
    10   115   117   ar
    11    80    79    2
    12    48    47    1
    13    48    51    1
    14    96    95    2
    15    89    88    2
    16    83    82    1
    17    83    84    1
    18    81    82    1
    19    81    78    1
    20    79    78    1
    21    79    86   am
    22    95    94    1
    23    78    77    1
    24    51    52    1
    25    87    88    1
    26    87    86    1
    27    87    90    1
    28   108   106   ar
    29    88    93   am
    30    85    84    1
    31   161   159   am
    32    39    38    2
    33    52    53    1
    34    76    75    2
    35    94    93    1
    36    94    97    1
    37    92    90    1
    38   106   105    1
    39   106   107   ar
    40    91    90    1
    41    77    75   am
    42   105   102    1
    43   101   102    1
    44   159   160    2
    45   159   158    1
    46    38    37    1
    47    75    74    1
    48    99    98    1
    49    53    54    2
    50    53    55   am
    51    72    71    1
    52   102   103    1
    53    97    98    1
    54   100    98    1
    55   103   104    2
    56   158   157    1
    57    36    37    1
    58    37    40    1
    59    56    57    1
    60    74    73    1
    61   132   131    1
    62   131   133    1
    63   131   128    1
    64    61    60    1
    65    71    68    1
    66    70    69    2
    67    73    69   am
    68    40    41    1
    69    57    60    1
    70    57    58    1
    71   130   129    2
    72    69    68    1
    73    24    23    2
    74    34    33    1
    75    31    30    1
    76    31    32    2
    77   157   154    1
    78   129   128    1
    79   129   134   am
    80    60    62    1
    81    68    67    1
    82   135   134    1
    83   135   136    1
    84    30    33    1
    85    30    29    1
    86   128   127    1
    87    67    65   am
    88    58    63   am
    89    58    59    2
    90    63    64    1
    91    41    42    1
    92    23    29   am
    93    23    22    1
    94    33    35    1
    95   153   154    1
    96   154   155    1
    97    42    43    1
    98   137   136    2
    99    25    22    1
   100    25    26    1
   101    65    64    1
   102    65    66    2
   103    27    26    1
   104    22    21    1
   105    26    28    1
   106   155   156    2
   107    45    44    1
   108    43    44    2
   109   172   170    1
   110   171   170    1
   111   183   181    1
   112    44    46    1
   113   170   169    2
   114   169   168    1
   115   181   182    1
   116   181   180    2
   117   142   143    1
   118   142   139    1
   119   138   139    1
   120   168   167    1
   121   143   144   ar
   122   143   145   ar
   123   180   179    1
   124   139   140    1
   125   167   166    1
   126   162   163    1
   127     9     8    1
   128   179   178    1
   129   140   141    2
   130   163   166    1
   131   163   164    1
   132    13    12    2
   133   178   177    1
   134     8     7    1
   135   126   125    1
   136    16    18   ar
   137    16    15   ar
   138    12    11    1
   139    18    20   ar
   140   164   165    2
   141   174   177    1
   142   174   173    1
   143   174   175    1
   144     7     6    1
   145    11    14    1
   146    11    10    1
   147    14    15    1
   148   124   125    1
   149   124   123    1
   150    15    17   ar
   151     6     5    1
   152   152   151    1
   153   152   146    1
   154   151   150    1
   155     5     2    1
   156    20    19   ar
   157   175   176    2
   158   123   122    1
   159   146   147    1
   160   122   119    1
   161     4     3    2
   162    17    19   ar
   163     2     3    1
   164     2     1    1
   165   150   147    1
   166   147   148    1
   167   119   118    1
   168   119   120    1
   169   148   149    2
   170   120   121    2
