@<TRIPOS>MOLECULE
tmp/6h2kA00.pdb
 99 93 0 0 0
SMALL
GASTEIGER

@<TRIPOS>ATOM
      1  N          0.6730   -1.4260    7.7400 N.3    41  CYS41      -0.1221
      2  CA         0.3250   -2.8160    7.4920 C.3    41  CYS41       0.1808
      3  C          0.9880   -3.1910    6.1600 C.2    41  CYS41       0.2601
      4  O          2.1140   -2.7400    5.9020 O.2    41  CYS41      -0.2717
      5  CB        -1.2360   -2.9820    7.5010 C.3    41  CYS41       0.0970
      6  SG        -1.9410   -2.4630    9.0950 S.3    41  CYS41      -0.0800
      7  N          0.3010   -3.9590    5.2940 N.am   42  SER42      -0.1952
      8  CA         0.9550   -4.4650    4.1060 C.3    42  SER42       0.1924
      9  C          1.1540   -3.4420    3.0000 C.2    42  SER42       0.2314
     10  O          1.7530   -3.7750    1.9990 O.2    42  SER42      -0.2863
     11  CB         0.2250   -5.6670    3.5180 C.3    42  SER42       0.2116
     12  OG         0.2070   -6.7550    4.4630 O.3    42  SER42      -0.2180
     13  N          4.5480   -3.0130    1.1960 N.3    45  LYS45      -0.1245
     14  CA         5.0140   -3.9680    0.2300 C.3    45  LYS45       0.1561
     15  C          5.1880   -3.3680   -1.1900 C.2    45  LYS45       0.2260
     16  O          6.0530   -3.8090   -1.9120 O.2    45  LYS45      -0.2867
     17  CB         4.1370   -5.2040    0.2370 C.3    45  LYS45       0.0271
     18  CG         4.2790   -5.9490    1.5330 C.3    45  LYS45       0.0035
     19  CD         3.4110   -7.1740    1.6440 C.3    45  LYS45       0.0206
     20  CE         3.2840   -7.5520    3.1060 C.3    45  LYS45       0.1093
     21  NZ         2.4260   -8.7050    3.2790 N.3    45  LYS45      -0.1314
     22  N          3.9070  -15.9080    9.2680 N.3    74  SER74      -0.1202
     23  CA         2.8290  -14.9970    8.9160 C.3    74  SER74       0.2020
     24  C          2.0980  -15.6950    7.7960 C.2    74  SER74       0.2618
     25  O          2.5800  -16.6960    7.1940 O.2    74  SER74      -0.2717
     26  CB         3.3840  -13.6250    8.4680 C.3    74  SER74       0.2103
     27  OG         4.4040  -13.6960    7.4590 O.3    74  SER74      -0.2182
     28  N          0.9180  -15.1650    7.5350 N.am   75  ILE75      -0.1979
     29  CA         0.0770  -15.6360    6.4600 C.3    75  ILE75       0.1595
     30  C          0.7530  -15.3980    5.1160 C.2    75  ILE75       0.2287
     31  O          1.0690  -14.2530    4.7140 O.2    75  ILE75      -0.2864
     32  CB        -1.3190  -14.9980    6.5020 C.3    75  ILE75       0.0276
     33  CG1       -2.0280  -15.4530    7.7780 C.3    75  ILE75       0.0022
     34  CG2       -2.1180  -15.3960    5.2800 C.3    75  ILE75       0.0022
     35  CD1       -2.0530  -16.9620    7.9710 C.3    75  ILE75       0.0001
     36  N         -0.3890  -10.1500   -0.8360 N.3   100  SER100     -0.1217
     37  CA         0.0740   -9.5860    0.4460 C.3   100  SER100      0.1889
     38  C          0.7940  -10.6690    1.2950 C.2   100  SER100      0.2288
     39  O          0.6730  -10.6240    2.4560 O.2   100  SER100     -0.2866
     40  CB        -1.0710   -8.9110    1.1700 C.3   100  SER100      0.2089
     41  OG        -0.5930   -7.8600    1.8900 O.3   100  SER100     -0.2183
     42  N          7.1170   -8.7170    9.2120 N.3   140  GLU140     -0.1231
     43  CA         5.8360   -9.3930    9.2620 C.3   140  GLU140      0.1684
     44  C          5.9690  -10.5650   10.2280 C.2   140  GLU140      0.2434
     45  O          6.9540  -11.2640   10.1590 O.2   140  GLU140     -0.2733
     46  CB         5.5320   -9.9880    7.8830 C.3   140  GLU140      0.0402
     47  CG         4.9760   -9.0140    6.8400 C.3   140  GLU140      0.1161
     48  CD         3.4680   -8.9240    6.9260 C.2   140  GLU140      0.3649
     49  OE1        2.7740   -8.9900    5.8720 O.co2 140  GLU140     -0.2457
     50  OE2        2.9920   -8.8260    8.0790 O.co2 140  GLU140     -0.2457
     51  N          5.0020  -10.8290   11.1030 N.am  141  PRO141     -0.2729
     52  CA         3.7390  -10.1290   11.2180 C.3   141  PRO141      0.1401
     53  C          3.7830   -8.9800   12.2520 C.2   141  PRO141      0.2269
     54  O          2.7780   -8.2830   12.3610 O.2   141  PRO141     -0.2865
     55  CB         2.7800  -11.2590   11.7130 C.3   141  PRO141      0.0296
     56  CG         3.6590  -12.0840   12.5690 C.3   141  PRO141      0.0237
     57  CD         4.9730  -12.1210   11.8040 C.3   141  PRO141      0.0939
     58  N          2.2610   -5.2750   11.8910 N.3   144  ASN144     -0.1225
     59  CA         0.7940   -5.0910   11.8900 C.3   144  ASN144      0.1785
     60  C          0.1910   -4.9230   13.2900 C.2   144  ASN144      0.2597
     61  O         -1.0190   -4.5960   13.3780 O.2   144  ASN144     -0.2718
     62  CB         0.0630   -6.2710   11.1980 C.3   144  ASN144      0.1169
     63  CG         0.5440   -6.5440    9.7590 C.2   144  ASN144      0.2627
     64  OD1        0.7030   -5.6130    8.9070 O.2   144  ASN144     -0.2716
     65  ND2        0.7320   -7.8480    9.4420 N.am  144  ASN144     -0.0877
     66  N          0.9810   -5.1430   14.3430 N.am  145  ARG145     -0.1979
     67  CA         0.4670   -5.2850   15.6980 C.3   145  ARG145      0.1597
     68  C          0.8260   -4.1720   16.7200 C.2   145  ARG145      0.2287
     69  O          0.4850   -4.3290   17.8870 O.2   145  ARG145     -0.2864
     70  CB         0.9410   -6.6200   16.2440 C.3   145  ARG145      0.0334
     71  CG         0.6860   -7.7800   15.3380 C.3   145  ARG145      0.0492
     72  CD         1.2400   -9.0730   15.9520 C.3   145  ARG145      0.2205
     73  NE         0.7150  -10.1600   15.1280 N.pl3 145  ARG145     -0.0865
     74  CZ         1.0970  -11.4140   15.1120 C.cat 145  ARG145      0.5346
     75  NH1        1.9990  -11.8810   15.9370 N.pl3 145  ARG145      0.1354
     76  NH2        0.4960  -12.2250   14.2360 N.pl3 145  ARG145      0.1354
     77  N         -3.6640   -2.9820    2.9310 N.3   210  GLY210     -0.1210
     78  CA        -3.1410   -3.5550    4.1730 C.3   210  GLY210      0.1956
     79  C         -4.2390   -3.7450    5.1770 C.2   210  GLY210      0.2613
     80  O         -5.2490   -3.0690    5.1280 O.2   210  GLY210     -0.2717
     81  N         -4.0340   -4.6910    6.0670 N.am  211  THR211     -0.1938
     82  CA        -4.9890   -5.0450    7.1110 C.3   211  THR211      0.2028
     83  C         -4.1660   -5.3560    8.3810 C.2   211  THR211      0.2643
     84  O         -3.0680   -5.8280    8.3040 O.2   211  THR211     -0.2714
     85  CB        -5.8790   -6.2250    6.6650 C.3   211  THR211      0.1808
     86  OG1       -6.4600   -5.9400    5.3930 O.3   211  THR211     -0.2208
     87  CG2       -6.9980   -6.5140    7.6750 C.3   211  THR211      0.0379
     88  N         -4.6700   -5.0020    9.5470 N.am  212  GLY212     -0.1939
     89  CA        -3.9320   -5.3140   10.7550 C.3   212  GLY212      0.2014
     90  C         -4.8520   -5.3220   11.9490 C.2   212  GLY212      0.2638
     91  O         -6.0610   -5.0990   11.8300 O.2   212  GLY212     -0.2714
     92  N         -4.2390   -5.4610   13.1150 N.am  213  ASP213     -0.1971
     93  CA        -4.9720   -5.4550   14.3970 C.3   213  ASP213      0.1709
     94  C         -5.4900   -4.0650   14.6800 C.2   213  ASP213      0.2293
     95  O         -5.2500   -3.1440   13.8570 O.2   213  ASP213     -0.2864
     96  CB        -4.0410   -6.0130   15.4950 C.3   213  ASP213      0.1436
     97  CG        -3.6470   -7.4250   15.1870 C.2   213  ASP213      0.3671
     98  OD1       -4.5630   -8.1610   14.8490 O.co2 213  ASP213     -0.2456
     99  OD2       -2.4600   -7.8260   15.2150 O.co2 213  ASP213     -0.2456
@<TRIPOS>BOND
     1    16    15    2
     2    15    14    1
     3    36    37    1
     4    14    17    1
     5    14    13    1
     6    17    18    1
     7    37    40    1
     8    37    38    1
     9    40    41    1
    10    38    39    2
    11    18    19    1
    12    19    20    1
    13    10     9    2
    14    77    78    1
    15     9     8    1
    16    20    21    1
    17    11     8    1
    18    11    12    1
    19     8     7    1
    20    78    79    1
    21    31    30    2
    22    30    29    1
    23    80    79    2
    24    79    81   am
    25    34    32    1
    26     7     3   am
    27    86    85    1
    28    49    48   ar
    29     4     3    2
    30    81    82    1
    31     3     2    1
    32    29    32    1
    33    29    28    1
    34    32    33    1
    35    85    82    1
    36    85    87    1
    37    47    48    1
    38    47    46    1
    39    48    50   ar
    40    82    83    1
    41    25    24    2
    42    27    26    1
    43     2     5    1
    44     2     1    1
    45     5     6    1
    46    28    24   am
    47    33    35    1
    48    24    23    1
    49    46    43    1
    50    84    83    2
    51    83    88   am
    52    26    23    1
    53    64    63    2
    54    23    22    1
    55    42    43    1
    56    43    44    1
    57    65    63   am
    58    88    89    1
    59    63    62    1
    60    45    44    2
    61    44    51   am
    62    89    90    1
    63    51    52    1
    64    51    57    1
    65    62    59    1
    66    52    55    1
    67    52    53    1
    68    55    56    1
    69    57    56    1
    70    91    90    2
    71    59    58    1
    72    59    60    1
    73    90    92   am
    74    53    54    2
    75    92    93    1
    76    60    61    2
    77    60    66   am
    78    95    94    2
    79    76    74    1
    80    66    67    1
    81    93    94    1
    82    93    96    1
    83    98    97   ar
    84    74    73    2
    85    74    75    1
    86    73    72    1
    87    97    99   ar
    88    97    96    1
    89    71    72    1
    90    71    70    1
    91    67    70    1
    92    67    68    1
    93    68    69    2
