@<TRIPOS>MOLECULE
tmp/6h2qA00.pdb
 120 113 0 0 0
SMALL
GASTEIGER

@<TRIPOS>ATOM
      1  N         20.8400   33.0750   75.4210 N.3   236  TYR236     -0.1227
      2  CA        20.4160   33.3620   76.7860 C.3   236  TYR236      0.1736
      3  C         19.0470   32.7160   76.9810 C.2   236  TYR236      0.2596
      4  O         18.4000   32.3600   76.0110 O.2   236  TYR236     -0.2718
      5  CB        20.3250   34.8710   77.0470 C.3   236  TYR236      0.0548
      6  CG        19.5710   35.6000   75.9580 C.ar  236  TYR236     -0.0200
      7  CD1       20.2280   36.0430   74.8230 C.ar  236  TYR236     -0.0009
      8  CD2       18.1950   35.8200   76.0500 C.ar  236  TYR236     -0.0009
      9  CE1       19.5600   36.6930   73.8140 C.ar  236  TYR236      0.0417
     10  CE2       17.5090   36.4830   75.0370 C.ar  236  TYR236      0.0417
     11  CZ        18.1960   36.9100   73.9230 C.ar  236  TYR236      0.1957
     12  OH        17.5500   37.5530   72.9060 O.3   236  TYR236     -0.2866
     13  N         18.6040   32.5890   78.2200 N.am  237  THR237     -0.1953
     14  CA        17.2790   32.0210   78.4810 C.3   237  THR237      0.1897
     15  C         16.1820   32.9260   77.9030 C.2   237  THR237      0.2313
     16  O         16.1460   34.1240   78.1800 O.2   237  THR237     -0.2863
     17  CB        17.0350   31.8240   79.9810 C.3   237  THR237      0.1794
     18  OG1       18.0550   30.9800   80.5280 O.3   237  THR237     -0.2208
     19  CG2       15.6530   31.1970   80.2280 C.3   237  THR237      0.0378
     20  N         13.0990   35.1050   77.0980 N.3   239  ILE239     -0.1245
     21  CA        12.2300   35.9780   77.8710 C.3   239  ILE239      0.1561
     22  C         10.9100   36.1190   77.1060 C.2   239  ILE239      0.2260
     23  O         10.8580   36.7820   76.0850 O.2   239  ILE239     -0.2867
     24  CB        12.8850   37.3740   78.0880 C.3   239  ILE239      0.0252
     25  CG1       14.2610   37.2330   78.7650 C.3   239  ILE239      0.0019
     26  CG2       11.9850   38.2980   78.8820 C.3   239  ILE239      0.0019
     27  CD1       15.2120   38.3970   78.5010 C.3   239  ILE239      0.0001
     28  N         14.1940   40.5670   82.6920 N.3   250  HIS250     -0.1241
     29  CA        14.7690   39.2490   82.3910 C.3   250  HIS250      0.1621
     30  C         13.8490   38.1400   82.9050 C.2   250  HIS250      0.2264
     31  O         14.3000   37.1360   83.4500 O.2   250  HIS250     -0.2867
     32  CB        16.1730   39.1230   82.9850 C.3   250  HIS250      0.0745
     33  CG        17.1910   39.9950   82.3150 C.ar  250  HIS250      0.0817
     34  ND1       18.4390   40.2260   82.8520 N.ar  250  HIS250     -0.2268
     35  CD2       17.1490   40.6890   81.1520 C.ar  250  HIS250      0.1154
     36  CE1       19.1200   41.0260   82.0520 C.ar  250  HIS250      0.1986
     37  NE2       18.3630   41.3190   81.0120 N.ar  250  HIS250     -0.2212
     38  N         11.9280   38.4390   74.0820 N.3   271  ASP271     -0.1239
     39  CA        13.3520   38.7090   73.9350 C.3   271  ASP271      0.1674
     40  C         14.0490   37.3420   73.8410 C.2   271  ASP271      0.2266
     41  O         14.1330   36.6210   74.8150 O.2   271  ASP271     -0.2867
     42  CB        13.8430   39.5380   75.1180 C.3   271  ASP271      0.1410
     43  CG        15.2710   40.0090   74.9700 C.2   271  ASP271      0.3668
     44  OD1       16.0030   39.4710   74.1080 O.co2 271  ASP271     -0.2456
     45  OD2       15.6350   40.9200   75.7530 O.co2 271  ASP271     -0.2456
     46  N         20.5870   38.6290   69.6690 N.3   282  ASP282     -0.1239
     47  CA        19.8740   39.1800   70.8070 C.3   282  ASP282      0.1674
     48  C         18.7720   40.1240   70.3090 C.2   282  ASP282      0.2266
     49  O         19.0380   41.2730   70.0120 O.2   282  ASP282     -0.2867
     50  CB        20.8510   39.8910   71.7320 C.3   282  ASP282      0.1410
     51  CG        20.1970   40.4200   73.0030 C.2   282  ASP282      0.3668
     52  OD1       18.9970   40.1980   73.2150 O.co2 282  ASP282     -0.2456
     53  OD2       20.9110   41.0390   73.8030 O.co2 282  ASP282     -0.2456
     54  N         24.3150   47.1390   74.6110 N.3   365  HIS365     -0.1241
     55  CA        25.5770   46.5450   75.0430 C.3   365  HIS365      0.1621
     56  C         26.3210   45.8890   73.8860 C.2   365  HIS365      0.2264
     57  O         25.7270   45.5300   72.8740 O.2   365  HIS365     -0.2867
     58  CB        25.3040   45.5010   76.1220 C.3   365  HIS365      0.0745
     59  CG        24.3080   44.4650   75.6990 C.ar  365  HIS365      0.0817
     60  ND1       24.6310   43.3910   74.8950 N.ar  365  HIS365     -0.2268
     61  CD2       22.9810   44.3640   75.9450 C.ar  365  HIS365      0.1154
     62  CE1       23.5450   42.6710   74.6730 C.ar  365  HIS365      0.1986
     63  NE2       22.5320   43.2400   75.3000 N.ar  365  HIS365     -0.2212
     64  N         26.3610   37.2190   74.6950 N.3   371  VAL371     -0.1231
     65  CA        25.2940   38.1920   74.4750 C.3   371  VAL371      0.1692
     66  C         25.6880   39.5260   75.1170 C.2   371  VAL371      0.2592
     67  O         25.5460   40.5720   74.4920 O.2   371  VAL371     -0.2718
     68  CB        23.9200   37.6880   75.0070 C.3   371  VAL371      0.0266
     69  CG1       23.9970   37.2500   76.4530 C.3   371  VAL371      0.0020
     70  CG2       22.8530   38.7520   74.8030 C.3   371  VAL371      0.0020
     71  N         26.1930   39.4840   76.3460 N.am  372  HIS372     -0.1976
     72  CA        26.8410   40.6450   76.9590 C.3   372  HIS372      0.1656
     73  C         28.3530   40.5430   76.7560 C.2   372  HIS372      0.2291
     74  O         29.0770   40.0500   77.6240 O.2   372  HIS372     -0.2864
     75  CB        26.5100   40.7430   78.4390 C.3   372  HIS372      0.0771
     76  CG        25.0580   40.9760   78.7110 C.ar  372  HIS372      0.0820
     77  ND1       24.5050   40.8910   79.9710 N.ar  372  HIS372     -0.2267
     78  CD2       24.0450   41.3060   77.8790 C.ar  372  HIS372      0.1154
     79  CE1       23.2120   41.1550   79.9010 C.ar  372  HIS372      0.1986
     80  NE2       22.9070   41.4130   78.6420 N.ar  372  HIS372     -0.2212
     81  N         26.2320   48.9100   79.9680 N.3   393  ARG393     -0.1245
     82  CA        27.2870   47.9050   79.9760 C.3   393  ARG393      0.1563
     83  C         28.5520   48.3990   79.2570 C.2   393  ARG393      0.2260
     84  O         29.5590   47.6960   79.2120 O.2   393  ARG393     -0.2867
     85  CB        26.7650   46.6100   79.3560 C.3   393  ARG393      0.0307
     86  CG        25.5590   46.0910   80.1130 C.3   393  ARG393      0.0489
     87  CD        25.1920   44.6630   79.7580 C.3   393  ARG393      0.2205
     88  NE        23.9670   44.2740   80.4510 N.pl3 393  ARG393     -0.0865
     89  CZ        23.9190   43.8510   81.7100 C.cat 393  ARG393      0.5346
     90  NH1       25.0320   43.7240   82.4210 N.pl3 393  ARG393      0.1354
     91  NH2       22.7550   43.5350   82.2560 N.pl3 393  ARG393      0.1354
     92  N         18.3930   48.7610   72.3090 N.3   407  GLU407     -0.1245
     93  CA        17.2260   48.1730   72.9450 C.3   407  GLU407      0.1567
     94  C         16.5560   49.1160   73.9350 C.2   407  GLU407      0.2260
     95  O         16.4030   48.8030   75.1090 O.2   407  GLU407     -0.2867
     96  CB        17.6070   46.8550   73.6300 C.3   407  GLU407      0.0388
     97  CG        18.7250   46.9320   74.6460 C.3   407  GLU407      0.1160
     98  CD        19.0580   45.5550   75.2290 C.2   407  GLU407      0.3649
     99  OE1       18.1480   44.9000   75.7710 O.co2 407  GLU407     -0.2457
    100  OE2       20.2230   45.1410   75.1220 O.co2 407  GLU407     -0.2457
    101  N          9.7970   46.7410   74.6020 N.3   445  ARG445     -0.1245
    102  CA        11.2130   46.8550   74.2580 C.3   445  ARG445      0.1563
    103  C         11.4010   46.4520   72.8060 C.2   445  ARG445      0.2260
    104  O         10.8830   45.4340   72.3550 O.2   445  ARG445     -0.2867
    105  CB        12.0870   45.9990   75.1800 C.3   445  ARG445      0.0307
    106  CG        13.5480   45.9640   74.7600 C.3   445  ARG445      0.0489
    107  CD        14.4960   45.4690   75.8540 C.3   445  ARG445      0.2205
    108  NE        14.3930   44.0420   76.1800 N.pl3 445  ARG445     -0.0865
    109  CZ        13.8600   43.5380   77.2920 C.cat 445  ARG445      0.5346
    110  NH1       13.2920   44.3090   78.2120 N.pl3 445  ARG445      0.1354
    111  NH2       13.8770   42.2300   77.4830 N.pl3 445  ARG445      0.1354
    112  N         14.4350   45.7090   70.3380 N.3   447  GLU447     -0.1245
    113  CA        15.8710   45.4330   70.3830 C.3   447  GLU447      0.1567
    114  C         16.3920   44.9520   69.0270 C.2   447  GLU447      0.2260
    115  O         15.9620   43.9180   68.5070 O.2   447  GLU447     -0.2867
    116  CB        16.1900   44.4010   71.4760 C.3   447  GLU447      0.0388
    117  CG        17.6570   43.9560   71.4900 C.3   447  GLU447      0.1160
    118  CD        18.0460   43.1950   72.7440 C.2   447  GLU447      0.3649
    119  OE1       17.1750   42.5250   73.3400 O.co2 447  GLU447     -0.2457
    120  OE2       19.2300   43.2450   73.1070 O.co2 447  GLU447     -0.2457
@<TRIPOS>BOND
     1   115   114    2
     2   114   113    1
     3    46    47    1
     4    49    48    2
     5    48    47    1
     6   112   113    1
     7   113   116    1
     8    47    50    1
     9   116   117    1
    10   117   118    1
    11    50    51    1
    12    92    93    1
    13   104   103    2
    14   118   120   ar
    15   118   119   ar
    16   103   102    1
    17    57    56    2
    18    12    11    1
    19    93    96    1
    20    93    94    1
    21    51    52   ar
    22    51    53   ar
    23    96    97    1
    24     9    11   ar
    25     9     7   ar
    26    40    39    1
    27    40    41    2
    28    56    55    1
    29    11    10   ar
    30    94    95    2
    31    39    38    1
    32    39    42    1
    33    44    43   ar
    34   102   101    1
    35   102   105    1
    36    65    64    1
    37    65    68    1
    38    65    66    1
    39    67    66    2
    40    54    55    1
    41    97    98    1
    42    62    60   ar
    43    62    63   ar
    44   106   105    1
    45   106   107    1
    46    70    68    1
    47     7     6   ar
    48    60    59   ar
    49    43    42    1
    50    43    45   ar
    51    68    69    1
    52    10     8   ar
    53    55    58    1
    54    66    71   am
    55   100    98   ar
    56    98    99   ar
    57    63    61   ar
    58     1     2    1
    59    59    61   ar
    60    59    58    1
    61   107   108    1
    62     6     8   ar
    63     6     5    1
    64     4     3    2
    65    23    22    2
    66   108   109    2
    67    71    72    1
    68    73    72    1
    69    73    74    2
    70     2     3    1
    71     2     5    1
    72    72    75    1
    73     3    13   am
    74    20    21    1
    75    22    21    1
    76   109   111    1
    77   109   110    1
    78    21    24    1
    79    78    80   ar
    80    78    76   ar
    81    15    16    2
    82    15    14    1
    83    24    25    1
    84    24    26    1
    85    13    14    1
    86    75    76    1
    87    14    17    1
    88    27    25    1
    89    80    79   ar
    90    76    77   ar
    91    84    83    2
    92    83    82    1
    93    85    82    1
    94    85    86    1
    95    87    86    1
    96    87    88    1
    97    79    77   ar
    98    81    82    1
    99    17    19    1
   100    17    18    1
   101    88    89    2
   102    37    35   ar
   103    37    36   ar
   104    35    33   ar
   105    89    91    1
   106    89    90    1
   107    36    34   ar
   108    33    34   ar
   109    33    32    1
   110    29    28    1
   111    29    30    1
   112    29    32    1
   113    30    31    2
