@<TRIPOS>MOLECULE
tmp/6h2tA00.pdb
 127 119 0 0 0
SMALL
GASTEIGER

@<TRIPOS>ATOM
      1  N        -14.0630  -15.4850    5.1280 N.3   104  ALA104     -0.1245
      2  CA       -13.3120  -14.6890    6.0980 C.3   104  ALA104      0.1562
      3  C        -12.2210  -13.8730    5.4220 C.2   104  ALA104      0.2260
      4  O        -11.9620  -12.7270    5.8040 O.2   104  ALA104     -0.2867
      5  CB       -12.7050  -15.6060    7.1710 C.3   104  ALA104      0.0290
      6  N        -13.5090  -10.3840    3.7350 N.3   107  ARG107     -0.1245
      7  CA       -14.2770   -9.3810    4.4690 C.3   107  ARG107      0.1563
      8  C        -13.7420   -7.9700    4.2320 C.2   107  ARG107      0.2260
      9  O        -14.5090   -7.0450    3.9350 O.2   107  ARG107     -0.2867
     10  CB       -14.2680   -9.7090    5.9630 C.3   107  ARG107      0.0307
     11  CG       -15.0910  -10.9400    6.3170 C.3   107  ARG107      0.0489
     12  CD       -14.9370  -11.2370    7.8110 C.3   107  ARG107      0.2205
     13  NE       -13.5930  -11.7540    8.0890 N.pl3 107  ARG107     -0.0865
     14  CZ       -13.2260  -12.2560    9.2590 C.cat 107  ARG107      0.5346
     15  NH1      -14.0970  -12.2710   10.2720 N.pl3 107  ARG107      0.1354
     16  NH2      -11.9920  -12.7250    9.4180 N.pl3 107  ARG107      0.1354
     17  N        -19.8750  -10.9800   10.3330 N.3   121  LYS121     -0.1231
     18  CA       -19.3270  -12.3200   10.1320 C.3   121  LYS121      0.1693
     19  C        -18.1690  -12.4940   11.1140 C.2   121  LYS121      0.2592
     20  O        -16.9980  -12.4600   10.7170 O.2   121  LYS121     -0.2718
     21  CB       -18.8670  -12.5340    8.6880 C.3   121  LYS121      0.0285
     22  CG       -18.6560  -14.0030    8.3290 C.3   121  LYS121      0.0035
     23  CD       -17.6480  -14.1610    7.1930 C.3   121  LYS121      0.0206
     24  CE       -17.4690  -15.6260    6.8350 C.3   121  LYS121      0.1093
     25  NZ       -16.9210  -16.4240    7.9840 N.3   121  LYS121     -0.1314
     26  N        -18.5480  -12.6750   12.3850 N.am  122  THR122     -0.1953
     27  CA       -17.6620  -12.8510   13.5320 C.3   122  THR122      0.1897
     28  C        -16.3780  -12.0400   13.4100 C.2   122  THR122      0.2313
     29  O        -15.2880  -12.5670   13.6430 O.2   122  THR122     -0.2863
     30  CB       -17.3320  -14.3430   13.7440 C.3   122  THR122      0.1794
     31  OG1      -16.7160  -14.9060   12.5660 O.3   122  THR122     -0.2208
     32  CG2      -18.6020  -15.1290   14.0710 C.3   122  THR122      0.0378
     33  N        -13.4820   -9.9210   14.2230 N.3   124  SER124     -0.1217
     34  CA       -12.7030   -9.3370   15.3090 C.3   124  SER124      0.1889
     35  C        -12.1950   -7.9450   14.9480 C.2   124  SER124      0.2288
     36  O        -11.6600   -7.7190   13.8540 O.2   124  SER124     -0.2866
     37  CB       -11.5340  -10.2500   15.6630 C.3   124  SER124      0.2089
     38  OG       -12.0470  -11.4380   16.2440 O.3   124  SER124     -0.2183
     39  N         -6.7230   -4.1970   11.1690 N.3   129  ARG129     -0.1245
     40  CA        -7.9060   -4.0530   10.3260 C.3   129  ARG129      0.1563
     41  C         -8.4310   -2.6220   10.3170 C.2   129  ARG129      0.2260
     42  O         -8.9480   -2.1670    9.2940 O.2   129  ARG129     -0.2867
     43  CB        -8.9970   -5.0220   10.7750 C.3   129  ARG129      0.0307
     44  CG        -8.6450   -6.4490   10.4320 C.3   129  ARG129      0.0489
     45  CD        -9.5300   -7.4230   11.1560 C.3   129  ARG129      0.2205
     46  NE        -9.1460   -8.7850   10.8070 N.pl3 129  ARG129     -0.0865
     47  CZ        -9.8470   -9.8610   11.1510 C.cat 129  ARG129      0.5346
     48  NH1      -10.9660   -9.7410   11.8670 N.pl3 129  ARG129      0.1354
     49  NH2       -9.4100  -11.0650   10.7880 N.pl3 129  ARG129      0.1354
     50  N         -7.9230  -15.1150    8.9450 N.3   171  THR171     -0.1203
     51  CA        -8.4670  -14.9780   10.2850 C.3   171  THR171      0.1994
     52  C         -7.3860  -14.6180   11.2930 C.2   171  THR171      0.2619
     53  O         -6.1910  -14.8910   11.1020 O.2   171  THR171     -0.2717
     54  CB        -9.1600  -16.2770   10.7520 C.3   171  THR171      0.1784
     55  OG1       -8.2110  -17.3640   10.7300 O.3   171  THR171     -0.2211
     56  CG2      -10.3450  -16.6020    9.8550 C.3   171  THR171      0.0376
     57  N         -7.8350  -14.0000   12.3920 N.am  172  THR172     -0.1938
     58  CA        -6.9370  -13.8150   13.5270 C.3   172  THR172      0.2028
     59  C         -6.4980  -15.1560   14.0860 C.2   172  THR172      0.2642
     60  O         -5.4250  -15.2550   14.6860 O.2   172  THR172     -0.2714
     61  CB        -7.6220  -13.0140   14.6350 C.3   172  THR172      0.1808
     62  OG1       -8.7670  -13.7450   15.0950 O.3   172  THR172     -0.2208
     63  CG2       -8.0550  -11.6350   14.1190 C.3   172  THR172      0.0379
     64  N         -7.3290  -16.1880   13.9060 N.am  173  SER173     -0.1949
     65  CA        -7.0250  -17.5060   14.4450 C.3   173  SER173      0.1924
     66  C         -5.7170  -18.0270   13.8860 C.2   173  SER173      0.2314
     67  O         -4.9000  -18.5910   14.6200 O.2   173  SER173     -0.2863
     68  CB        -8.1610  -18.4770   14.1030 C.3   173  SER173      0.2116
     69  OG        -9.4170  -17.9000   14.4390 O.3   173  SER173     -0.2180
     70  N        -15.2690  -22.2900    8.3770 N.3   192  TRP192     -0.1241
     71  CA       -15.1200  -23.0920    9.5850 C.3   192  TRP192      0.1605
     72  C        -15.8130  -24.4400    9.4570 C.2   192  TRP192      0.2264
     73  O        -15.3400  -25.4310   10.0290 O.2   192  TRP192     -0.2867
     74  CB       -15.6040  -22.2750   10.7900 C.3   192  TRP192      0.0550
     75  CG       -14.6370  -21.1390   11.0190 C.ar  192  TRP192      0.0003
     76  CD1      -14.8510  -19.8140   10.7940 C.ar  192  TRP192      0.0946
     77  CD2      -13.2780  -21.2600   11.4480 C.ar  192  TRP192      0.0152
     78  NE1      -13.7090  -19.0930   11.0800 N.ar  192  TRP192     -0.2442
     79  CE2      -12.7320  -19.9580   11.4900 C.ar  192  TRP192      0.0810
     80  CE3      -12.4690  -22.3450   11.8190 C.ar  192  TRP192      0.0012
     81  CZ2      -11.4110  -19.7110   11.8800 C.ar  192  TRP192      0.0191
     82  CZ3      -11.1480  -22.0970   12.2010 C.ar  192  TRP192      0.0001
     83  CH2      -10.6360  -20.7940   12.2170 C.ar  192  TRP192      0.0015
     84  N        -10.0690  -21.6840   17.0590 N.3   209  THR209     -0.1203
     85  CA       -10.6560  -20.3920   16.7170 C.3   209  THR209      0.1994
     86  C        -11.5480  -19.9590   17.8740 C.2   209  THR209      0.2617
     87  O        -11.5350  -20.5670   18.9530 O.2   209  THR209     -0.2717
     88  CB       -11.4200  -20.4460   15.3830 C.3   209  THR209      0.1784
     89  OG1      -11.7730  -19.1130   14.9780 O.3   209  THR209     -0.2211
     90  CG2      -12.7010  -21.2980   15.4760 C.3   209  THR209      0.0376
     91  N        -12.3190  -18.8980   17.6350 N.am  210  ASP210     -0.1973
     92  CA       -13.2370  -18.3440   18.6270 C.3   210  ASP210      0.1709
     93  C        -14.0780  -19.4380   19.2710 C.2   210  ASP210      0.2293
     94  O        -14.6740  -20.2620   18.5680 O.2   210  ASP210     -0.2864
     95  CB       -14.1840  -17.3500   17.9520 C.3   210  ASP210      0.1436
     96  CG       -13.4670  -16.2780   17.1570 C.2   210  ASP210      0.3671
     97  OD1      -12.2220  -16.2190   17.1650 O.co2 210  ASP210     -0.2456
     98  OD2      -14.1880  -15.4910   16.5050 O.co2 210  ASP210     -0.2456
     99  N        -17.5110  -19.8880   17.7360 N.3   213  ILE213     -0.1245
    100  CA       -17.5690  -20.7160   16.5320 C.3   213  ILE213      0.1561
    101  C        -17.3570  -22.1880   16.8740 C.2   213  ILE213      0.2260
    102  O        -18.0500  -23.0680   16.3380 O.2   213  ILE213     -0.2867
    103  CB       -16.5330  -20.2130   15.5090 C.3   213  ILE213      0.0252
    104  CG1      -16.9220  -18.8130   15.0150 C.3   213  ILE213      0.0019
    105  CG2      -16.3480  -21.2230   14.3470 C.3   213  ILE213      0.0019
    106  CD1      -15.7960  -18.1040   14.2640 C.3   213  ILE213      0.0001
    107  N        -11.3160  -11.8560   21.1860 N.3   234  GLN234     -0.1245
    108  CA       -11.9250  -11.6380   19.8740 C.3   234  GLN234      0.1566
    109  C        -13.1670  -10.7750   20.0230 C.2   234  GLN234      0.2260
    110  O        -14.2910  -11.2930   20.1420 O.2   234  GLN234     -0.2867
    111  CB       -12.2810  -12.9640   19.2000 C.3   234  GLN234      0.0367
    112  CG       -11.1830  -14.0030   19.2320 C.3   234  GLN234      0.0905
    113  CD        -9.9980  -13.6650   18.3340 C.2   234  GLN234      0.2608
    114  OE1      -10.1340  -13.0120   17.2880 O.2   234  GLN234     -0.2717
    115  NE2       -8.8330  -14.1300   18.7290 N.am  234  GLN234     -0.0878
    116  N        -16.0630   -8.8040   18.5790 N.3   236  TYR236     -0.1241
    117  CA       -16.7220   -8.7290   17.2770 C.3   236  TYR236      0.1605
    118  C        -17.2610   -7.3330   17.0260 C.2   236  TYR236      0.2264
    119  O        -17.9510   -6.7610   17.8790 O.2   236  TYR236     -0.2867
    120  CB       -17.9000   -9.6940   17.1890 C.3   236  TYR236      0.0534
    121  CG       -17.5570  -11.1600   17.1790 C.ar  236  TYR236     -0.0201
    122  CD1      -16.2350  -11.6030   17.1930 C.ar  236  TYR236     -0.0009
    123  CD2      -18.5670  -12.1030   17.1560 C.ar  236  TYR236     -0.0009
    124  CE1      -15.9400  -12.9670   17.1930 C.ar  236  TYR236      0.0417
    125  CE2      -18.2820  -13.4540   17.1460 C.ar  236  TYR236      0.0417
    126  CZ       -16.9780  -13.8750   17.1620 C.ar  236  TYR236      0.1957
    127  OH       -16.7180  -15.2250   17.1440 O.3   236  TYR236     -0.2866
@<TRIPOS>BOND
     1     6     7    1
     2     9     8    2
     3     8     7    1
     4     7    10    1
     5     1     2    1
     6     3     4    2
     7     3     2    1
     8    10    11    1
     9     2     5    1
    10    11    12    1
    11    24    23    1
    12    24    25    1
    13    23    22    1
    14    12    13    1
    15    13    14    2
    16    22    21    1
    17    70    71    1
    18    21    18    1
    19    50    51    1
    20    14    16    1
    21    14    15    1
    22    42    41    2
    23    72    71    1
    24    72    73    2
    25    71    74    1
    26    56    54    1
    27    18    17    1
    28    18    19    1
    29    51    54    1
    30    51    52    1
    31    41    40    1
    32    40    43    1
    33    40    39    1
    34    44    43    1
    35    44    45    1
    36    20    19    2
    37    55    54    1
    38    49    47    1
    39    74    75    1
    40    76    75   ar
    41    76    78   ar
    42    46    47    2
    43    46    45    1
    44    75    77   ar
    45    78    79   ar
    46    53    52    2
    47    19    26   am
    48    47    48    1
    49    52    57   am
    50    77    79   ar
    51    77    80   ar
    52    79    81   ar
    53    80    82   ar
    54    81    83   ar
    55    82    83   ar
    56    26    27    1
    57    57    58    1
    58    31    30    1
    59    28    27    1
    60    28    29    2
    61    58    59    1
    62    58    61    1
    63    27    30    1
    64    30    32    1
    65    36    35    2
    66    66    65    1
    67    66    67    2
    68    64    59   am
    69    64    65    1
    70    59    60    2
    71    68    69    1
    72    68    65    1
    73    63    61    1
    74    33    34    1
    75   106   104    1
    76   105   103    1
    77    61    62    1
    78    35    34    1
    79    89    88    1
    80   104   103    1
    81    34    37    1
    82    88    90    1
    83    88    85    1
    84   103   100    1
    85    37    38    1
    86   102   101    2
    87    98    96   ar
    88   100   101    1
    89   100    99    1
    90    85    84    1
    91    85    86    1
    92   118   117    1
    93   118   119    2
    94   127   126    1
    95   125   123   ar
    96   125   126   ar
    97   123   121   ar
    98    96    97   ar
    99    96    95    1
   100   126   124   ar
   101   121   120    1
   102   121   122   ar
   103   120   117    1
   104   122   124   ar
   105   117   116    1
   106   114   113    2
   107    91    86   am
   108    91    92    1
   109    86    87    2
   110    95    92    1
   111   113   115   am
   112   113   112    1
   113    94    93    2
   114    92    93    1
   115   111   112    1
   116   111   108    1
   117   108   109    1
   118   108   107    1
   119   109   110    2
