@<TRIPOS>MOLECULE
tmp/6h33A00.pdb
 167 162 0 0 0
SMALL
GASTEIGER

@<TRIPOS>ATOM
      1  N          9.2420    5.2450    8.4480 N.3     4  HIS4       -0.1241
      2  CA         8.8650    4.1430    9.3370 C.3     4  HIS4        0.1621
      3  C          9.1170    2.8220    8.6010 C.2     4  HIS4        0.2264
      4  O          8.8720    2.7290    7.3990 O.2     4  HIS4       -0.2867
      5  CB         7.3770    4.2260    9.7010 C.3     4  HIS4        0.0745
      6  CG         7.0520    5.2580   10.7390 C.ar    4  HIS4        0.0817
      7  ND1        5.7890    5.3920   11.2790 N.ar    4  HIS4       -0.2268
      8  CD2        7.8200    6.1980   11.3410 C.ar    4  HIS4        0.1154
      9  CE1        5.7950    6.3690   12.1690 C.ar    4  HIS4        0.1986
     10  NE2        7.0140    6.8750   12.2260 N.ar    4  HIS4       -0.2212
     11  N         -8.3940    0.5270    5.7930 N.3    68  ASN68      -0.1240
     12  CA        -9.2660    1.4330    6.5220 C.3    68  ASN68       0.1653
     13  C        -10.4580    1.8820    5.7030 C.2    68  ASN68       0.2266
     14  O        -10.3080    2.2910    4.5510 O.2    68  ASN68      -0.2867
     15  CB        -8.5280    2.7170    6.9250 C.3    68  ASN68       0.1155
     16  CG        -7.4110    2.4730    7.9110 C.2    68  ASN68       0.2627
     17  OD1       -7.3480    1.4210    8.5370 O.2    68  ASN68      -0.2716
     18  ND2       -6.5260    3.4550    8.0640 N.am   68  ASN68      -0.0877
     19  N        -12.7320    6.2630   11.1710 N.3    93  GLN93      -0.1245
     20  CA       -12.4560    5.1040   10.3230 C.3    93  GLN93       0.1566
     21  C        -12.6100    3.8170   11.0780 C.2    93  GLN93       0.2260
     22  O        -12.6810    3.8210   12.3050 O.2    93  GLN93      -0.2867
     23  CB       -11.0060    5.1570    9.8040 C.3    93  GLN93       0.0367
     24  CG        -9.9560    5.2090   10.9400 C.3    93  GLN93       0.0905
     25  CD        -9.1730    3.9130   11.1020 C.2    93  GLN93       0.2608
     26  OE1       -9.7210    2.8140   10.9860 O.2    93  GLN93      -0.2717
     27  NE2       -7.8790    4.0450   11.3910 N.am   93  GLN93      -0.0878
     28  N        -11.2090   -0.4830   10.8280 N.3    95  HIS95      -0.1241
     29  CA       -10.3160   -1.4380   10.2010 C.3    95  HIS95       0.1621
     30  C        -10.3550   -2.6970   11.0380 C.2    95  HIS95       0.2264
     31  O        -10.9970   -2.7370   12.0940 O.2    95  HIS95      -0.2867
     32  CB        -8.8870   -0.9000   10.1680 C.3    95  HIS95       0.0745
     33  CG        -8.3350   -0.5980   11.5230 C.ar   95  HIS95       0.0817
     34  ND1       -8.5030    0.6030   12.1730 N.ar   95  HIS95      -0.2268
     35  CD2       -7.6690   -1.4000   12.3870 C.ar   95  HIS95       0.1154
     36  CE1       -7.9480    0.4880   13.3940 C.ar   95  HIS95       0.1986
     37  NE2       -7.4320   -0.7190   13.5650 N.ar   95  HIS95      -0.2212
     38  N         -7.9820   -6.4290   12.3230 N.3    97  HIS97      -0.1241
     39  CA        -6.7190   -7.1400   12.5300 C.3    97  HIS97       0.1621
     40  C         -7.1620   -8.6020   12.4180 C.2    97  HIS97       0.2264
     41  O         -8.2000   -8.9860   12.9860 O.2    97  HIS97      -0.2867
     42  CB        -6.1390   -6.8880   13.9140 C.3    97  HIS97       0.0745
     43  CG        -5.8190   -5.4540   14.1700 C.ar   97  HIS97       0.0817
     44  ND1       -4.5720   -4.8990   13.9690 N.ar   97  HIS97      -0.2268
     45  CD2       -6.6230   -4.4310   14.5540 C.ar   97  HIS97       0.1154
     46  CE1       -4.6540   -3.5880   14.2400 C.ar   97  HIS97       0.1986
     47  NE2       -5.8820   -3.2550   14.5910 N.ar   97  HIS97      -0.2212
     48  N        -11.9550   -2.6140   14.7250 N.3   120  HIS120     -0.1241
     49  CA       -11.7040   -1.4050   15.4960 C.3   120  HIS120      0.1621
     50  C        -12.3800   -0.2250   14.8430 C.2   120  HIS120      0.2264
     51  O        -12.0090    0.1470   13.7280 O.2   120  HIS120     -0.2867
     52  CB       -10.2000   -1.1280   15.5720 C.3   120  HIS120      0.0745
     53  CG        -9.4730   -2.0770   16.4710 C.ar  120  HIS120      0.0817
     54  ND1       -8.1040   -2.2340   16.4160 N.ar  120  HIS120     -0.2268
     55  CD2       -9.9810   -2.8910   17.4300 C.ar  120  HIS120      0.1154
     56  CE1       -7.8120   -3.1350   17.3350 C.ar  120  HIS120      0.1986
     57  NE2       -8.9110   -3.5630   17.9790 N.ar  120  HIS120     -0.2212
     58  N        -12.6800    3.4900   15.1320 N.3   122  VAL122     -0.1245
     59  CA       -11.8820    4.5650   15.7250 C.3   122  VAL122      0.1561
     60  C        -12.5920    5.9000   15.7550 C.2   122  VAL122      0.2260
     61  O        -13.0480    6.3830   14.7160 O.2   122  VAL122     -0.2867
     62  CB       -10.5550    4.6980   14.9320 C.3   122  VAL122      0.0252
     63  CG1       -9.6330    5.7210   15.5970 C.3   122  VAL122      0.0019
     64  CG2       -9.8780    3.3430   14.8260 C.3   122  VAL122      0.0019
     65  N         -8.2640   14.8380   14.6490 N.3   131  PHE131     -0.1227
     66  CA        -7.6300   13.5830   15.0160 C.3   131  PHE131      0.1736
     67  C         -6.1650   13.7270   15.4370 C.2   131  PHE131      0.2596
     68  O         -5.7400   13.1200   16.4270 O.2   131  PHE131     -0.2718
     69  CB        -7.7420   12.6040   13.8420 C.3   131  PHE131      0.0547
     70  CG        -7.1710   11.2580   14.1220 C.ar  131  PHE131     -0.0202
     71  CD1       -7.9240   10.2910   14.7870 C.ar  131  PHE131     -0.0042
     72  CD2       -5.8670   10.9530   13.7500 C.ar  131  PHE131     -0.0042
     73  CE1       -7.3800    9.0400   15.0760 C.ar  131  PHE131     -0.0003
     74  CE2       -5.3160    9.7030   14.0340 C.ar  131  PHE131     -0.0003
     75  CZ        -6.0770    8.7470   14.6990 C.ar  131  PHE131     -0.0000
     76  N         -5.4000   14.5130   14.6800 N.am  132  GLY132     -0.1957
     77  CA        -3.9860   14.7010   14.9780 C.3   132  GLY132      0.1869
     78  C         -3.7240   15.3070   16.3460 C.2   132  GLY132      0.2309
     79  O         -2.7500   14.9740   17.0120 O.2   132  GLY132     -0.2863
     80  N         -4.7950   12.5680   19.2450 N.3   135  VAL135     -0.1231
     81  CA        -3.8820   11.4820   19.6290 C.3   135  VAL135      0.1692
     82  C         -2.7730   11.9180   20.5800 C.2   135  VAL135      0.2591
     83  O         -2.0460   11.0780   21.0960 O.2   135  VAL135     -0.2718
     84  CB        -3.2320   10.7520   18.4110 C.3   135  VAL135      0.0266
     85  CG1       -4.3180   10.1350   17.5460 C.3   135  VAL135      0.0020
     86  CG2       -2.3630   11.7020   17.6060 C.3   135  VAL135      0.0020
     87  N         -2.6470   13.2260   20.8080 N.am  136  GLN136     -0.1979
     88  CA        -1.6320   13.7320   21.7320 C.3   136  GLN136      0.1601
     89  C         -2.2320   13.8580   23.1350 C.2   136  GLN136      0.2287
     90  O         -1.5610   14.3280   24.0680 O.2   136  GLN136     -0.2864
     91  CB        -1.1410   15.1190   21.2870 C.3   136  GLN136      0.0394
     92  CG        -0.6200   15.1580   19.8610 C.3   136  GLN136      0.0908
     93  CD        -0.1330   16.5400   19.4460 C.2   136  GLN136      0.2608
     94  OE1        0.0440   16.8090   18.2600 O.2   136  GLN136     -0.2717
     95  NE2        0.0900   17.4180   20.4220 N.am  136  GLN136     -0.0878
     96  N        -11.8250    3.7730   20.9650 N.3   143  VAL143     -0.1245
     97  CA       -11.8820    2.7500   19.9390 C.3   143  VAL143      0.1561
     98  C        -12.8180    1.6650   20.4320 C.2   143  VAL143      0.2260
     99  O        -12.6620    1.1440   21.5440 O.2   143  VAL143     -0.2867
    100  CB       -10.4990    2.1450   19.6290 C.3   143  VAL143      0.0252
    101  CG1      -10.6090    1.1500   18.4480 C.3   143  VAL143      0.0019
    102  CG2       -9.5380    3.2540   19.2330 C.3   143  VAL143      0.0019
    103  N         -2.8030    3.1250   21.1510 N.3   198  LEU198     -0.1231
    104  CA        -2.9510    2.6820   19.7750 C.3   198  LEU198      0.1693
    105  C         -2.1960    1.3480   19.7930 C.2   198  LEU198      0.2593
    106  O         -1.1780    1.2010   20.5050 O.2   198  LEU198     -0.2718
    107  CB        -2.2200    3.6280   18.8340 C.3   198  LEU198      0.0284
    108  CG        -2.7130    5.0640   18.7570 C.3   198  LEU198      0.0019
    109  CD1       -1.7710    5.8570   17.8300 C.3   198  LEU198      0.0001
    110  CD2       -4.1560    5.1020   18.2230 C.3   198  LEU198      0.0001
    111  N         -2.6570    0.3780   19.0140 N.am  199  THR199     -0.1939
    112  CA        -1.9720   -0.9190   19.0030 C.3   199  THR199      0.2028
    113  C         -0.9120   -1.0330   17.9170 C.2   199  THR199      0.2643
    114  O         -0.3190   -2.0950   17.7370 O.2   199  THR199     -0.2714
    115  CB        -2.9420   -2.0800   18.8290 C.3   199  THR199      0.1808
    116  OG1       -3.5400   -1.9990   17.5330 O.3   199  THR199     -0.2208
    117  CG2       -4.0100   -2.0490   19.9120 C.3   199  THR199      0.0379
    118  N         -0.6910    0.0430   17.1730 N.am  200  THR200     -0.1937
    119  CA         0.3720    0.0430   16.1700 C.3   200  THR200      0.2013
    120  C          1.1910    1.2910   16.4120 C.2   200  THR200      0.2484
    121  O          0.7220    2.2310   17.0430 O.2   200  THR200     -0.2729
    122  CB        -0.1230    0.1900   14.7050 C.3   200  THR200      0.1807
    123  OG1       -0.6070    1.5250   14.4910 O.3   200  THR200     -0.2208
    124  CG2       -1.2150   -0.8110   14.3790 C.3   200  THR200      0.0379
    125  N          2.4440    1.2980   15.9380 N.am  201  PRO201     -0.2715
    126  CA         3.2680    2.4970   16.1090 C.3   201  PRO201      0.1521
    127  C          2.4080    3.6640   15.5820 C.2   201  PRO201      0.2440
    128  O          1.6730    3.5130   14.5900 O.2   201  PRO201     -0.2731
    129  CB         4.4590    2.2020   15.1980 C.3   201  PRO201      0.0310
    130  CG         4.6580    0.7260   15.4210 C.3   201  PRO201      0.0237
    131  CD         3.2220    0.1960   15.3360 C.3   201  PRO201      0.0939
    132  N          2.5330    4.8540   16.1740 N.am  202  PRO202     -0.2727
    133  CA         3.4050    5.2400   17.2840 C.3   202  PRO202      0.1402
    134  C          3.0420    4.7980   18.7080 C.2   202  PRO202      0.2269
    135  O          3.6520    5.2640   19.6650 O.2   202  PRO202     -0.2865
    136  CB         3.4690    6.7530   17.1400 C.3   202  PRO202      0.0296
    137  CG         2.0880    7.0890   16.6790 C.3   202  PRO202      0.0237
    138  CD         1.7860    6.0180   15.6590 C.3   202  PRO202      0.0939
    139  N          0.8110    5.5610   20.7660 N.3   204  LEU204     -0.1245
    140  CA         0.4500    6.6490   21.6860 C.3   204  LEU204      0.1561
    141  C         -0.5990    6.2120   22.7120 C.2   204  LEU204      0.2260
    142  O         -1.5580    5.4960   22.3880 O.2   204  LEU204     -0.2867
    143  CB        -0.0420    7.8640   20.8840 C.3   204  LEU204      0.0270
    144  CG         1.0120    8.4010   19.8990 C.3   204  LEU204      0.0019
    145  CD1        0.3840    9.4430   18.9750 C.3   204  LEU204      0.0001
    146  CD2        2.1810    9.0000   20.6660 C.3   204  LEU204      0.0001
    147  N         -5.9100    6.2630   24.1000 N.3   207  VAL207     -0.1245
    148  CA        -7.1640    5.5650   23.8350 C.3   207  VAL207      0.1561
    149  C         -7.9630    5.0280   24.9990 C.2   207  VAL207      0.2260
    150  O         -7.4100    4.3810   25.8760 O.2   207  VAL207     -0.2867
    151  CB        -6.9030    4.3290   22.9170 C.3   207  VAL207      0.0252
    152  CG1       -8.2240    3.6130   22.5740 C.3   207  VAL207      0.0019
    153  CG2       -6.1980    4.7640   21.6300 C.3   207  VAL207      0.0019
    154  N        -10.3560    2.3080   25.5430 N.3   209  TRP209     -0.1241
    155  CA       -10.8010    1.1160   24.8510 C.3   209  TRP209      0.1605
    156  C        -12.1470    0.6520   25.3670 C.2   209  TRP209      0.2264
    157  O        -12.3640    0.5840   26.5750 O.2   209  TRP209     -0.2867
    158  CB        -9.7670   -0.0150   25.0220 C.3   209  TRP209      0.0550
    159  CG        -8.6560    0.0860   24.0450 C.ar  209  TRP209      0.0003
    160  CD1       -7.4370    0.6750   24.2340 C.ar  209  TRP209      0.0946
    161  CD2       -8.7050   -0.3100   22.6730 C.ar  209  TRP209      0.0152
    162  NE1       -6.7330    0.6800   23.0550 N.ar  209  TRP209     -0.2442
    163  CE2       -7.4860    0.0770   22.0810 C.ar  209  TRP209      0.0810
    164  CE3       -9.6690   -0.9550   21.8820 C.ar  209  TRP209      0.0012
    165  CZ2       -7.2040   -0.1570   20.7270 C.ar  209  TRP209      0.0191
    166  CZ3       -9.3860   -1.1900   20.5370 C.ar  209  TRP209      0.0001
    167  CH2       -8.1690   -0.7910   19.9790 C.ar  209  TRP209      0.0015
@<TRIPOS>BOND
     1    14    13    2
     2    13    12    1
     3    11    12    1
     4    12    15    1
     5    15    16    1
     6     4     3    2
     7    16    18   am
     8    16    17    2
     9     1     2    1
    10     3     2    1
    11     2     5    1
    12     5     6    1
    13    23    20    1
    14    23    24    1
    15    32    29    1
    16    32    33    1
    17    29    28    1
    18    29    30    1
    19    20    21    1
    20    20    19    1
    21     6     7   ar
    22     6     8   ar
    23    24    25    1
    24    26    25    2
    25    30    31    2
    26    21    22    2
    27    25    27   am
    28     7     9   ar
    29     8    10   ar
    30    33    34   ar
    31    33    35   ar
    32     9    10   ar
    33    34    36   ar
    34    38    39    1
    35    35    37   ar
    36    40    39    1
    37    40    41    2
    38    39    42    1
    39    36    37   ar
    40    51    50    2
    41    72    74   ar
    42    72    70   ar
    43    69    70    1
    44    69    66    1
    45    42    43    1
    46    44    43   ar
    47    44    46   ar
    48    74    75   ar
    49    70    71   ar
    50    43    45   ar
    51    46    47   ar
    52   124   122    1
    53   123   122    1
    54    45    47   ar
    55   128   127    2
    56    65    66    1
    57    76    77    1
    58    76    67   am
    59    75    73   ar
    60   122   119    1
    61    61    60    2
    62    48    49    1
    63    71    73   ar
    64    64    62    1
    65    50    49    1
    66    62    63    1
    67    62    59    1
    68    77    78    1
    69    66    67    1
    70    58    59    1
    71   129   130    1
    72   129   126    1
    73   131   130    1
    74   131   125    1
    75    67    68    2
    76    49    52    1
    77    52    53    1
    78   127   126    1
    79   127   132   am
    80   138   132    1
    81   138   137    1
    82    59    60    1
    83   125   126    1
    84   125   120   am
    85   119   120    1
    86   119   118    1
    87   132   133    1
    88    78    79    2
    89   120   121    2
    90    54    53   ar
    91    54    56   ar
    92    53    55   ar
    93   137   136    1
    94   136   133    1
    95   118   113   am
    96   133   134    1
    97    56    57   ar
    98    55    57   ar
    99   116   115    1
   100    85    84    1
   101    86    84    1
   102   114   113    2
   103   109   108    1
   104   113   112    1
   105   110   108    1
   106    94    93    2
   107    84    81    1
   108   101   100    1
   109   134   135    2
   110   108   107    1
   111   115   112    1
   112   115   117    1
   113   107   104    1
   114   145   144    1
   115   112   111    1
   116   111   105   am
   117   102   100    1
   118    80    81    1
   119    93    92    1
   120    93    95   am
   121    81    82    1
   122   100    97    1
   123   104   105    1
   124   104   103    1
   125   105   106    2
   126    92    91    1
   127   144   146    1
   128   144   143    1
   129    97    98    1
   130    97    96    1
   131   167   166   ar
   132   167   165   ar
   133    98    99    2
   134   166   164   ar
   135    82    87   am
   136    82    83    2
   137   165   163   ar
   138   139   140    1
   139    87    88    1
   140   143   140    1
   141    91    88    1
   142   153   151    1
   143   140   141    1
   144    88    89    1
   145   164   161   ar
   146   163   161   ar
   147   163   162   ar
   148   142   141    2
   149   152   151    1
   150   161   159   ar
   151   151   148    1
   152   162   160   ar
   153    89    90    2
   154   148   147    1
   155   148   149    1
   156   159   160   ar
   157   159   158    1
   158   155   158    1
   159   155   156    1
   160   155   154    1
   161   149   150    2
   162   156   157    2
