@<TRIPOS>MOLECULE
tmp/6h34A00.pdb
 165 164 0 0 0
SMALL
GASTEIGER

@<TRIPOS>ATOM
      1  N          9.0970    5.1410    8.5890 N.3     1  HIS1       -0.1241
      2  CA         8.7850    3.9510    9.4350 C.3     1  HIS1        0.1621
      3  C          9.0720    2.6730    8.6580 C.2     1  HIS1        0.2264
      4  O          8.8960    2.6270    7.4420 O.2     1  HIS1       -0.2867
      5  CB         7.3060    3.9650    9.8250 C.3     1  HIS1        0.0745
      6  CG         6.8370    5.2830   10.3500 C.ar    1  HIS1        0.0817
      7  ND1        7.4410    5.9150   11.4160 N.ar    1  HIS1       -0.2268
      8  CD2        5.8430    6.1050    9.9370 C.ar    1  HIS1        0.1154
      9  CE1        6.8410    7.0720   11.6350 C.ar    1  HIS1        0.1986
     10  NE2        5.8690    7.2110   10.7520 N.ar    1  HIS1       -0.2212
     11  N          8.2970   -0.3470   10.4680 N.3     3  TRP3       -0.1241
     12  CA         7.6570   -1.3400   11.3230 C.3     3  TRP3        0.1605
     13  C          6.6350   -2.1330   10.5300 C.2     3  TRP3        0.2264
     14  O          6.1170   -1.6660    9.5020 O.2     3  TRP3       -0.2867
     15  CB         6.9700   -0.6780   12.5230 C.3     3  TRP3        0.0550
     16  CG         5.7740    0.1510   12.1650 C.ar    3  TRP3        0.0003
     17  CD1        5.7580    1.4730   11.8250 C.ar    3  TRP3        0.0946
     18  CD2        4.4150   -0.2940   12.1140 C.ar    3  TRP3        0.0152
     19  NE1        4.4740    1.8800   11.5680 N.ar    3  TRP3       -0.2442
     20  CE2        3.6270    0.8150   11.7420 C.ar    3  TRP3        0.0810
     21  CE3        3.7870   -1.5240   12.3480 C.ar    3  TRP3        0.0012
     22  CZ2        2.2370    0.7330   11.6020 C.ar    3  TRP3        0.0191
     23  CZ3        2.3980   -1.6020   12.2060 C.ar    3  TRP3        0.0001
     24  CH2        1.6470   -0.4790   11.8400 C.ar    3  TRP3        0.0015
     25  N          9.8530    3.1600   18.9270 N.3    18  PHE18      -0.1241
     26  CA         8.7410    3.6950   19.7110 C.3    18  PHE18       0.1605
     27  C          8.8660    3.1690   21.1270 C.2    18  PHE18       0.2264
     28  O          8.2010    2.2060   21.5020 O.2    18  PHE18      -0.2867
     29  CB         7.4230    3.2280   19.0700 C.3    18  PHE18       0.0534
     30  CG         7.3030    3.6090   17.6190 C.ar   18  PHE18      -0.0203
     31  CD1        6.9500    4.8980   17.2490 C.ar   18  PHE18      -0.0042
     32  CD2        7.6260    2.6940   16.6190 C.ar   18  PHE18      -0.0042
     33  CE1        6.9310    5.2590   15.8950 C.ar   18  PHE18      -0.0003
     34  CE2        7.6090    3.0540   15.2690 C.ar   18  PHE18      -0.0003
     35  CZ         7.2620    4.3340   14.9140 C.ar   18  PHE18      -0.0000
     36  N         -8.3940    0.4520    5.8360 N.3    65  ASN65      -0.1240
     37  CA        -9.2220    1.3820    6.5820 C.3    65  ASN65       0.1653
     38  C        -10.4360    1.8220    5.7710 C.2    65  ASN65       0.2266
     39  O        -10.2960    2.2540    4.6150 O.2    65  ASN65      -0.2867
     40  CB        -8.4690    2.6830    6.9060 C.3    65  ASN65       0.1155
     41  CG        -7.3040    2.5100    7.8500 C.2    65  ASN65       0.2627
     42  OD1       -6.4600    3.4250    7.9760 O.2    65  ASN65      -0.2716
     43  ND2       -7.2350    1.3840    8.5280 N.am   65  ASN65      -0.0877
     44  N        -13.9930    8.1850   12.6780 N.3    89  ILE89      -0.1231
     45  CA       -13.1200    8.5830   11.5720 C.3    89  ILE89       0.1692
     46  C        -12.8120    7.4080   10.6500 C.2    89  ILE89       0.2591
     47  O        -12.7350    7.5770    9.4380 O.2    89  ILE89      -0.2718
     48  CB       -11.7980    9.2560   12.0750 C.3    89  ILE89       0.0266
     49  CG1      -10.8480    9.4840   10.9000 C.3    89  ILE89       0.0019
     50  CG2      -11.1110    8.4140   13.1170 C.3    89  ILE89       0.0020
     51  CD1       -9.6340   10.3220   11.2720 C.3    89  ILE89       0.0001
     52  N        -12.6780    6.2050   11.2010 N.am   90  GLN90      -0.1979
     53  CA       -12.3750    5.0490   10.3550 C.3    90  GLN90       0.1601
     54  C        -12.5640    3.7730   11.1240 C.2    90  GLN90       0.2287
     55  O        -12.6440    3.7990   12.3530 O.2    90  GLN90      -0.2864
     56  CB       -10.9040    5.0870    9.8630 C.3    90  GLN90       0.0394
     57  CG        -9.8440    5.1610   10.9900 C.3    90  GLN90       0.0908
     58  CD        -9.1020    3.8450   11.2150 C.2    90  GLN90       0.2608
     59  OE1       -9.6740    2.7700   11.0800 O.2    90  GLN90      -0.2717
     60  NE2       -7.8330    3.9340   11.5830 N.am   90  GLN90      -0.0878
     61  N        -11.2170   -0.5320   10.8960 N.3    92  HIS92      -0.1241
     62  CA       -10.3330   -1.4950   10.2680 C.3    92  HIS92       0.1621
     63  C        -10.3790   -2.7570   11.0880 C.2    92  HIS92       0.2264
     64  O        -11.0230   -2.7980   12.1350 O.2    92  HIS92      -0.2867
     65  CB        -8.8960   -0.9910   10.2410 C.3    92  HIS92       0.0745
     66  CG        -8.3560   -0.6800   11.6010 C.ar   92  HIS92       0.0817
     67  ND1       -8.5650    0.5120   12.2580 N.ar   92  HIS92      -0.2268
     68  CD2       -7.6800   -1.4700   12.4710 C.ar   92  HIS92       0.1154
     69  CE1       -8.0210    0.4080   13.4820 C.ar   92  HIS92       0.1986
     70  NE2       -7.4710   -0.7830   13.6490 N.ar   92  HIS92      -0.2212
     71  N         -8.0270   -6.4940   12.3880 N.3    94  HIS94      -0.1241
     72  CA        -6.7640   -7.2190   12.6070 C.3    94  HIS94       0.1621
     73  C         -7.2270   -8.6800   12.4950 C.2    94  HIS94       0.2264
     74  O         -8.2710   -9.0400   13.0460 O.2    94  HIS94      -0.2867
     75  CB        -6.1830   -6.9760   13.9960 C.3    94  HIS94       0.0745
     76  CG        -5.8690   -5.5430   14.2640 C.ar   94  HIS94       0.0817
     77  ND1       -4.6420   -4.9710   14.0030 N.ar   94  HIS94      -0.2268
     78  CD2       -6.6700   -4.5330   14.6920 C.ar   94  HIS94       0.1154
     79  CE1       -4.7260   -3.6550   14.2810 C.ar   94  HIS94       0.1986
     80  NE2       -5.9360   -3.3360   14.6960 N.ar   94  HIS94      -0.2212
     81  N        -12.0050   -2.6670   14.8040 N.3   117  HIS117     -0.1241
     82  CA       -11.7590   -1.4680   15.5860 C.3   117  HIS117      0.1621
     83  C        -12.4400   -0.2890   14.9140 C.2   117  HIS117      0.2264
     84  O        -12.0640    0.0690   13.7930 O.2   117  HIS117     -0.2867
     85  CB       -10.2470   -1.1990   15.6610 C.3   117  HIS117      0.0745
     86  CG        -9.5200   -2.1630   16.5500 C.ar  117  HIS117      0.0817
     87  ND1       -8.1520   -2.3430   16.4910 N.ar  117  HIS117     -0.2268
     88  CD2      -10.0350   -2.9700   17.5100 C.ar  117  HIS117      0.1154
     89  CE1       -7.8720   -3.2470   17.4140 C.ar  117  HIS117      0.1986
     90  NE2       -8.9730   -3.6560   18.0560 N.ar  117  HIS117     -0.2212
     91  N        -12.7240    3.4660   15.1840 N.3   119  VAL119     -0.1245
     92  CA       -11.9200    4.5270   15.8010 C.3   119  VAL119      0.1561
     93  C        -12.6280    5.8610   15.8280 C.2   119  VAL119      0.2260
     94  O        -13.0680    6.3350   14.7720 O.2   119  VAL119     -0.2867
     95  CB       -10.5980    4.6740   15.0040 C.3   119  VAL119      0.0252
     96  CG1       -9.6540    5.6680   15.6920 C.3   119  VAL119      0.0019
     97  CG2       -9.9370    3.2890   14.8420 C.3   119  VAL119      0.0019
     98  N         -8.2000   14.8960   14.7280 N.3   128  PHE128     -0.1241
     99  CA        -7.6030   13.6260   15.1030 C.3   128  PHE128      0.1605
    100  C         -6.1490   13.7330   15.5290 C.2   128  PHE128      0.2264
    101  O         -5.7410   13.0940   16.5080 O.2   128  PHE128     -0.2867
    102  CB        -7.7230   12.6520   13.9270 C.3   128  PHE128      0.0534
    103  CG        -7.1660   11.2860   14.2030 C.ar  128  PHE128     -0.0203
    104  CD1       -7.9250   10.3320   14.8640 C.ar  128  PHE128     -0.0042
    105  CD2       -5.8670   10.9610   13.8220 C.ar  128  PHE128     -0.0042
    106  CE1       -7.4080    9.0790   15.1380 C.ar  128  PHE128     -0.0003
    107  CE2       -5.3390    9.7070   14.0930 C.ar  128  PHE128     -0.0003
    108  CZ        -6.1160    8.7600   14.7540 C.ar  128  PHE128     -0.0000
    109  N        -11.8920    3.7390   21.0510 N.3   140  VAL140     -0.1245
    110  CA       -11.9570    2.7280   20.0150 C.3   140  VAL140      0.1561
    111  C        -12.9030    1.6410   20.5000 C.2   140  VAL140      0.2260
    112  O        -12.7740    1.1300   21.6280 O.2   140  VAL140     -0.2867
    113  CB       -10.5830    2.1050   19.6860 C.3   140  VAL140      0.0252
    114  CG1      -10.7370    1.1290   18.5240 C.3   140  VAL140      0.0019
    115  CG2       -9.5980    3.2040   19.2610 C.3   140  VAL140      0.0019
    116  N         -2.9250    3.0900   21.2310 N.3   195  LEU195     -0.1231
    117  CA        -3.0890    2.6410   19.8510 C.3   195  LEU195      0.1693
    118  C         -2.3290    1.3090   19.8680 C.2   195  LEU195      0.2593
    119  O         -1.3050    1.1600   20.5680 O.2   195  LEU195     -0.2718
    120  CB        -2.3560    3.5770   18.8920 C.3   195  LEU195      0.0284
    121  CG        -2.8160    5.0170   18.8540 C.3   195  LEU195      0.0019
    122  CD1       -1.9060    5.8300   17.9220 C.3   195  LEU195      0.0001
    123  CD2       -4.2610    5.0330   18.3360 C.3   195  LEU195      0.0001
    124  N         -2.7910    0.3420   19.0880 N.am  196  THR196     -0.1939
    125  CA        -2.0960   -0.9450   19.0600 C.3   196  THR196      0.2028
    126  C         -1.0400   -1.0560   17.9740 C.2   196  THR196      0.2643
    127  O         -0.4290   -2.1140   17.8150 O.2   196  THR196     -0.2714
    128  CB        -3.0600   -2.1100   18.9110 C.3   196  THR196      0.1808
    129  OG1       -3.6630   -2.0500   17.6110 O.3   196  THR196     -0.2208
    130  CG2       -4.1200   -2.0610   20.0160 C.3   196  THR196      0.0379
    131  N         -0.8510    0.0130   17.2020 N.am  197  THR197     -0.1937
    132  CA         0.2130    0.0320   16.1950 C.3   197  THR197      0.2013
    133  C          1.0140    1.2950   16.4580 C.2   197  THR197      0.2484
    134  O          0.5360    2.2170   17.1200 O.2   197  THR197     -0.2729
    135  CB        -0.2960    0.1830   14.7210 C.3   197  THR197      0.1807
    136  OG1       -0.8380    1.5050   14.5170 O.3   197  THR197     -0.2208
    137  CG2       -1.3340   -0.8540   14.3890 C.3   197  THR197      0.0379
    138  N          2.2630    1.3360   15.9660 N.am  198  PRO198     -0.2715
    139  CA         3.0480    2.5580   16.1610 C.3   198  PRO198      0.1521
    140  C          2.1460    3.7000   15.6410 C.2   198  PRO198      0.2440
    141  O          1.3830    3.5260   14.6760 O.2   198  PRO198     -0.2731
    142  CB         4.2510    2.3250   15.2440 C.3   198  PRO198      0.0310
    143  CG         4.4930    0.8420   15.4090 C.3   198  PRO198      0.0237
    144  CD         3.0700    0.2600   15.3600 C.3   198  PRO198      0.0939
    145  N          2.2530    4.8970   16.2120 N.am  199  PRO199     -0.2727
    146  CA         3.1370    5.3190   17.2940 C.3   199  PRO199      0.1402
    147  C          2.8290    4.8400   18.7230 C.2   199  PRO199      0.2269
    148  O          3.4770    5.2890   19.6640 O.2   199  PRO199     -0.2865
    149  CB         3.1130    6.8350   17.1570 C.3   199  PRO199      0.0296
    150  CG         1.7050    7.1110   16.7620 C.3   199  PRO199      0.0237
    151  CD         1.4120    6.0160   15.7370 C.3   199  PRO199      0.0939
    152  N        -10.4560    2.2780   25.6500 N.3   206  TRP206     -0.1241
    153  CA       -10.9130    1.0900   24.9480 C.3   206  TRP206      0.1605
    154  C        -12.2730    0.6220   25.4360 C.2   206  TRP206      0.2264
    155  O        -12.5130    0.5440   26.6350 O.2   206  TRP206     -0.2867
    156  CB        -9.8880   -0.0470   25.1140 C.3   206  TRP206      0.0550
    157  CG        -8.7830    0.0480   24.1290 C.ar  206  TRP206      0.0003
    158  CD1       -7.5590    0.6360   24.3110 C.ar  206  TRP206      0.0946
    159  CD2       -8.8340   -0.3590   22.7610 C.ar  206  TRP206      0.0152
    160  NE1       -6.8580    0.6270   23.1320 N.ar  206  TRP206     -0.2442
    161  CE2       -7.6160    0.0160   22.1670 C.ar  206  TRP206      0.0810
    162  CE3       -9.8030   -1.0060   21.9750 C.ar  206  TRP206      0.0012
    163  CZ2       -7.3350   -0.2330   20.8300 C.ar  206  TRP206      0.0191
    164  CZ3       -9.5230   -1.2580   20.6400 C.ar  206  TRP206      0.0001
    165  CH2       -8.3000   -0.8760   20.0820 C.ar  206  TRP206      0.0015
@<TRIPOS>BOND
     1    39    38    2
     2    38    37    1
     3    36    37    1
     4    37    40    1
     5    40    41    1
     6     4     3    2
     7    41    42    2
     8    41    43   am
     9     1     2    1
    10     3     2    1
    11     2     5    1
    12    47    46    2
    13    14    13    2
    14     5     6    1
    15    56    53    1
    16    56    57    1
    17     8     6   ar
    18     8    10   ar
    19    65    62    1
    20    65    66    1
    21    62    61    1
    22    62    63    1
    23     6     7   ar
    24    53    54    1
    25    53    52    1
    26    11    12    1
    27    13    12    1
    28    46    52   am
    29    46    45    1
    30    10     9   ar
    31    49    51    1
    32    49    48    1
    33    57    58    1
    34    59    58    2
    35    63    64    2
    36    54    55    2
    37    58    60   am
    38    12    15    1
    39     7     9   ar
    40    19    20   ar
    41    19    17   ar
    42    45    48    1
    43    45    44    1
    44    66    67   ar
    45    66    68   ar
    46    22    20   ar
    47    22    24   ar
    48    20    18   ar
    49    17    16   ar
    50    24    23   ar
    51    48    50    1
    52    18    16   ar
    53    18    21   ar
    54    16    15    1
    55    23    21   ar
    56    67    69   ar
    57    71    72    1
    58    68    70   ar
    59    73    72    1
    60    73    74    2
    61    72    75    1
    62    69    70   ar
    63    84    83    2
    64   105   107   ar
    65   105   103   ar
    66   102   103    1
    67   102    99    1
    68    75    76    1
    69    77    76   ar
    70    77    79   ar
    71   107   108   ar
    72   103   104   ar
    73    76    78   ar
    74    79    80   ar
    75   137   135    1
    76   136   135    1
    77   141   140    2
    78    78    80   ar
    79   135   132    1
    80    98    99    1
    81   108   106   ar
    82    94    93    2
    83    81    82    1
    84    97    95    1
    85   104   106   ar
    86    83    82    1
    87    35    34   ar
    88    35    33   ar
    89    95    96    1
    90    95    92    1
    91    99   100    1
    92    91    92    1
    93   142   143    1
    94   142   139    1
    95    34    32   ar
    96   144   143    1
    97   144   138    1
    98   100   101    2
    99    82    85    1
   100   140   139    1
   101   140   145   am
   102    85    86    1
   103   151   145    1
   104   151   150    1
   105    92    93    1
   106    33    31   ar
   107   138   139    1
   108   138   133   am
   109   132   133    1
   110   132   131    1
   111   145   146    1
   112   133   134    2
   113    87    86   ar
   114    87    89   ar
   115    86    88   ar
   116    32    30   ar
   117   150   149    1
   118   149   146    1
   119   131   126   am
   120    31    30   ar
   121   146   147    1
   122    89    90   ar
   123    88    90   ar
   124   129   128    1
   125    30    29    1
   126   127   126    2
   127   122   121    1
   128   126   125    1
   129   123   121    1
   130   114   113    1
   131   147   148    2
   132   121   120    1
   133   120   117    1
   134   128   125    1
   135   128   130    1
   136    25    26    1
   137   125   124    1
   138    29    26    1
   139   124   118   am
   140   115   113    1
   141   113   110    1
   142    26    27    1
   143   117   118    1
   144   117   116    1
   145   118   119    2
   146   110   111    1
   147   110   109    1
   148   165   164   ar
   149   165   163   ar
   150   111   112    2
   151   164   162   ar
   152   163   161   ar
   153    27    28    2
   154   162   159   ar
   155   161   159   ar
   156   161   160   ar
   157   159   157   ar
   158   160   158   ar
   159   157   158   ar
   160   157   156    1
   161   153   156    1
   162   153   154    1
   163   153   152    1
   164   154   155    2
