@<TRIPOS>MOLECULE
tmp/6h37A00.pdb
 158 155 0 0 0
SMALL
GASTEIGER

@<TRIPOS>ATOM
      1  N         22.3960   13.5190    9.8920 N.3     1  TRP1       -0.1241
      2  CA        21.8810   14.2650   11.0750 C.3     1  TRP1        0.1605
      3  C         20.3710   14.1210   11.1680 C.2     1  TRP1        0.2264
      4  O         19.6980   13.7620   10.1920 O.2     1  TRP1       -0.2867
      5  CB        22.2400   15.7560   10.9840 C.3     1  TRP1        0.0550
      6  CG        21.6430   16.4620    9.7870 C.ar    1  TRP1        0.0003
      7  CD1       22.1360   16.4780    8.5150 C.ar    1  TRP1        0.0946
      8  CD2       20.4140   17.2050    9.7500 C.ar    1  TRP1        0.0152
      9  NE1       21.2940   17.1800    7.6860 N.ar    1  TRP1       -0.2442
     10  CE2       20.2280   17.6370    8.4170 C.ar    1  TRP1        0.0810
     11  CE3       19.4530   17.5450   10.7130 C.ar    1  TRP1        0.0012
     12  CZ2       19.1180   18.3920    8.0190 C.ar    1  TRP1        0.0191
     13  CZ3       18.3450   18.3000   10.3180 C.ar    1  TRP1        0.0001
     14  CH2       18.1890   18.7130    8.9800 C.ar    1  TRP1        0.0015
     15  N          7.5190   20.3770    3.9970 N.3    63  GLN63      -0.1245
     16  CA         7.8610   21.6060    3.2790 C.3    63  GLN63       0.1566
     17  C          7.0690   21.8500    2.0030 C.2    63  GLN63       0.2260
     18  O          6.8620   20.9320    1.2020 O.2    63  GLN63      -0.2867
     19  CB         9.3640   21.5590    2.9510 C.3    63  GLN63       0.0367
     20  CG         9.9210   22.7490    2.1650 C.3    63  GLN63       0.0905
     21  CD        11.4390   22.6650    2.0000 C.2    63  GLN63       0.2608
     22  OE1       12.1580   22.3530    2.9460 O.2    63  GLN63      -0.2717
     23  NE2       11.9280   22.9540    0.7980 N.am   63  GLN63      -0.0878
     24  N         10.5930   28.3950   -0.1670 N.3    88  GLN88      -0.1245
     25  CA         9.8060   27.3660    0.4960 C.3    88  GLN88       0.1566
     26  C          9.4520   27.7420    1.9230 C.2    88  GLN88       0.2260
     27  O         10.0090   28.6820    2.4740 O.2    88  GLN88      -0.2867
     28  CB        10.6300   26.0690    0.5380 C.3    88  GLN88       0.0367
     29  CG        12.0420   26.2270    1.1790 C.3    88  GLN88       0.0905
     30  CD        12.1350   25.7910    2.6490 C.2    88  GLN88       0.2608
     31  OE1       11.1400   25.7670    3.3820 O.2    88  GLN88      -0.2717
     32  NE2       13.3480   25.4580    3.0870 N.am   88  GLN88      -0.0878
     33  N          8.3520   25.7200    5.8100 N.3    90  HIS90      -0.1241
     34  CA         8.2580   24.4570    6.5350 C.3    90  HIS90       0.1621
     35  C          7.9920   24.8080    7.9960 C.2    90  HIS90       0.2264
     36  O          7.9040   25.9910    8.3470 O.2    90  HIS90      -0.2867
     37  CB         9.5740   23.6860    6.4340 C.3    90  HIS90       0.0745
     38  CG        10.7450   24.4520    6.9610 C.ar   90  HIS90       0.0817
     39  ND1       11.4710   25.3590    6.2220 N.ar   90  HIS90      -0.2268
     40  CD2       11.2590   24.5070    8.2160 C.ar   90  HIS90       0.1154
     41  CE1       12.3760   25.9320    7.0390 C.ar   90  HIS90       0.1986
     42  NE2       12.2820   25.4410    8.2600 N.ar   90  HIS90      -0.2212
     43  N          8.4930   23.6020   12.4700 N.3    92  HIS92      -0.1241
     44  CA         9.2260   22.9190   13.5380 C.3    92  HIS92       0.1621
     45  C          8.1950   22.8110   14.6520 C.2    92  HIS92       0.2264
     46  O          7.5280   23.8000   14.9830 O.2    92  HIS92      -0.2867
     47  CB        10.4150   23.7550   14.0280 C.3    92  HIS92       0.0745
     48  CG        11.4540   24.0050   12.9800 C.ar   92  HIS92       0.0817
     49  ND1       12.4000   23.0820   12.5830 N.ar   92  HIS92      -0.2268
     50  CD2       11.6480   25.0910   12.1910 C.ar   92  HIS92       0.1154
     51  CE1       13.1110   23.6270   11.5860 C.ar   92  HIS92       0.1986
     52  NE2       12.6880   24.8460   11.3160 N.ar   92  HIS92      -0.2212
     53  N          8.5520   28.7000    9.2140 N.3   115  HIS115     -0.1241
     54  CA         9.6870   29.3910    8.5960 C.3   115  HIS115      0.1621
     55  C          9.4520   29.5890    7.1010 C.2   115  HIS115      0.2264
     56  O          9.2830   28.6280    6.3680 O.2   115  HIS115     -0.2867
     57  CB        10.9830   28.5910    8.7900 C.3   115  HIS115      0.0745
     58  CG        11.5390   28.6740   10.1790 C.ar  115  HIS115      0.0817
     59  ND1       12.5050   27.8050   10.6200 N.ar  115  HIS115     -0.2268
     60  CD2       11.2310   29.5500   11.1710 C.ar  115  HIS115      0.1154
     61  CE1       12.7610   28.1600   11.8670 C.ar  115  HIS115      0.1986
     62  NE2       12.0100   29.2160   12.2440 N.ar  115  HIS115     -0.2212
     63  N         11.2670   30.7200    3.9940 N.3   117  VAL117     -0.1245
     64  CA        12.6350   30.8830    3.5130 C.3   117  VAL117      0.1561
     65  C         12.7220   31.6030    2.1730 C.2   117  VAL117      0.2260
     66  O         12.2340   31.1090    1.1550 O.2   117  VAL117     -0.2867
     67  CB        13.3160   29.4870    3.3720 C.3   117  VAL117      0.0252
     68  CG1       14.8030   29.6390    3.1340 C.3   117  VAL117      0.0019
     69  CG2       13.0570   28.6570    4.6190 C.3   117  VAL117      0.0019
     70  N         19.5960   29.0870   -5.2510 N.3   127  PHE127     -0.1227
     71  CA        19.2150   29.1440   -3.8570 C.3   127  PHE127      0.1736
     72  C         20.4030   28.5760   -3.0810 C.2   127  PHE127      0.2596
     73  O         20.8070   29.1130   -2.0600 O.2   127  PHE127     -0.2718
     74  CB        17.9700   28.2870   -3.6210 C.3   127  PHE127      0.0547
     75  CG        17.6630   28.0660   -2.1820 C.ar  127  PHE127     -0.0202
     76  CD1       17.1630   29.0990   -1.3990 C.ar  127  PHE127     -0.0042
     77  CD2       17.9230   26.8390   -1.5900 C.ar  127  PHE127     -0.0042
     78  CE1       16.9300   28.9170   -0.0440 C.ar  127  PHE127     -0.0003
     79  CE2       17.6930   26.6450   -0.2350 C.ar  127  PHE127     -0.0003
     80  CZ        17.1970   27.6880    0.5410 C.ar  127  PHE127     -0.0000
     81  N         20.9790   27.4910   -3.5950 N.am  128  GLY128     -0.1957
     82  CA        22.1080   26.8670   -2.9240 C.3   128  GLY128      0.1869
     83  C         23.2980   27.7960   -2.7890 C.2   128  GLY128      0.2309
     84  O         23.9970   27.7990   -1.7700 O.2   128  GLY128     -0.2863
     85  N         22.5090   30.2630   -0.0950 N.3   131  ALA131     -0.1231
     86  CA        22.5370   29.6440    1.2320 C.3   131  ALA131      0.1694
     87  C         23.9060   29.6960    1.9140 C.2   131  ALA131      0.2592
     88  O         24.0090   29.4800    3.1270 O.2   131  ALA131     -0.2718
     89  CB        22.0450   28.1900    1.1350 C.3   131  ALA131      0.0304
     90  N         24.9470   30.0290    1.1550 N.am  132  SER132     -0.1952
     91  CA        26.3010   30.0870    1.6980 C.3   132  SER132      0.1924
     92  C         26.8880   31.4770    1.9540 C.2   132  SER132      0.2314
     93  O         27.9740   31.5860    2.5230 O.2   132  SER132     -0.2863
     94  CB        27.2540   29.3340    0.7710 C.3   132  SER132      0.2116
     95  OG        27.6600   30.1630   -0.3080 O.3   132  SER132     -0.2180
     96  N         14.8570   34.6750    6.3750 N.3   139  VAL139     -0.1245
     97  CA        13.8050   33.7760    6.8040 C.3   139  VAL139      0.1561
     98  C         12.8770   34.5130    7.7640 C.2   139  VAL139      0.2260
     99  O         13.3200   35.1270    8.7370 O.2   139  VAL139     -0.2867
    100  CB        14.3730   32.5080    7.5030 C.3   139  VAL139      0.0252
    101  CG1       13.2420   31.6210    7.9410 C.3   139  VAL139      0.0019
    102  CG2       15.3100   31.7480    6.5580 C.3   139  VAL139      0.0019
    103  N         21.2510   29.1910    9.3070 N.3   194  LEU194     -0.1231
    104  CA        20.2880   28.1450    9.0020 C.3   194  LEU194      0.1693
    105  C         20.1960   27.4080   10.3450 C.2   194  LEU194      0.2593
    106  O         21.1920   27.3640   11.0830 O.2   194  LEU194     -0.2718
    107  CB        20.8680   27.1770    7.9590 C.3   194  LEU194      0.0284
    108  CG        21.0420   27.7230    6.5390 C.3   194  LEU194      0.0019
    109  CD1       21.7980   26.7450    5.6460 C.3   194  LEU194      0.0001
    110  CD2       19.6650   27.9840    6.0000 C.3   194  LEU194      0.0001
    111  N         19.0370   26.8220   10.6590 N.am  195  THR195     -0.1939
    112  CA        18.9060   26.0970   11.9130 C.3   195  THR195      0.2028
    113  C         19.0390   24.5810   11.7110 C.2   195  THR195      0.2643
    114  O         18.7840   23.7910   12.6160 O.2   195  THR195     -0.2714
    115  CB        17.5840   26.4420   12.6340 C.3   195  THR195      0.1808
    116  OG1       16.4710   25.9320   11.8950 O.3   195  THR195     -0.2208
    117  CG2       17.4410   27.9680   12.7680 C.3   195  THR195      0.0379
    118  N         19.4340   24.1910   10.5030 N.am  196  THR196     -0.1937
    119  CA        19.6750   22.7900   10.1750 C.3   196  THR196      0.2013
    120  C         21.0230   22.7630    9.4660 C.2   196  THR196      0.2484
    121  O         21.4700   23.7770    8.9160 O.2   196  THR196     -0.2729
    122  CB        18.6360   22.1960    9.1770 C.3   196  THR196      0.1807
    123  OG1       18.8080   22.8020    7.8870 O.3   196  THR196     -0.2208
    124  CG2       17.2150   22.4080    9.6650 C.3   196  THR196      0.0379
    125  N         21.7150   21.6170    9.4990 N.am  197  PRO197     -0.2715
    126  CA        23.0090   21.5430    8.8120 C.3   197  PRO197      0.1521
    127  C         22.7690   21.9810    7.3630 C.2   197  PRO197      0.2440
    128  O         21.7120   21.7100    6.8150 O.2   197  PRO197     -0.2731
    129  CB        23.3600   20.0560    8.9230 C.3   197  PRO197      0.0310
    130  CG        22.8340   19.7220   10.3080 C.3   197  PRO197      0.0237
    131  CD        21.4780   20.4170   10.3290 C.3   197  PRO197      0.0939
    132  N         23.7620   22.6060    6.7040 N.am  198  PRO198     -0.2727
    133  CA        25.1130   22.9550    7.1420 C.3   198  PRO198      0.1402
    134  C         25.2680   24.0700    8.1670 C.2   198  PRO198      0.2269
    135  O         26.3930   24.4130    8.5140 O.2   198  PRO198     -0.2865
    136  CB        25.8180   23.2840    5.8290 C.3   198  PRO198      0.0296
    137  CG        24.7310   23.9530    5.0580 C.3   198  PRO198      0.0237
    138  CD        23.5590   23.0150    5.3030 C.3   198  PRO198      0.0939
    139  N         25.0060   27.2000    7.9130 N.3   200  SER200     -0.1217
    140  CA        25.7260   28.3770    7.3890 C.3   200  SER200      0.1889
    141  C         25.1220   29.6700    7.9370 C.2   200  SER200      0.2288
    142  O         23.9080   29.7980    8.0510 O.2   200  SER200     -0.2866
    143  CB        25.6620   28.4080    5.8620 C.3   200  SER200      0.2089
    144  OG        25.9660   27.1280    5.3230 O.3   200  SER200     -0.2183
    145  N         17.4140   36.9580    9.9970 N.3   205  TRP205     -0.1241
    146  CA        16.1770   36.5010   10.6090 C.3   205  TRP205      0.1605
    147  C         15.2090   37.6380   10.8820 C.2   205  TRP205      0.2264
    148  O         15.6040   38.7370   11.2740 O.2   205  TRP205     -0.2867
    149  CB        16.4630   35.7540   11.9190 C.3   205  TRP205      0.0550
    150  CG        16.8120   34.3180   11.7100 C.ar  205  TRP205      0.0003
    151  CD1       18.0670   33.7690   11.6150 C.ar  205  TRP205      0.0946
    152  CD2       15.8880   33.2570   11.4680 C.ar  205  TRP205      0.0152
    153  NE1       17.9700   32.4200   11.3170 N.ar  205  TRP205     -0.2442
    154  CE2       16.6440   32.0860   11.2210 C.ar  205  TRP205      0.0810
    155  CE3       14.4870   33.1810   11.4270 C.ar  205  TRP205      0.0012
    156  CZ2       16.0450   30.8570   10.9330 C.ar  205  TRP205      0.0191
    157  CZ3       13.8920   31.9500   11.1400 C.ar  205  TRP205      0.0001
    158  CH2       14.6740   30.8080   10.8960 C.ar  205  TRP205      0.0015
@<TRIPOS>BOND
     1    70    71    1
     2    71    74    1
     3    71    72    1
     4    74    75    1
     5    81    72   am
     6    81    82    1
     7    72    73    2
     8    82    83    1
     9    83    84    2
    10    75    77   ar
    11    75    76   ar
    12    77    79   ar
    13    76    78   ar
    14    95    94    1
    15    79    80   ar
    16    24    25    1
    17    85    86    1
    18    78    80   ar
    19    25    28    1
    20    25    26    1
    21    28    29    1
    22    94    91    1
    23    23    21   am
    24    89    86    1
    25    90    91    1
    26    90    87   am
    27    66    65    2
    28    29    30    1
    29    18    17    2
    30    86    87    1
    31    91    92    1
    32    87    88    2
    33    26    27    2
    34    92    93    2
    35    21    20    1
    36    21    22    2
    37    17    16    1
    38    20    19    1
    39    65    64    1
    40    30    32   am
    41    30    31    2
    42    19    16    1
    43    68    67    1
    44    16    15    1
    45    67    64    1
    46    67    69    1
    47    64    63    1
    48   137   138    1
    49   137   136    1
    50   138   132    1
    51   144   143    1
    52   109   108    1
    53    33    34    1
    54   136   133    1
    55   143   140    1
    56   110   108    1
    57    39    38   ar
    58    39    41   ar
    59    56    55    2
    60    96    97    1
    61    37    34    1
    62    37    38    1
    63    34    35    1
    64   108   107    1
    65   102   100    1
    66   132   133    1
    67   132   127   am
    68    97   100    1
    69    97    98    1
    70   128   127    2
    71    38    40   ar
    72    41    42   ar
    73    55    54    1
    74   133   134    1
    75   127   126    1
    76   140   139    1
    77   140   141    1
    78   100   101    1
    79     9    10   ar
    80     9     7   ar
    81    98    99    2
    82   123   122    1
    83   141   142    2
    84   107   104    1
    85    35    36    2
    86    12    10   ar
    87    12    14   ar
    88   134   135    2
    89    40    42   ar
    90    10     8   ar
    91     7     6   ar
    92    54    57    1
    93    54    53    1
    94    57    58    1
    95   126   129    1
    96   126   125    1
    97   121   120    2
    98   129   130    1
    99    14    13   ar
   100   104   103    1
   101   104   105    1
   102   122   124    1
   103   122   119    1
   104   120   125   am
   105   120   119    1
   106   125   131    1
   107     8     6   ar
   108     8    11   ar
   109     6     5    1
   110     1     2    1
   111   145   146    1
   112   119   118    1
   113    58    59   ar
   114    58    60   ar
   115     4     3    2
   116   130   131    1
   117    13    11   ar
   118   105   111   am
   119   105   106    2
   120   118   113   am
   121   146   147    1
   122   146   149    1
   123    59    61   ar
   124   111   112    1
   125   147   148    2
   126   158   156   ar
   127   158   157   ar
   128   156   154   ar
   129     5     2    1
   130     2     3    1
   131   157   155   ar
   132    60    62   ar
   133   154   153   ar
   134   154   152   ar
   135    52    51   ar
   136    52    50   ar
   137   153   151   ar
   138   155   152   ar
   139   152   150   ar
   140    51    49   ar
   141   151   150   ar
   142   150   149    1
   143   113   112    1
   144   113   114    2
   145    61    62   ar
   146   116   115    1
   147   112   115    1
   148    50    48   ar
   149    43    44    1
   150    49    48   ar
   151   115   117    1
   152    48    47    1
   153    44    47    1
   154    44    45    1
   155    45    46    2
