@<TRIPOS>MOLECULE
tmp/6h38A00.pdb
 154 152 0 0 0
SMALL
GASTEIGER

@<TRIPOS>ATOM
      1  N         22.0030   13.4090   10.0820 N.3     2  TRP2       -0.1241
      2  CA        21.5660   14.2330   11.1990 C.3     2  TRP2        0.1605
      3  C         20.0500   14.1570   11.3010 C.2     2  TRP2        0.2264
      4  O         19.3650   13.8940   10.3120 O.2     2  TRP2       -0.2867
      5  CB        22.0070   15.6930   11.0090 C.3     2  TRP2        0.0550
      6  CG        21.3780   16.3600    9.8330 C.ar    2  TRP2        0.0003
      7  CD1       21.8060   16.3210    8.5340 C.ar    2  TRP2        0.0946
      8  CD2       20.1600   17.1100    9.8340 C.ar    2  TRP2        0.0152
      9  NE1       20.9240   16.9990    7.7260 N.ar    2  TRP2       -0.2442
     10  CE2       19.9040   17.4920    8.4980 C.ar    2  TRP2        0.0810
     11  CE3       19.2580   17.4960   10.8360 C.ar    2  TRP2        0.0012
     12  CZ2       18.7820   18.2400    8.1370 C.ar    2  TRP2        0.0191
     13  CZ3       18.1390   18.2460   10.4730 C.ar    2  TRP2        0.0001
     14  CH2       17.9160   18.6070    9.1330 C.ar    2  TRP2        0.0015
     15  N         29.0620   19.3610   11.7350 N.3    17  TYR17      -0.1241
     16  CA        29.1120   20.7170   11.1730 C.3    17  TYR17       0.1605
     17  C         29.6130   21.6280   12.2690 C.2    17  TYR17       0.2264
     18  O         28.8330   22.1380   13.0680 O.2    17  TYR17      -0.2867
     19  CB        27.7200   21.1830   10.7370 C.3    17  TYR17       0.0534
     20  CG        27.1050   20.2990    9.6920 C.ar   17  TYR17      -0.0201
     21  CD1       26.4130   19.1410   10.0490 C.ar   17  TYR17      -0.0009
     22  CD2       27.2890   20.5730    8.3420 C.ar   17  TYR17      -0.0009
     23  CE1       25.9250   18.2700    9.0790 C.ar   17  TYR17       0.0417
     24  CE2       26.8080   19.7090    7.3660 C.ar   17  TYR17       0.0417
     25  CZ        26.1320   18.5620    7.7430 C.ar   17  TYR17       0.1957
     26  OH        25.6900   17.6900    6.7710 O.3    17  TYR17      -0.2866
     27  N          7.2380   20.5330    4.0420 N.3    64  GLN64      -0.1245
     28  CA         7.6080   21.7470    3.3240 C.3    64  GLN64       0.1566
     29  C          6.7930   22.0130    2.0710 C.2    64  GLN64       0.2260
     30  O          6.5260   21.0950    1.2930 O.2    64  GLN64      -0.2867
     31  CB         9.0940   21.6440    2.9580 C.3    64  GLN64       0.0367
     32  CG         9.6810   22.8150    2.1890 C.3    64  GLN64       0.0905
     33  CD        11.1820   22.6810    2.0230 C.2    64  GLN64       0.2608
     34  OE1       11.8850   22.3080    2.9650 O.2    64  GLN64      -0.2717
     35  NE2       11.6850   22.9940    0.8320 N.am   64  GLN64      -0.0878
     36  N         10.3540   28.5320   -0.1360 N.3    89  GLN89      -0.1245
     37  CA         9.5860   27.4780    0.5090 C.3    89  GLN89       0.1566
     38  C          9.2400   27.8890    1.9220 C.2    89  GLN89       0.2260
     39  O          9.8100   28.8460    2.4430 O.2    89  GLN89      -0.2867
     40  CB        10.4460   26.2000    0.5900 C.3    89  GLN89       0.0367
     41  CG        11.8450   26.4070    1.2610 C.3    89  GLN89       0.0905
     42  CD        11.9490   25.8740    2.6870 C.2    89  GLN89       0.2608
     43  OE1       10.9650   25.8020    3.4180 O.2    89  GLN89      -0.2717
     44  NE2       13.1660   25.5180    3.0920 N.am   89  GLN89      -0.0878
     45  N          8.1200   25.9340    5.8600 N.3    91  HIS91      -0.1241
     46  CA         8.0410   24.6800    6.5740 C.3    91  HIS91       0.1621
     47  C          7.8050   25.0050    8.0450 C.2    91  HIS91       0.2264
     48  O          7.7600   26.1770    8.4180 O.2    91  HIS91      -0.2867
     49  CB         9.3490   23.9010    6.4330 C.3    91  HIS91       0.0745
     50  CG        10.5400   24.6380    6.9540 C.ar   91  HIS91       0.0817
     51  ND1       11.3170   25.4870    6.1940 N.ar   91  HIS91      -0.2268
     52  CD2       11.0450   24.7020    8.2130 C.ar   91  HIS91       0.1154
     53  CE1       12.2420   26.0340    7.0050 C.ar   91  HIS91       0.1986
     54  NE2       12.1120   25.5830    8.2360 N.ar   91  HIS91      -0.2212
     55  N          8.3270   23.7470   12.4870 N.3    93  HIS93      -0.1241
     56  CA         9.0540   23.0280   13.5390 C.3    93  HIS93       0.1621
     57  C          8.0140   22.9470   14.6500 C.2    93  HIS93       0.2264
     58  O          7.3360   23.9380   14.9310 O.2    93  HIS93      -0.2867
     59  CB        10.2500   23.8380   14.0220 C.3    93  HIS93       0.0745
     60  CG        11.2720   24.0960   12.9560 C.ar   93  HIS93       0.0817
     61  ND1       12.2760   23.2140   12.6150 N.ar   93  HIS93      -0.2268
     62  CD2       11.4180   25.1600   12.1270 C.ar   93  HIS93       0.1154
     63  CE1       12.9820   23.7650   11.6120 C.ar   93  HIS93       0.1986
     64  NE2       12.4980   24.9470   11.2820 N.ar   93  HIS93      -0.2212
     65  N          8.4010   28.8620    9.2080 N.3   116  HIS116     -0.1241
     66  CA         9.5370   29.5530    8.6070 C.3   116  HIS116      0.1621
     67  C          9.2860   29.7500    7.1140 C.2   116  HIS116      0.2264
     68  O          9.1740   28.7710    6.3760 O.2   116  HIS116     -0.2867
     69  CB        10.8190   28.7280    8.7910 C.3   116  HIS116      0.0745
     70  CG        11.3690   28.7800   10.1820 C.ar  116  HIS116      0.0817
     71  ND1       12.3430   27.9060   10.6110 N.ar  116  HIS116     -0.2268
     72  CD2       11.0500   29.6280   11.1910 C.ar  116  HIS116      0.1154
     73  CE1       12.5940   28.2400   11.8660 C.ar  116  HIS116      0.1986
     74  NE2       11.8330   29.2780   12.2590 N.ar  116  HIS116     -0.2212
     75  N         10.9770   30.8990    4.0020 N.3   118  VAL118     -0.1245
     76  CA        12.3560   31.0380    3.5500 C.3   118  VAL118      0.1561
     77  C         12.4750   31.7620    2.2200 C.2   118  VAL118      0.2260
     78  O         11.9310   31.3080    1.2100 O.2   118  VAL118     -0.2867
     79  CB        12.9970   29.6340    3.4310 C.3   118  VAL118      0.0252
     80  CG1       14.4800   29.7570    3.1460 C.3   118  VAL118      0.0019
     81  CG2       12.7620   28.8480    4.7310 C.3   118  VAL118      0.0019
     82  N         19.4580   29.2280   -5.1800 N.3   128  PHE128     -0.1241
     83  CA        19.0960   29.3070   -3.7810 C.3   128  PHE128      0.1605
     84  C         20.2890   28.7260   -3.0170 C.2   128  PHE128      0.2264
     85  O         20.7210   29.2680   -2.0050 O.2   128  PHE128     -0.2867
     86  CB        17.8320   28.4750   -3.5480 C.3   128  PHE128      0.0534
     87  CG        17.5380   28.2240   -2.1170 C.ar  128  PHE128     -0.0203
     88  CD1       16.9750   29.2140   -1.3210 C.ar  128  PHE128     -0.0042
     89  CD2       17.8750   27.0080   -1.5390 C.ar  128  PHE128     -0.0042
     90  CE1       16.7590   28.9910    0.0330 C.ar  128  PHE128     -0.0003
     91  CE2       17.6620   26.7830   -0.1890 C.ar  128  PHE128     -0.0003
     92  CZ        17.1060   27.7750    0.5970 C.ar  128  PHE128     -0.0000
     93  N         22.2820   30.3930   -0.1050 N.3   132  ALA132     -0.1245
     94  CA        22.2880   29.7990    1.2280 C.3   132  ALA132      0.1562
     95  C         23.6630   29.7890    1.9020 C.2   132  ALA132      0.2260
     96  O         23.7730   29.4900    3.0910 O.2   132  ALA132     -0.2867
     97  CB        21.7190   28.3780    1.1600 C.3   132  ALA132      0.0290
     98  N         14.7000   34.7770    6.4180 N.3   140  VAL140     -0.1245
     99  CA        13.6570   33.8760    6.8620 C.3   140  VAL140      0.1561
    100  C         12.7300   34.6350    7.8120 C.2   140  VAL140      0.2260
    101  O         13.1820   35.3010    8.7490 O.2   140  VAL140     -0.2867
    102  CB        14.2530   32.6360    7.5720 C.3   140  VAL140      0.0252
    103  CG1       13.1450   31.6870    7.9850 C.3   140  VAL140      0.0019
    104  CG2       15.2220   31.9130    6.6190 C.3   140  VAL140      0.0019
    105  N         21.0410   29.2180    9.3210 N.3   195  LEU195     -0.1231
    106  CA        20.0540   28.1970    9.0400 C.3   195  LEU195      0.1693
    107  C         19.9980   27.4620   10.3890 C.2   195  LEU195      0.2593
    108  O         21.0170   27.3700   11.0810 O.2   195  LEU195     -0.2718
    109  CB        20.5730   27.2280    7.9730 C.3   195  LEU195      0.0284
    110  CG        20.7300   27.8230    6.5720 C.3   195  LEU195      0.0019
    111  CD1       21.5020   26.8640    5.6640 C.3   195  LEU195      0.0001
    112  CD2       19.3530   28.0370    6.0090 C.3   195  LEU195      0.0001
    113  N         18.8300   26.9430   10.7590 N.am  196  THR196     -0.1939
    114  CA        18.7050   26.2220   12.0260 C.3   196  THR196      0.2028
    115  C         18.8620   24.7090   11.8420 C.2   196  THR196      0.2643
    116  O         18.6750   23.9480   12.7880 O.2   196  THR196     -0.2714
    117  CB        17.3560   26.4970   12.7190 C.3   196  THR196      0.1808
    118  OG1       16.2940   25.9440   11.9380 O.3   196  THR196     -0.2208
    119  CG2       17.1450   27.9950   12.8990 C.3   196  THR196      0.0379
    120  N         19.1610   24.2800   10.6180 N.am  197  THR197     -0.1937
    121  CA        19.4350   22.8700   10.3430 C.3   197  THR197      0.2013
    122  C         20.7520   22.8500    9.5860 C.2   197  THR197      0.2484
    123  O         21.1770   23.8670    9.0430 O.2   197  THR197     -0.2729
    124  CB        18.4010   22.1790    9.4090 C.3   197  THR197      0.1807
    125  OG1       18.5350   22.6960    8.0730 O.3   197  THR197     -0.2208
    126  CG2       16.9830   22.3720    9.9180 C.3   197  THR197      0.0379
    127  N         21.4360   21.7000    9.5720 N.am  198  PRO198     -0.2715
    128  CA        22.7030   21.5970    8.8420 C.3   198  PRO198      0.1521
    129  C         22.4200   22.0950    7.4210 C.2   198  PRO198      0.2440
    130  O         21.3310   21.8740    6.8980 O.2   198  PRO198     -0.2731
    131  CB        22.9830   20.0980    8.8820 C.3   198  PRO198      0.0310
    132  CG        22.5130   19.7390   10.2790 C.3   198  PRO198      0.0237
    133  CD        21.1790   20.4880   10.3740 C.3   198  PRO198      0.0939
    134  N         23.4090   22.7070    6.7490 N.am  199  PRO199     -0.2727
    135  CA        24.7880   22.9970    7.1350 C.3   199  PRO199      0.1402
    136  C         24.9810   24.1040    8.1600 C.2   199  PRO199      0.2269
    137  O         26.1170   24.4530    8.4790 O.2   199  PRO199     -0.2865
    138  CB        25.4490   23.3250    5.8000 C.3   199  PRO199      0.0296
    139  CG        24.3600   24.0620    5.0940 C.3   199  PRO199      0.0237
    140  CD        23.1340   23.2160    5.3930 C.3   199  PRO199      0.0939
    141  N         17.3180   37.0790   10.0750 N.3   206  TRP206     -0.1241
    142  CA        16.0890   36.6160   10.6870 C.3   206  TRP206      0.1605
    143  C         15.0990   37.7330   10.9650 C.2   206  TRP206      0.2264
    144  O         15.4700   38.7940   11.4560 O.2   206  TRP206     -0.2867
    145  CB        16.3980   35.8700   11.9930 C.3   206  TRP206      0.0550
    146  CG        16.7200   34.4390   11.7660 C.ar  206  TRP206      0.0003
    147  CD1       17.9600   33.8770   11.6340 C.ar  206  TRP206      0.0946
    148  CD2       15.7750   33.3910   11.5430 C.ar  206  TRP206      0.0152
    149  NE1       17.8390   32.5340   11.3380 N.ar  206  TRP206     -0.2442
    150  CE2       16.5070   32.2140   11.2720 C.ar  206  TRP206      0.0810
    151  CE3       14.3700   33.3340   11.5450 C.ar  206  TRP206      0.0012
    152  CZ2       15.8830   30.9880   10.9980 C.ar  206  TRP206      0.0191
    153  CZ3       13.7480   32.1180   11.2770 C.ar  206  TRP206      0.0001
    154  CH2       14.5070   30.9610   11.0050 C.ar  206  TRP206      0.0015
@<TRIPOS>BOND
     1    82    83    1
     2    83    86    1
     3    83    84    1
     4    86    87    1
     5    84    85    2
     6    87    89   ar
     7    87    88   ar
     8    89    91   ar
     9    88    90   ar
    10    91    92   ar
    11    36    37    1
    12    93    94    1
    13    90    92   ar
    14    37    40    1
    15    37    38    1
    16    40    41    1
    17    35    33   am
    18    97    94    1
    19    78    77    2
    20    94    95    1
    21    41    42    1
    22    30    29    2
    23    95    96    2
    24    38    39    2
    25    33    32    1
    26    33    34    2
    27    29    28    1
    28    32    31    1
    29    77    76    1
    30    42    44   am
    31    42    43    2
    32    31    28    1
    33    80    79    1
    34    28    27    1
    35    79    76    1
    36    79    81    1
    37    76    75    1
    38   139   140    1
    39   139   138    1
    40   140   134    1
    41   111   110    1
    42   138   135    1
    43    45    46    1
    44   112   110    1
    45    51    50   ar
    46    51    53   ar
    47    68    67    2
    48    98    99    1
    49    49    46    1
    50    49    50    1
    51   110   109    1
    52    46    47    1
    53   104   102    1
    54   134   135    1
    55   134   129   am
    56    26    25    1
    57    99   102    1
    58    99   100    1
    59   130   129    2
    60    50    52   ar
    61    53    54   ar
    62    67    66    1
    63   135   136    1
    64    24    25   ar
    65    24    22   ar
    66   129   128    1
    67   102   103    1
    68     9    10   ar
    69     9     7   ar
    70    25    23   ar
    71   100   101    2
    72   109   106    1
    73    47    48    2
    74   125   124    1
    75    12    10   ar
    76    12    14   ar
    77   136   137    2
    78    52    54   ar
    79    22    20   ar
    80    10     8   ar
    81     7     6   ar
    82    66    69    1
    83    66    65    1
    84    69    70    1
    85   128   131    1
    86   128   127    1
    87   131   132    1
    88   106   105    1
    89   106   107    1
    90   123   122    2
    91    23    21   ar
    92    14    13   ar
    93   124   126    1
    94   124   121    1
    95   127   122   am
    96   127   133    1
    97   122   121    1
    98    20    21   ar
    99    20    19    1
   100     6     8   ar
   101     6     5    1
   102     8    11   ar
   103   141   142    1
   104     1     2    1
   105    70    71   ar
   106    70    72   ar
   107   132   133    1
   108     4     3    2
   109   121   120    1
   110   107   113   am
   111   107   108    2
   112    13    11   ar
   113    71    73   ar
   114   120   115   am
   115   142   143    1
   116   142   145    1
   117    19    16    1
   118   113   114    1
   119   143   144    2
   120   152   154   ar
   121   152   150   ar
   122   154   153   ar
   123     5     2    1
   124    16    15    1
   125    16    17    1
   126    72    74   ar
   127     2     3    1
   128   150   149   ar
   129   150   148   ar
   130   153   151   ar
   131    64    63   ar
   132    64    62   ar
   133   149   147   ar
   134   148   151   ar
   135   148   146   ar
   136    63    61   ar
   137   147   146   ar
   138   146   145    1
   139   115   114    1
   140   115   116    2
   141    73    74   ar
   142   118   117    1
   143   114   117    1
   144    62    60   ar
   145    17    18    2
   146    55    56    1
   147    61    60   ar
   148   117   119    1
   149    60    59    1
   150    56    59    1
   151    56    57    1
   152    57    58    2
