@<TRIPOS>MOLECULE
tmp/6h39K00.pdb
 121 115 0 0 0
SMALL
GASTEIGER

@<TRIPOS>ATOM
      1  N         11.8520 -140.2620    9.1360 N.3     1  THR1       -0.1218
      2  CA        11.5470 -139.1340    8.2010 C.3     1  THR1        0.1862
      3  C         12.1230 -139.3920    6.8240 C.2     1  THR1        0.2287
      4  O         13.1950 -139.9920    6.6900 O.2     1  THR1       -0.2866
      5  CB        12.1150 -137.7990    8.7400 C.3     1  THR1        0.1770
      6  OG1       11.5320 -137.5320   10.0180 O.3     1  THR1       -0.2211
      7  CG2       11.8350 -136.6130    7.8100 C.3     1  THR1        0.0375
      8  N          5.3930 -138.7230    9.4110 N.3    19  ARG19      -0.1231
      9  CA         5.5060 -139.6160   10.5720 C.3    19  ARG19       0.1694
     10  C          6.4770 -139.0960   11.6240 C.2    19  ARG19       0.2592
     11  O          7.5850 -138.6820   11.2980 O.2    19  ARG19      -0.2718
     12  CB         5.9390 -141.0230   10.1510 C.3    19  ARG19       0.0321
     13  CG         6.0620 -141.9870   11.3300 C.3    19  ARG19       0.0489
     14  CD         6.2640 -143.4260   10.8930 C.3    19  ARG19       0.2205
     15  NE         5.0140 -144.0860   10.5160 N.pl3  19  ARG19      -0.0865
     16  CZ         4.9090 -145.3650   10.1610 C.cat  19  ARG19       0.5346
     17  NH1        5.9800 -146.1600   10.1310 N.pl3  19  ARG19       0.1354
     18  NH2        3.7200 -145.8630    9.8350 N.pl3  19  ARG19       0.1354
     19  N          6.0560 -139.1600   12.8850 N.am   20  ALA20      -0.1966
     20  CA         6.9030 -138.8410   14.0310 C.3    20  ALA20       0.1728
     21  C          7.0290 -140.0850   14.9150 C.2    20  ALA20       0.2617
     22  O          6.0260 -140.7400   15.2080 O.2    20  ALA20      -0.2715
     23  CB         6.3060 -137.6870   14.8210 C.3    20  ALA20       0.0334
     24  N          8.2530 -140.3980   15.3420 N.am   21  THR21      -0.1937
     25  CA         8.5160 -141.5790   16.1740 C.3    21  THR21       0.2028
     26  C          9.2750 -141.2340   17.4530 C.2    21  THR21       0.2642
     27  O         10.0060 -140.2460   17.5050 O.2    21  THR21      -0.2714
     28  CB         9.3070 -142.6560   15.3990 C.3    21  THR21       0.1808
     29  OG1       10.5770 -142.1300   14.9940 O.3    21  THR21      -0.2208
     30  CG2        8.5300 -143.1250   14.1660 C.3    21  THR21       0.0379
     31  N          9.0710 -142.0510   18.4830 N.am   22  ALA22      -0.1963
     32  CA         9.8530 -141.9910   19.7210 C.3    22  ALA22       0.1728
     33  C         10.3470 -143.4080   20.0100 C.2    22  ALA22       0.2616
     34  O          9.6310 -144.2220   20.5910 O.2    22  ALA22      -0.2715
     35  CB         9.0100 -141.4590   20.8710 C.3    22  ALA22       0.0334
     36  N         11.5760 -143.6960   19.5890 N.am   23  GLY23      -0.1955
     37  CA        12.0700 -145.0680   19.5390 C.3    23  GLY23       0.1869
     38  C         11.3120 -145.8000   18.4420 C.2    23  GLY23       0.2309
     39  O         11.2410 -145.3120   17.3060 O.2    23  GLY23      -0.2863
     40  N          4.6120 -141.9150   17.2640 N.3    27  ALA27      -0.1231
     41  CA         4.0520 -140.7950   18.0200 C.3    27  ALA27       0.1694
     42  C          2.9370 -140.0860   17.2640 C.2    27  ALA27       0.2592
     43  O          1.9500 -139.6740   17.8690 O.2    27  ALA27      -0.2718
     44  CB         5.1480 -139.8070   18.3820 C.3    27  ALA27       0.0304
     45  N          3.0940 -139.9420   15.9500 N.am   28  SER28      -0.1952
     46  CA         2.0700 -139.3180   15.1090 C.3    28  SER28       0.1924
     47  C          2.2080 -139.7290   13.6500 C.2    28  SER28       0.2314
     48  O          3.3040 -140.0540   13.1920 O.2    28  SER28      -0.2863
     49  CB         2.1580 -137.7930   15.2150 C.3    28  SER28       0.2116
     50  OG         1.3240 -137.1490   14.2600 O.3    28  SER28      -0.2180
     51  N          1.9850 -135.1740   11.0730 N.3    31  VAL31      -0.1231
     52  CA         2.8850 -134.0890   11.4690 C.3    31  VAL31       0.1692
     53  C          3.2710 -133.2470   10.2450 C.2    31  VAL31       0.2592
     54  O          3.4930 -133.7920    9.1580 O.2    31  VAL31      -0.2718
     55  CB         4.1210 -134.6640   12.2220 C.3    31  VAL31       0.0266
     56  CG1        5.4330 -134.0380   11.7750 C.3    31  VAL31       0.0020
     57  CG2        3.9460 -134.5180   13.7290 C.3    31  VAL31       0.0020
     58  N          3.3520 -131.9270   10.4380 N.am   32  LYS32      -0.1966
     59  CA         3.8050 -131.0000    9.3880 C.3    32  LYS32       0.1728
     60  C          5.3260 -130.8990    9.4050 C.2    32  LYS32       0.2616
     61  O          5.8970 -130.4300   10.3850 O.2    32  LYS32      -0.2715
     62  CB         3.2050 -129.5970    9.5680 C.3    32  LYS32       0.0311
     63  CG         1.7990 -129.4280    9.0080 C.3    32  LYS32       0.0038
     64  CD         1.4500 -127.9570    8.7940 C.3    32  LYS32       0.0206
     65  CE         1.9610 -127.4320    7.4550 C.3    32  LYS32       0.1093
     66  NZ         1.6520 -125.9890    7.2430 N.3    32  LYS32      -0.1314
     67  N          5.9690 -131.3400    8.3250 N.am   33  LYS33      -0.1977
     68  CA         7.4270 -131.2710    8.1840 C.3    33  LYS33       0.1596
     69  C          7.8820 -130.2220    7.1780 C.2    33  LYS33       0.2287
     70  O          9.0670 -130.1510    6.8540 O.2    33  LYS33      -0.2864
     71  CB         7.9750 -132.6400    7.7910 C.3    33  LYS33       0.0298
     72  CG         7.7050 -133.6880    8.8480 C.3    33  LYS33       0.0038
     73  CD         8.4460 -134.9750    8.5730 C.3    33  LYS33       0.0206
     74  CE         8.1440 -135.9770    9.6690 C.3    33  LYS33       0.1093
     75  NZ         8.5860 -137.3340    9.2820 N.3    33  LYS33      -0.1314
     76  N         11.9620 -130.3230    7.3570 N.3    45  MET45      -0.1230
     77  CA        12.4100 -130.7480    8.6830 C.3    45  MET45       0.1702
     78  C         12.6970 -132.2520    8.7630 C.2    45  MET45       0.2592
     79  O         11.8750 -133.0780    8.3540 O.2    45  MET45      -0.2718
     80  CB        11.3510 -130.4020    9.7260 C.3    45  MET45       0.0401
     81  CG        10.9160 -128.9440    9.7620 C.3    45  MET45       0.0596
     82  SD         9.7130 -128.6630   11.0730 S.3    45  MET45      -0.1393
     83  CE         9.1580 -127.0150   10.6650 C.3    45  MET45       0.0692
     84  N         13.8650 -132.5920    9.3060 N.am   46  ALA46      -0.1966
     85  CA        14.2200 -133.9780    9.6360 C.3    46  ALA46       0.1728
     86  C         15.1800 -133.9840   10.8200 C.2    46  ALA46       0.2617
     87  O         15.9770 -133.0560   10.9810 O.2    46  ALA46      -0.2715
     88  CB        14.8500 -134.6740    8.4390 C.3    46  ALA46       0.0334
     89  N         15.0980 -135.0280   11.6390 N.am   47  GLY47      -0.1940
     90  CA        15.9000 -135.1400   12.8620 C.3    47  GLY47       0.2014
     91  C         15.0360 -134.8900   14.0830 C.2    47  GLY47       0.2639
     92  O         13.8890 -135.3280   14.1330 O.2    47  GLY47      -0.2714
     93  N         15.5900 -134.1940   15.0720 N.am   48  GLY48      -0.1939
     94  CA        14.8380 -133.7980   16.2600 C.3    48  GLY48       0.2014
     95  C         13.7160 -132.8350   15.9010 C.2    48  GLY48       0.2639
     96  O         13.9540 -131.7980   15.2770 O.2    48  GLY48      -0.2714
     97  N         12.4900 -133.1970   16.2800 N.am   49  ALA49      -0.1963
     98  CA        11.2950 -132.4360   15.9110 C.3    49  ALA49       0.1728
     99  C         11.2900 -131.0450   16.5310 C.2    49  ALA49       0.2616
    100  O         11.0450 -130.0630   15.8440 O.2    49  ALA49      -0.2715
    101  CB        10.0410 -133.1890   16.3270 C.3    49  ALA49       0.0334
    102  N         11.5560 -130.9850   17.8330 N.am   50  ALA50      -0.1977
    103  CA        11.6090 -129.7230   18.5770 C.3    50  ALA50       0.1597
    104  C         12.6830 -128.7950   18.0300 C.2    50  ALA50       0.2287
    105  O         12.4290 -127.6080   17.8100 O.2    50  ALA50      -0.2864
    106  CB        11.8630 -129.9900   20.0510 C.3    50  ALA50       0.0319
    107  N         14.0060 -128.7600   14.9980 N.3    52  CYS52      -0.1221
    108  CA        13.6010 -128.2680   13.6730 C.3    52  CYS52       0.1808
    109  C         12.4790 -127.2350   13.7620 C.2    52  CYS52       0.2601
    110  O         12.5690 -126.1580   13.1750 O.2    52  CYS52      -0.2717
    111  CB        13.1490 -129.4190   12.7750 C.3    52  CYS52       0.0970
    112  SG        14.5040 -130.4340   12.1640 S.3    52  CYS52      -0.0800
    113  N         11.4340 -127.5860   14.5030 N.am   53  GLN53      -0.1979
    114  CA        10.2500 -126.7400   14.6690 C.3    53  GLN53       0.1601
    115  C         10.6140 -125.3780   15.2670 C.2    53  GLN53       0.2287
    116  O         10.2340 -124.3400   14.7350 O.2    53  GLN53      -0.2864
    117  CB         9.2300 -127.4420   15.5740 C.3    53  GLN53       0.0394
    118  CG         7.7810 -127.2700   15.1880 C.3    53  GLN53       0.0908
    119  CD         6.8960 -128.1940   16.0000 C.2    53  GLN53       0.2608
    120  OE1        6.6300 -127.9380   17.1730 O.2    53  GLN53      -0.2717
    121  NE2        6.4570 -129.2860   15.3860 N.am   53  GLN53      -0.0878
@<TRIPOS>BOND
     1     4     3    2
     2     3     2    1
     3    70    69    2
     4    69    68    1
     5    66    65    1
     6    76    77    1
     7    65    64    1
     8    71    68    1
     9    71    72    1
    10     7     5    1
    11    68    67    1
    12     2     5    1
    13     2     1    1
    14    67    60   am
    15    79    78    2
    16    88    85    1
    17    73    72    1
    18    73    74    1
    19    77    78    1
    20    77    80    1
    21     5     6    1
    22    78    84   am
    23    64    63    1
    24    63    62    1
    25    54    53    2
    26    75    74    1
    27    84    85    1
    28    59    60    1
    29    59    62    1
    30    59    58    1
    31    60    61    2
    32     8     9    1
    33    85    86    1
    34    80    81    1
    35    81    82    1
    36    18    16    1
    37    17    16    1
    38    12     9    1
    39    12    13    1
    40    16    15    2
    41    53    58   am
    42    53    52    1
    43    15    14    1
    44     9    10    1
    45    83    82    1
    46    86    87    2
    47    86    89   am
    48    14    13    1
    49    51    52    1
    50    11    10    2
    51    52    55    1
    52    10    19   am
    53    89    90    1
    54    56    55    1
    55   112   111    1
    56    55    57    1
    57   111   108    1
    58    90    91    1
    59    19    20    1
    60   110   109    2
    61    48    47    2
    62    47    46    1
    63   108   109    1
    64   108   107    1
    65   109   113   am
    66    20    23    1
    67    20    21    1
    68    91    92    2
    69    91    93   am
    70    30    28    1
    71    50    49    1
    72   113   114    1
    73   114   115    1
    74   114   117    1
    75   116   115    2
    76    21    22    2
    77    21    24   am
    78    29    28    1
    79    93    94    1
    80    46    49    1
    81    46    45    1
    82   118   117    1
    83   118   119    1
    84    96    95    2
    85    24    25    1
    86   121   119   am
    87    28    25    1
    88   100    99    2
    89    95    94    1
    90    95    97   am
    91    98    97    1
    92    98   101    1
    93    98    99    1
    94    45    42   am
    95   119   120    2
    96    25    26    1
    97    99   102   am
    98    42    43    2
    99    42    41    1
   100    40    41    1
   101    39    38    2
   102    26    27    2
   103    26    31   am
   104   105   104    2
   105   102   103    1
   106    41    44    1
   107   104   103    1
   108    38    37    1
   109    31    32    1
   110   103   106    1
   111    37    36    1
   112    36    33   am
   113    32    33    1
   114    32    35    1
   115    33    34    2
