@<TRIPOS>MOLECULE
tmp/6h39Z00.pdb
 106 106 0 0 0
SMALL
GASTEIGER

@<TRIPOS>ATOM
      1  N         53.4780 -165.2790   27.1500 N.3   104  PRO104     -0.2116
      2  CA        54.9160 -165.3180   26.8400 C.3   104  PRO104      0.1372
      3  C         55.8850 -165.3020   28.0140 C.2   104  PRO104      0.2244
      4  O         55.5360 -164.8600   29.1080 O.2   104  PRO104     -0.2868
      5  CB        55.1240 -164.0620   25.9770 C.3   104  PRO104      0.0268
      6  CG        53.7680 -163.6790   25.4980 C.3   104  PRO104      0.0207
      7  CD        52.8520 -164.0560   26.6130 C.3   104  PRO104      0.0892
      8  N         58.4640 -163.2060   29.5500 N.3   106  TYR106     -0.1241
      9  CA        58.8270 -161.8220   29.2680 C.3   106  TYR106      0.1605
     10  C         60.3100 -161.6350   29.4200 C.2   106  TYR106      0.2264
     11  O         60.7910 -161.2810   30.4490 O.2   106  TYR106     -0.2867
     12  CB        57.9930 -160.7650   30.0290 C.3   106  TYR106      0.0534
     13  CG        58.6140 -159.3990   29.8540 C.ar  106  TYR106     -0.0201
     14  CD1       59.2380 -159.0660   28.6560 C.ar  106  TYR106     -0.0009
     15  CD2       58.6510 -158.4670   30.8790 C.ar  106  TYR106     -0.0009
     16  CE1       59.8810 -157.8610   28.4790 C.ar  106  TYR106      0.0417
     17  CE2       59.2870 -157.2490   30.7040 C.ar  106  TYR106      0.0417
     18  CZ        59.8980 -156.9620   29.4950 C.ar  106  TYR106      0.1957
     19  OH        60.5300 -155.7760   29.2770 O.3   106  TYR106     -0.2866
     20  N         64.2630 -160.9860   26.9920 N.3   108  HIS108     -0.1241
     21  CA        65.0780 -160.8080   25.7920 C.3   108  HIS108      0.1621
     22  C         66.2190 -161.8090   25.9030 C.2   108  HIS108      0.2264
     23  O         67.0130 -161.7410   26.8430 O.2   108  HIS108     -0.2867
     24  CB        65.6430 -159.3820   25.6980 C.3   108  HIS108      0.0745
     25  CG        64.6170 -158.3350   25.3800 C.ar  108  HIS108      0.0817
     26  ND1       64.7710 -157.0110   25.7360 N.ar  108  HIS108     -0.2268
     27  CD2       63.4220 -158.4170   24.7470 C.ar  108  HIS108      0.1154
     28  CE1       63.7170 -156.3240   25.3320 C.ar  108  HIS108      0.1986
     29  NE2       62.8840 -157.1530   24.7300 N.ar  108  HIS108     -0.2212
     30  N         70.0730 -163.6940   18.7710 N.3   124  SER124     -0.1202
     31  CA        69.2060 -162.9270   19.6740 C.3   124  SER124      0.2020
     32  C         67.7280 -163.0960   19.3370 C.2   124  SER124      0.2619
     33  O         67.3640 -163.1950   18.1680 O.2   124  SER124     -0.2717
     34  CB        69.5830 -161.4480   19.6470 C.3   124  SER124      0.2103
     35  OG        69.3720 -160.8670   18.3700 O.3   124  SER124     -0.2182
     36  N         66.8940 -163.1000   20.3780 N.am  125  PHE125     -0.1961
     37  CA        65.4750 -163.4590   20.2780 C.3   125  PHE125      0.1771
     38  C         64.5940 -162.3590   20.8550 C.2   125  PHE125      0.2620
     39  O         65.0140 -161.6140   21.7460 O.2   125  PHE125     -0.2715
     40  CB        65.1740 -164.7550   21.0570 C.3   125  PHE125      0.0574
     41  CG        66.0540 -165.9220   20.6910 C.ar  125  PHE125     -0.0200
     42  CD1       67.3750 -165.9820   21.1230 C.ar  125  PHE125     -0.0042
     43  CD2       65.5520 -166.9780   19.9410 C.ar  125  PHE125     -0.0042
     44  CE1       68.1870 -167.0530   20.7890 C.ar  125  PHE125     -0.0003
     45  CE2       66.3600 -168.0550   19.6000 C.ar  125  PHE125     -0.0003
     46  CZ        67.6790 -168.0940   20.0290 C.ar  125  PHE125     -0.0000
     47  N         63.3670 -162.2740   20.3510 N.am  126  ASP126     -0.1958
     48  CA        62.3110 -161.5080   21.0060 C.3   126  ASP126      0.1825
     49  C         61.5920 -162.4360   22.0100 C.2   126  ASP126      0.2464
     50  O         61.9180 -163.6240   22.0900 O.2   126  ASP126     -0.2730
     51  CB        61.3800 -160.8460   19.9610 C.3   126  ASP126      0.1450
     52  CG        60.3580 -161.7990   19.3420 C.2   126  ASP126      0.3671
     53  OD1       60.4380 -163.0330   19.5290 O.co2 126  ASP126     -0.2456
     54  OD2       59.4640 -161.2900   18.6280 O.co2 126  ASP126     -0.2456
     55  N         60.6360 -161.9050   22.7950 N.am  127  PRO127     -0.2715
     56  CA        59.9640 -162.7390   23.8060 C.3   127  PRO127      0.1536
     57  C         59.1650 -163.9510   23.2950 C.2   127  PRO127      0.2598
     58  O         59.0000 -164.9300   24.0350 O.2   127  PRO127     -0.2715
     59  CB        59.0300 -161.7460   24.4980 C.3   127  PRO127      0.0310
     60  CG        59.7170 -160.4360   24.3470 C.3   127  PRO127      0.0237
     61  CD        60.3060 -160.4800   22.9730 C.3   127  PRO127      0.0939
     62  N         58.6870 -163.8920   22.0560 N.am  128  VAL128     -0.1978
     63  CA        57.8600 -164.9680   21.4920 C.3   128  VAL128      0.1596
     64  C         58.5780 -165.8040   20.4170 C.2   128  VAL128      0.2287
     65  O         57.9420 -166.6060   19.7380 O.2   128  VAL128     -0.2864
     66  CB        56.4900 -164.4480   20.9830 C.3   128  VAL128      0.0276
     67  CG1       55.6140 -164.0430   22.1620 C.3   128  VAL128      0.0022
     68  CG2       56.6450 -163.2920   20.0030 C.3   128  VAL128      0.0022
     69  N         61.0150 -165.0110   17.6910 N.3   130  SER130     -0.1202
     70  CA        61.6280 -164.5660   16.4260 C.3   130  SER130      0.2020
     71  C         63.1030 -164.3470   16.7010 C.2   130  SER130      0.2619
     72  O         63.4440 -163.7570   17.7150 O.2   130  SER130     -0.2717
     73  CB        60.9760 -163.2870   15.8800 C.3   130  SER130      0.2103
     74  OG        61.5580 -162.1150   16.4110 O.3   130  SER130     -0.2182
     75  N         63.9670 -164.8610   15.8310 N.am  131  TYR131     -0.1961
     76  CA        65.4130 -164.8100   16.0600 C.3   131  TYR131      0.1771
     77  C         66.2080 -164.4530   14.8150 C.2   131  TYR131      0.2619
     78  O         65.6810 -164.4320   13.7050 O.2   131  TYR131     -0.2715
     79  CB        65.9140 -166.1240   16.6810 C.3   131  TYR131      0.0574
     80  CG        66.0090 -167.3220   15.7560 C.ar  131  TYR131     -0.0198
     81  CD1       64.8910 -168.1160   15.4890 C.ar  131  TYR131     -0.0009
     82  CD2       67.2310 -167.6940   15.1840 C.ar  131  TYR131     -0.0009
     83  CE1       64.9830 -169.2270   14.6600 C.ar  131  TYR131      0.0417
     84  CE2       67.3290 -168.8050   14.3540 C.ar  131  TYR131      0.0417
     85  CZ        66.2010 -169.5650   14.0980 C.ar  131  TYR131      0.1957
     86  OH        66.2810 -170.6600   13.2780 O.3   131  TYR131     -0.2866
     87  N         67.4840 -164.1520   15.0350 N.am  132  GLU132     -0.1977
     88  CA        68.3940 -163.7120   13.9810 C.3   132  GLU132      0.1602
     89  C         69.8360 -163.8270   14.4740 C.2   132  GLU132      0.2287
     90  O         70.1210 -163.4980   15.6300 O.2   132  GLU132     -0.2864
     91  CB        68.0880 -162.2490   13.6200 C.3   132  GLU132      0.0415
     92  CG        68.9360 -161.6500   12.4930 C.3   132  GLU132      0.1163
     93  CD        68.9550 -160.1170   12.4600 C.2   132  GLU132      0.3649
     94  OE1       68.4110 -159.4490   13.3740 O.co2 132  GLU132     -0.2457
     95  OE2       69.5440 -159.5650   11.5050 O.co2 132  GLU132     -0.2457
     96  N         74.7230 -157.6200   19.5830 N.3   137  ARG137     -0.1245
     97  CA        73.4190 -157.3550   20.1870 C.3   137  ARG137      0.1563
     98  C         73.5330 -156.9640   21.6540 C.2   137  ARG137      0.2260
     99  O         74.3170 -157.5420   22.4050 O.2   137  ARG137     -0.2867
    100  CB        72.4820 -158.5640   20.0340 C.3   137  ARG137      0.0307
    101  CG        71.1180 -158.4300   20.7230 C.3   137  ARG137      0.0489
    102  CD        70.2570 -157.2960   20.1840 C.3   137  ARG137      0.2205
    103  NE        69.7600 -157.5340   18.8320 N.pl3 137  ARG137     -0.0865
    104  CZ        69.0570 -156.6570   18.1170 C.cat 137  ARG137      0.5346
    105  NH1       68.7540 -155.4570   18.6080 N.pl3 137  ARG137      0.1354
    106  NH2       68.6580 -156.9740   16.8920 N.pl3 137  ARG137      0.1354
@<TRIPOS>BOND
     1    95    93   ar
     2    93    92    1
     3    93    94   ar
     4    92    91    1
     5    86    85    1
     6    91    88    1
     7    78    77    2
     8    88    89    1
     9    88    87    1
    10    85    84   ar
    11    85    83   ar
    12    84    82   ar
    13    89    90    2
    14    83    81   ar
    15    77    87   am
    16    77    76    1
    17    82    80   ar
    18    81    80   ar
    19    80    79    1
    20    75    76    1
    21    75    71   am
    22    73    74    1
    23    73    70    1
    24    76    79    1
    25    70    71    1
    26    70    69    1
    27    71    72    2
    28   106   104    1
    29   104   105    1
    30   104   103    2
    31    33    32    2
    32    35    34    1
    33    54    52   ar
    34    30    31    1
    35   103   102    1
    36    32    31    1
    37    32    36   am
    38    52    53   ar
    39    52    51    1
    40    96    97    1
    41    45    43   ar
    42    45    46   ar
    43    34    31    1
    44    65    64    2
    45    43    41   ar
    46    51    48    1
    47    68    66    1
    48    46    44   ar
    49   100    97    1
    50   100   101    1
    51   102   101    1
    52    97    98    1
    53    37    36    1
    54    37    38    1
    55    37    40    1
    56    47    38   am
    57    47    48    1
    58    64    63    1
    59    41    40    1
    60    41    42   ar
    61    44    42   ar
    62    38    39    2
    63    66    63    1
    64    66    67    1
    65    48    49    1
    66    63    62    1
    67    98    99    2
    68    49    50    2
    69    49    55   am
    70    62    57   am
    71    55    61    1
    72    55    56    1
    73    61    60    1
    74    57    56    1
    75    57    58    2
    76    56    59    1
    77    60    59    1
    78    29    27   ar
    79    29    28   ar
    80    27    25   ar
    81    28    26   ar
    82    25    24    1
    83    25    26   ar
    84     6     5    1
    85     6     7    1
    86    24    21    1
    87    21    22    1
    88    21    20    1
    89    22    23    2
    90     5     2    1
    91     7     1    1
    92     2     1    1
    93     2     3    1
    94     3     4    2
    95    16    14   ar
    96    16    18   ar
    97    14    13   ar
    98     9    10    1
    99     9     8    1
   100     9    12    1
   101    19    18    1
   102    10    11    2
   103    18    17   ar
   104    13    12    1
   105    13    15   ar
   106    17    15   ar
