@<TRIPOS>MOLECULE
tmp/6h3kA00.pdb
 178 164 0 0 0
SMALL
GASTEIGER

@<TRIPOS>ATOM
      1  N          6.5700  -36.4030   -1.4820 N.3    14  LYS14      -0.1245
      2  CA         6.4630  -37.7670   -2.0190 C.3    14  LYS14       0.1561
      3  C          6.5480  -37.8000   -3.5470 C.2    14  LYS14       0.2260
      4  O          6.3450  -36.7730   -4.1960 O.2    14  LYS14      -0.2867
      5  CB         5.1840  -38.4860   -1.5190 C.3    14  LYS14       0.0271
      6  CG         3.8600  -37.8810   -1.9990 C.3    14  LYS14       0.0035
      7  CD         2.6670  -38.8030   -1.7430 C.3    14  LYS14       0.0206
      8  CE         2.4240  -39.7900   -2.8630 C.3    14  LYS14       0.1093
      9  NZ         1.2200  -40.6230   -2.6090 N.3    14  LYS14      -0.1314
     10  N          5.1010  -39.2730   -7.2140 N.3    16  ILE16      -0.1231
     11  CA         3.8370  -39.6620   -7.8480 C.3    16  ILE16       0.1692
     12  C          4.0630  -40.7570   -8.9160 C.2    16  ILE16       0.2592
     13  O          3.4160  -41.8030   -8.8550 O.2    16  ILE16      -0.2718
     14  CB         3.0510  -38.4150   -8.3810 C.3    16  ILE16       0.0266
     15  CG1        2.6890  -37.4440   -7.2230 C.3    16  ILE16       0.0019
     16  CG2        1.7930  -38.8220   -9.1700 C.3    16  ILE16       0.0020
     17  CD1        2.4130  -35.9860   -7.6220 C.3    16  ILE16       0.0001
     18  N          4.9710  -40.5090   -9.8630 N.am   17  GLY17      -0.1957
     19  CA         5.2650  -41.4520  -10.9400 C.3    17  GLY17       0.1869
     20  C          6.6510  -41.3550  -11.5490 C.2    17  GLY17       0.2309
     21  O          7.4670  -40.5300  -11.1250 O.2    17  GLY17      -0.2863
     22  N          7.8990  -37.4670  -11.2020 N.3    24  VAL24      -0.1245
     23  CA         6.9830  -36.4060  -10.7480 C.3    24  VAL24       0.1561
     24  C          6.9390  -36.4070   -9.2120 C.2    24  VAL24       0.2260
     25  O          6.7000  -37.4550   -8.6060 O.2    24  VAL24      -0.2867
     26  CB         5.5670  -36.4920  -11.4030 C.3    24  VAL24       0.0252
     27  CG1        4.5910  -35.4950  -10.7830 C.3    24  VAL24       0.0019
     28  CG2        5.6400  -36.2690  -12.9070 C.3    24  VAL24       0.0019
     29  N          5.5800  -34.2930   -5.4490 N.3    26  GLN26      -0.1245
     30  CA         4.6430  -33.4040   -4.7600 C.3    26  GLN26       0.1566
     31  C          5.5130  -32.5110   -3.8610 C.2    26  GLN26       0.2260
     32  O          6.2240  -33.0290   -2.9950 O.2    26  GLN26      -0.2867
     33  CB         3.6490  -34.2310   -3.9260 C.3    26  GLN26       0.0367
     34  CG         2.3520  -33.5060   -3.5840 C.3    26  GLN26       0.0905
     35  CD         1.5700  -34.2170   -2.5010 C.2    26  GLN26       0.2608
     36  OE1        1.3250  -33.6730   -1.4220 O.2    26  GLN26      -0.2717
     37  NE2        1.1640  -35.4540   -2.7540 N.am   26  GLN26      -0.0878
     38  N          1.2500  -25.7040   -2.3100 N.3    34  ILE34      -0.1245
     39  CA         1.4760  -26.9620   -3.0260 C.3    34  ILE34       0.1561
     40  C          1.6640  -26.7450   -4.5490 C.2    34  ILE34       0.2260
     41  O          1.0050  -25.8950   -5.1560 O.2    34  ILE34      -0.2867
     42  CB         0.3820  -28.0200   -2.6810 C.3    34  ILE34       0.0252
     43  CG1        0.8630  -29.4580   -2.9630 C.3    34  ILE34       0.0019
     44  CG2       -0.9700  -27.7260   -3.3440 C.3    34  ILE34       0.0019
     45  CD1        0.4580  -30.4630   -1.9280 C.3    34  ILE34       0.0001
     46  N          3.5550  -29.2140   -8.2240 N.3    36  ALA36      -0.1245
     47  CA         4.0550  -30.4870   -8.7360 C.3    36  ALA36       0.1562
     48  C          5.2970  -30.2200   -9.5880 C.2    36  ALA36       0.2260
     49  O          5.2730  -29.3340  -10.4490 O.2    36  ALA36      -0.2867
     50  CB         2.9830  -31.1850   -9.5590 C.3    36  ALA36       0.0290
     51  N          8.0640  -31.8410  -12.2210 N.3    38  LYS38      -0.1245
     52  CA         8.5120  -32.9280  -13.0810 C.3    38  LYS38       0.1561
     53  C         10.0260  -32.7770  -13.2660 C.2    38  LYS38       0.2260
     54  O         10.5080  -31.6970  -13.6250 O.2    38  LYS38      -0.2867
     55  CB         7.7880  -32.9340  -14.4320 C.3    38  LYS38       0.0271
     56  CG         8.0970  -34.1450  -15.3050 C.3    38  LYS38       0.0035
     57  CD         7.4460  -33.9980  -16.6650 C.3    38  LYS38       0.0206
     58  CE         7.7360  -35.1550  -17.5830 C.3    38  LYS38       0.1093
     59  NZ         7.1370  -34.9370  -18.9280 N.3    38  LYS38      -0.1314
     60  N         -2.9400  -28.2320  -18.2900 N.3    71  ILE71      -0.1245
     61  CA        -2.1990  -28.0760  -17.0280 C.3    71  ILE71       0.1561
     62  C         -1.3800  -26.7660  -16.9950 C.2    71  ILE71       0.2260
     63  O         -0.8410  -26.3460  -18.0210 O.2    71  ILE71      -0.2867
     64  CB        -1.3420  -29.3420  -16.7050 C.3    71  ILE71       0.0252
     65  CG1       -0.8690  -29.3490  -15.2220 C.3    71  ILE71       0.0019
     66  CG2       -0.1700  -29.5420  -17.7040 C.3    71  ILE71       0.0019
     67  CD1       -0.2960  -30.6520  -14.7000 C.3    71  ILE71       0.0001
     68  N          4.7380  -27.0510  -12.0170 N.3    87  MET87      -0.1230
     69  CA         3.3620  -27.1410  -12.4920 C.3    87  MET87       0.1702
     70  C          2.3750  -27.1700  -11.3280 C.2    87  MET87       0.2595
     71  O          2.7880  -27.3410  -10.1730 O.2    87  MET87      -0.2718
     72  CB         3.1870  -28.4010  -13.3500 C.3    87  MET87       0.0401
     73  CG         3.8460  -28.3010  -14.7040 C.3    87  MET87       0.0596
     74  SD         3.9450  -29.8830  -15.5690 S.3    87  MET87      -0.1393
     75  CE         5.1030  -30.7050  -14.5770 C.3    87  MET87       0.0692
     76  N          1.0680  -27.0110  -11.6300 N.am   88  GLU88      -0.1920
     77  CA         0.0140  -27.0780  -10.6210 C.3    88  GLU88       0.1949
     78  C         -0.1500  -28.5230  -10.1460 C.2    88  GLU88       0.2659
     79  O          0.1860  -29.4600  -10.8830 O.2    88  GLU88      -0.2711
     80  CB        -1.3180  -26.5010  -11.1460 C.2    88  GLU88       0.0111
     81  CG        -2.0500  -27.3740  -12.1550 C.2    88  GLU88       0.0838
     82  CD        -3.2940  -26.7620  -12.7640 C.2    88  GLU88       0.3877
     83  OE1       -3.3850  -26.7370  -14.0110 O.co2  88  GLU88      -0.2406
     84  OE2       -4.1790  -26.3110  -12.0020 O.co2  88  GLU88      -0.2406
     85  N         -0.6510  -28.6950   -8.9130 N.am   89  CYS89      -0.1951
     86  CA        -0.8740  -30.0130   -8.3490 C.3    89  CYS89       0.1843
     87  C         -2.3400  -30.4120   -8.4770 C.2    89  CYS89       0.2626
     88  O         -3.2330  -29.6500   -8.0860 O.2    89  CYS89      -0.2714
     89  CB        -0.3990  -30.0740   -6.9030 C.3    89  CYS89       0.0997
     90  SG        -0.1000  -31.7530   -6.2990 S.3    89  CYS89      -0.0797
     91  N         -2.5650  -31.5890   -9.0560 N.am   90  GLY90      -0.1940
     92  CA        -3.8900  -32.1690   -9.2290 C.3    90  GLY90       0.2014
     93  C         -4.2620  -33.0670   -8.0680 C.2    90  GLY90       0.2639
     94  O         -3.4000  -33.4450   -7.2700 O.2    90  GLY90      -0.2714
     95  N         -5.5530  -33.4010   -7.9570 N.am   91  ASN91      -0.1958
     96  CA        -6.0740  -34.2520   -6.8880 C.3    91  ASN91       0.1819
     97  C         -5.7370  -35.7260   -7.1450 C.2    91  ASN91       0.2621
     98  O         -5.3280  -36.4280   -6.2160 O.2    91  ASN91      -0.2715
     99  CB        -7.5900  -34.0600   -6.7400 C.3    91  ASN91       0.1195
    100  CG        -8.0010  -32.6740   -6.3040 C.2    91  ASN91       0.2630
    101  OD1       -8.1210  -31.7440   -7.1100 O.2    91  ASN91      -0.2716
    102  ND2       -8.2430  -32.5080   -5.0120 N.am   91  ASN91      -0.0877
    103  N         -5.9160  -36.1820   -8.4100 N.am   92  ILE92      -0.1963
    104  CA        -5.7090  -37.5530   -8.9070 C.3    92  ILE92       0.1727
    105  C         -5.7500  -37.5540  -10.4570 C.2    92  ILE92       0.2616
    106  O         -6.3180  -36.6300  -11.0460 O.2    92  ILE92      -0.2715
    107  CB        -6.7910  -38.5210   -8.2920 C.3    92  ILE92       0.0290
    108  CG1       -6.4640  -40.0140   -8.5540 C.3    92  ILE92       0.0022
    109  CG2       -8.2280  -38.1630   -8.7330 C.3    92  ILE92       0.0023
    110  CD1       -7.1570  -41.0150   -7.6360 C.3    92  ILE92       0.0001
    111  N         -5.1670  -38.5880  -11.1080 N.am   93  ASP93      -0.1971
    112  CA        -5.2570  -38.7430  -12.5620 C.3    93  ASP93       0.1709
    113  C         -6.5770  -39.4770  -12.8780 C.2    93  ASP93       0.2293
    114  O         -7.1580  -40.0840  -11.9740 O.2    93  ASP93      -0.2864
    115  CB        -4.0190  -39.4470  -13.1620 C.3    93  ASP93       0.1436
    116  CG        -3.8140  -40.8880  -12.7480 C.2    93  ASP93       0.3671
    117  OD1       -3.2460  -41.1150  -11.6640 O.co2  93  ASP93      -0.2456
    118  OD2       -4.1920  -41.7880  -13.5280 O.co2  93  ASP93      -0.2456
    119  N         -6.4520  -43.6170  -12.3300 N.3    96  SER96      -0.1217
    120  CA        -6.4320  -44.0010  -10.9130 C.3    96  SER96       0.1889
    121  C         -7.8010  -43.7700  -10.2680 C.2    96  SER96       0.2288
    122  O         -8.2120  -44.5470   -9.4010 O.2    96  SER96      -0.2866
    123  CB        -5.3560  -43.2240  -10.1610 C.3    96  SER96       0.2089
    124  OG        -4.0490  -43.5980  -10.5630 O.3    96  SER96      -0.2183
    125  N        -10.6540  -46.9570   -9.0050 N.3   100  LYS100     -0.1245
    126  CA       -11.1920  -46.8800   -7.6470 C.3   100  LYS100      0.1561
    127  C        -12.7190  -46.7070   -7.6310 C.2   100  LYS100      0.2260
    128  O        -13.4000  -47.4240   -6.8930 O.2   100  LYS100     -0.2867
    129  CB       -10.5000  -45.7620   -6.8480 C.3   100  LYS100      0.0271
    130  CG        -9.1250  -46.1750   -6.4100 C.3   100  LYS100      0.0035
    131  CD        -8.3200  -45.0030   -5.9250 C.3   100  LYS100      0.0206
    132  CE        -6.8960  -45.4460   -5.6200 C.3   100  LYS100      0.1093
    133  NZ        -6.3080  -46.2490   -6.7420 N.3   100  LYS100     -0.1314
    134  N         -4.8260  -41.7170  -18.2450 N.3   136  ALA136     -0.1245
    135  CA        -3.6350  -41.2170  -17.5430 C.3   136  ALA136      0.1562
    136  C         -3.1110  -39.8500  -18.0510 C.2   136  ALA136      0.2260
    137  O         -2.3480  -39.1910  -17.3380 O.2   136  ALA136     -0.2867
    138  CB        -2.5290  -42.2570  -17.5950 C.3   136  ALA136      0.0290
    139  N         -5.8430  -35.0540  -15.9190 N.3   139  LEU139     -0.1245
    140  CA        -5.7340  -34.7820  -14.4840 C.3   139  LEU139      0.1561
    141  C         -6.9790  -34.0660  -13.9440 C.2   139  LEU139      0.2260
    142  O         -7.4660  -33.1200  -14.5730 O.2   139  LEU139     -0.2867
    143  CB        -4.4760  -33.9270  -14.2380 C.3   139  LEU139      0.0270
    144  CG        -4.0730  -33.5780  -12.8020 C.3   139  LEU139      0.0019
    145  CD1       -3.5870  -34.8010  -12.0310 C.3   139  LEU139      0.0001
    146  CD2       -2.9880  -32.5410  -12.8100 C.3   139  LEU139      0.0001
    147  N         -2.5510  -33.2650  -19.4550 N.3   148  ILE148     -0.1245
    148  CA        -1.1890  -33.3110  -18.9020 C.3   148  ILE148      0.1561
    149  C         -0.1080  -33.1500  -19.9770 C.2   148  ILE148      0.2260
    150  O          0.7540  -32.2800  -19.8280 O.2   148  ILE148     -0.2867
    151  CB        -0.9640  -34.5990  -18.0330 C.3   148  ILE148      0.0252
    152  CG1       -1.7970  -34.5800  -16.7390 C.3   148  ILE148      0.0019
    153  CG2        0.5170  -34.8430  -17.7200 C.3   148  ILE148      0.0019
    154  CD1       -1.9820  -35.9790  -16.0670 C.3   148  ILE148      0.0001
    155  N          4.7180  -41.5220  -19.4030 N.3   156  MET156     -0.1230
    156  CA         4.9850  -41.8770  -18.0000 C.3   156  MET156      0.1702
    157  C          3.9630  -42.8760  -17.4280 C.2   156  MET156      0.2592
    158  O          2.8280  -42.9420  -17.9070 O.2   156  MET156     -0.2718
    159  CB         5.0240  -40.6150  -17.1200 C.3   156  MET156      0.0401
    160  CG         6.2930  -39.8040  -17.2670 C.3   156  MET156      0.0596
    161  SD         6.3500  -38.4060  -16.1260 S.3   156  MET156     -0.1393
    162  CE         6.9790  -39.1920  -14.6960 C.3   156  MET156      0.0692
    163  N          4.3700  -43.6280  -16.3810 N.am  157  GLN157     -0.1966
    164  CA         3.5440  -44.6230  -15.6880 C.3   157  GLN157      0.1718
    165  C          3.4990  -44.3590  -14.1650 C.2   157  GLN157      0.2458
    166  O          4.5320  -43.9970  -13.5940 O.2   157  GLN157     -0.2730
    167  CB         4.0580  -46.0410  -15.9740 C.3   157  GLN157      0.0407
    168  CG         3.9620  -46.5090  -17.4240 C.3   157  GLN157      0.0908
    169  CD         2.5510  -46.4650  -17.9510 C.2   157  GLN157      0.2608
    170  OE1        1.6460  -47.0270  -17.3040 O.2   157  GLN157     -0.2717
    171  NE2        2.3130  -45.7380  -18.9970 N.am  157  GLN157     -0.0878
    172  N          2.3340  -44.5390  -13.4840 N.am  158  PRO158     -0.2727
    173  CA         2.2800  -44.2690  -12.0320 C.3   158  PRO158      0.1402
    174  C          3.0360  -45.2870  -11.1810 C.2   158  PRO158      0.2269
    175  O          3.1170  -46.4600  -11.5320 O.2   158  PRO158     -0.2865
    176  CB         0.7750  -44.2750  -11.7140 C.3   158  PRO158      0.0296
    177  CG         0.0730  -44.2800  -13.0430 C.3   158  PRO158      0.0237
    178  CD         1.0110  -44.9510  -13.9910 C.3   158  PRO158      0.0939
@<TRIPOS>BOND
     1   149   150    2
     2   149   148    1
     3   147   148    1
     4   155   156    1
     5   171   169   am
     6    59    58    1
     7   148   151    1
     8    60    61    1
     9   134   135    1
    10   136   135    1
    11   136   137    2
    12   151   153    1
    13   151   152    1
    14    63    62    2
    15   156   157    1
    16   156   159    1
    17   169   168    1
    18   169   170    2
    19   158   157    2
    20    66    64    1
    21   138   135    1
    22    58    57    1
    23   157   163   am
    24   168   167    1
    25   160   159    1
    26   160   161    1
    27    61    62    1
    28    61    64    1
    29   152   154    1
    30    64    65    1
    31    57    56    1
    32   163   164    1
    33   161   162    1
    34   167   164    1
    35   139   140    1
    36   164   165    1
    37    74    73    1
    38    74    75    1
    39    56    55    1
    40    65    67    1
    41    73    72    1
    42   142   141    2
    43   140   143    1
    44   140   141    1
    45    55    52    1
    46   143   144    1
    47   165   166    2
    48   165   172   am
    49    83    82   ar
    50   178   172    1
    51   178   177    1
    52    54    53    2
    53   118   116   ar
    54   172   173    1
    55    72    69    1
    56    53    52    1
    57   115   116    1
    58   115   112    1
    59    52    51    1
    60   177   176    1
    61    28    26    1
    62   113   112    1
    63   113   114    2
    64   146   144    1
    65   144   145    1
    66    82    81    1
    67    82    84   ar
    68   116   117   ar
    69   112   111    1
    70    69    68    1
    71    69    70    1
    72   119   120    1
    73    81    80    2
    74   173   176    1
    75   173   174    1
    76    76    70   am
    77    76    77    1
    78    20    21    2
    79    20    19    1
    80   175   174    2
    81    26    27    1
    82    26    23    1
    83    70    71    2
    84    22    23    1
    85    80    77    1
    86   111   105   am
    87   106   105    2
    88    19    18    1
    89   120   121    1
    90   120   123    1
    91    79    78    2
    92    23    24    1
    93    77    78    1
    94   124   123    1
    95   105   104    1
    96    49    48    2
    97   121   122    2
    98    78    85   am
    99    18    12   am
   100    48    47    1
   101    50    47    1
   102    92    91    1
   103    92    93    1
   104    24    25    2
   105    16    14    1
   106    91    87   am
   107   125   126    1
   108    12    13    2
   109    12    11    1
   110    85    86    1
   111   104   103    1
   112   104   107    1
   113    47    46    1
   114   109   107    1
   115   108   107    1
   116   108   110    1
   117    87    86    1
   118    87    88    2
   119   103    97   am
   120    14    11    1
   121    14    15    1
   122    86    89    1
   123    93    95   am
   124    93    94    2
   125    95    96    1
   126    11    10    1
   127   126   127    1
   128   126   129    1
   129   127   128    2
   130    17    15    1
   131    97    96    1
   132    97    98    2
   133   101   100    2
   134    89    90    1
   135    96    99    1
   136   129   130    1
   137   133   132    1
   138    99   100    1
   139   130   131    1
   140   100   102   am
   141   131   132    1
   142    29    30    1
   143    41    40    2
   144    30    33    1
   145    30    31    1
   146    40    39    1
   147     4     3    2
   148    33    34    1
   149    31    32    2
   150    34    35    1
   151     3     2    1
   152    44    42    1
   153    39    42    1
   154    39    38    1
   155    43    42    1
   156    43    45    1
   157     8     9    1
   158     8     7    1
   159    37    35   am
   160    35    36    2
   161     2     5    1
   162     2     1    1
   163     6     7    1
   164     6     5    1
