@<TRIPOS>MOLECULE
tmp/6h3wA00.pdb
 81 79 0 0 0
SMALL
GASTEIGER

@<TRIPOS>ATOM
      1  N         24.7290   22.0220  117.8420 N.3     2  GLY2       -0.1210
      2  CA        24.1150   22.5980  116.6570 C.3     2  GLY2        0.1956
      3  C         24.3690   21.7330  115.4410 C.2     2  GLY2        0.2612
      4  O         25.1900   20.8130  115.4660 O.2     2  GLY2       -0.2717
      5  N         23.6610   22.0450  114.3620 N.am    3  GLY3       -0.1942
      6  CA        23.7660   21.2900  113.1210 C.3     3  GLY3        0.2014
      7  C         24.2580   22.1320  111.9600 C.2     3  GLY3        0.2638
      8  O         23.8770   23.2940  111.8230 O.2     3  GLY3       -0.2714
      9  N         25.1060   21.5360  111.1230 N.am    4  ASP4       -0.1971
     10  CA        25.5460   22.1930  109.8990 C.3     4  ASP4        0.1709
     11  C         24.5340   21.9590  108.7890 C.2     4  ASP4        0.2293
     12  O         23.9030   20.9050  108.7150 O.2     4  ASP4       -0.2864
     13  CB        26.9160   21.6810  109.4610 C.3     4  ASP4        0.1436
     14  CG        27.9940   22.0120  110.4620 C.2     4  ASP4        0.3671
     15  OD1       28.1100   23.2020  110.8480 O.co2   4  ASP4       -0.2456
     16  OD2       28.7050   21.0730  110.8870 O.co2   4  ASP4       -0.2456
     17  N         25.4820   19.0660  106.2440 N.3     7  THR7       -0.1203
     18  CA        25.3380   17.8360  107.0160 C.3     7  THR7        0.1994
     19  C         23.8690   17.5140  107.2630 C.2     7  THR7        0.2618
     20  O         23.4610   16.3530  107.1720 O.2     7  THR7       -0.2717
     21  CB        26.0920   17.9520  108.3430 C.3     7  THR7        0.1784
     22  OG1       27.3840   18.5310  108.1160 O.3     7  THR7       -0.2211
     23  CG2       26.2810   16.5850  108.9720 C.3     7  THR7        0.0376
     24  N         23.0520   18.5390  107.5530 N.am    8  CYS8       -0.1969
     25  CA        21.6200   18.3120  107.7230 C.3     8  CYS8        0.1712
     26  C         20.9730   17.8420  106.4240 C.2     8  CYS8        0.2296
     27  O         20.0730   16.9880  106.4380 O.2     8  CYS8       -0.2864
     28  CB        20.9400   19.5830  108.2340 C.3     8  CYS8        0.0983
     29  SG        21.0990   19.8290  110.0350 S.3     8  CYS8       -0.0798
     30  N         21.0600   14.0890  106.0540 N.3    11  THR11      -0.1218
     31  CA        20.3060   13.2070  106.9370 C.3    11  THR11       0.1862
     32  C         18.8970   12.9600  106.4000 C.2    11  THR11       0.2287
     33  O         18.3230   13.7910  105.6930 O.2    11  THR11      -0.2866
     34  CB        20.2340   13.8000  108.3430 C.3    11  THR11       0.1770
     35  OG1       19.4060   14.9660  108.3230 O.3    11  THR11      -0.2211
     36  CG2       21.6270   14.1950  108.8220 C.3    11  THR11       0.0375
     37  N         15.5940   16.0180  112.9000 N.3    15  ASN15      -0.1225
     38  CA        16.0750   15.8170  114.2550 C.3    15  ASN15       0.1785
     39  C         16.3000   17.1930  114.8670 C.2    15  ASN15       0.2597
     40  O         16.2150   18.2210  114.1830 O.2    15  ASN15      -0.2718
     41  CB        17.3630   14.9730  114.2790 C.3    15  ASN15       0.1169
     42  CG        17.6120   14.3130  115.6230 C.2    15  ASN15       0.2627
     43  OD1       16.8070   14.4160  116.5430 O.2    15  ASN15      -0.2716
     44  ND2       18.7280   13.6220  115.7370 N.am   15  ASN15      -0.0877
     45  N         16.6070   17.2030  116.1650 N.am   16  TRP16      -0.1962
     46  CA        16.6430   18.4610  116.9050 C.3    16  TRP16       0.1771
     47  C         17.7040   19.4110  116.3580 C.2    16  TRP16       0.2620
     48  O         17.4780   20.6280  116.2860 O.2    16  TRP16      -0.2715
     49  CB        16.8950   18.1920  118.3910 C.3    16  TRP16       0.0590
     50  CG        18.2510   17.6300  118.6550 C.ar   16  TRP16       0.0006
     51  CD1       18.5880   16.3140  118.7070 C.ar   16  TRP16       0.0946
     52  CD2       19.4620   18.3620  118.8870 C.ar   16  TRP16       0.0152
     53  NE1       19.9300   16.1730  118.9530 N.ar   16  TRP16      -0.2442
     54  CE2       20.4940   17.4140  119.0680 C.ar   16  TRP16       0.0810
     55  CE3       19.7730   19.7240  118.9620 C.ar   16  TRP16       0.0012
     56  CZ2       21.8130   17.7820  119.3290 C.ar   16  TRP16       0.0191
     57  CZ3       21.0810   20.0940  119.2210 C.ar   16  TRP16       0.0001
     58  CH2       22.0910   19.1250  119.4010 C.ar   16  TRP16       0.0015
     59  N         18.8770   18.8870  116.0020 N.am   17  ASN17      -0.1958
     60  CA        19.9490   19.7740  115.5690 C.3    17  ASN17       0.1819
     61  C         19.7720   20.2500  114.1420 C.2    17  ASN17       0.2621
     62  O         20.6280   20.9820  113.6420 O.2    17  ASN17      -0.2715
     63  CB        21.3210   19.1120  115.7190 C.3    17  ASN17       0.1195
     64  CG        21.3040   17.6220  115.4180 C.2    17  ASN17       0.2630
     65  OD1       20.3250   17.0680  114.9190 O.2    17  ASN17      -0.2716
     66  ND2       22.4070   16.9710  115.7170 N.am   17  ASN17      -0.0877
     67  N         18.6970   19.8610  113.4710 N.am   18  CYS18      -0.1968
     68  CA        18.3900   20.3950  112.1560 C.3    18  CYS18       0.1712
     69  C         17.1160   21.2300  112.1860 C.2    18  CYS18       0.2296
     70  O         16.4240   21.3530  111.1760 O.2    18  CYS18      -0.2864
     71  CB        18.2850   19.2710  111.1190 C.3    18  CYS18       0.0983
     72  SG        19.8460   18.3920  110.7930 S.3    18  CYS18      -0.0798
     73  N         16.2450   21.1250  125.5160 N.3   203  LYS203     -0.1245
     74  CA        17.3620   21.6750  124.7410 C.3   203  LYS203      0.1561
     75  C         17.1410   23.1430  124.3880 C.2   203  LYS203      0.2260
     76  O         18.0970   23.9290  124.3200 O.2   203  LYS203     -0.2867
     77  CB        17.5660   20.8810  123.4620 C.3   203  LYS203      0.0271
     78  CG        18.2550   19.5690  123.6670 C.3   203  LYS203      0.0035
     79  CD        18.3030   18.8280  122.3630 C.3   203  LYS203      0.0206
     80  CE        19.5660   18.0110  122.2840 C.3   203  LYS203      0.1093
     81  NZ        19.2350   16.6290  121.9320 N.3   203  LYS203     -0.1314
@<TRIPOS>BOND
     1    33    32    2
     2    30    31    1
     3    17    18    1
     4    32    31    1
     5    26    27    2
     6    26    25    1
     7    31    34    1
     8    18    19    1
     9    18    21    1
    10    20    19    2
    11    19    24   am
    12    24    25    1
    13    25    28    1
    14    22    21    1
    15    28    29    1
    16    35    34    1
    17    21    23    1
    18    34    36    1
    19    12    11    2
    20    11    10    1
    21    13    10    1
    22    13    14    1
    23    10     9    1
    24    29    72    1
    25    14    15   ar
    26    14    16   ar
    27    72    71    1
    28    71    68    1
    29     9     7   am
    30    70    69    2
    31     8     7    2
    32     7     6    1
    33    68    69    1
    34    68    67    1
    35    37    38    1
    36     6     5    1
    37    67    61   am
    38    62    61    2
    39    61    60    1
    40    40    39    2
    41    38    41    1
    42    38    39    1
    43    41    42    1
    44     5     3   am
    45    39    45   am
    46    65    64    2
    47    64    66   am
    48    64    63    1
    49     3     4    2
    50     3     2    1
    51    60    63    1
    52    60    59    1
    53    42    44   am
    54    42    43    2
    55    59    47   am
    56    45    46    1
    57    48    47    2
    58    47    46    1
    59     2     1    1
    60    46    49    1
    61    49    50    1
    62    50    51   ar
    63    50    52   ar
    64    51    53   ar
    65    52    55   ar
    66    52    54   ar
    67    53    54   ar
    68    55    57   ar
    69    54    56   ar
    70    57    58   ar
    71    56    58   ar
    72    81    80    1
    73    80    79    1
    74    79    78    1
    75    77    78    1
    76    77    74    1
    77    76    75    2
    78    75    74    1
    79    74    73    1
