@<TRIPOS>MOLECULE
tmp/6h44B00.pdb
 150 150 0 0 0
SMALL
GASTEIGER

@<TRIPOS>ATOM
      1  N         -4.6390  -84.1190  -24.6730 N.3    51  VAL51      -0.1231
      2  CA        -3.5640  -83.1540  -24.4950 C.3    51  VAL51       0.1678
      3  C         -3.4290  -82.8010  -23.0140 C.2    51  VAL51       0.2434
      4  O         -4.3850  -82.9050  -22.2500 O.2    51  VAL51      -0.2733
      5  CB        -3.7870  -81.9150  -25.3800 C.3    51  VAL51       0.0265
      6  CG1       -3.8940  -82.3120  -26.8410 C.3    51  VAL51       0.0020
      7  CG2       -5.0030  -81.0950  -24.9510 C.3    51  VAL51       0.0020
      8  N         -2.2270  -82.3690  -22.5690 N.am   52  PRO52      -0.2729
      9  CA        -1.9160  -82.1560  -21.1560 C.3    52  PRO52       0.1401
     10  C         -2.8640  -81.3060  -20.2960 C.2    52  PRO52       0.2269
     11  O         -2.8820  -81.4870  -19.0750 O.2    52  PRO52      -0.2865
     12  CB        -0.5780  -81.3970  -21.1860 C.3    52  PRO52       0.0296
     13  CG         0.0660  -81.8560  -22.4550 C.3    52  PRO52       0.0237
     14  CD        -1.0710  -82.0940  -23.4260 C.3    52  PRO52       0.0939
     15  N          0.9580  -90.4580  -22.8010 N.3    78  LYS78      -0.1245
     16  CA         1.2410  -89.8590  -24.1250 C.3    78  LYS78       0.1561
     17  C          2.2070  -88.6750  -23.9590 C.2    78  LYS78       0.2260
     18  O          1.9620  -87.7690  -23.1540 O.2    78  LYS78      -0.2867
     19  CB        -0.0360  -89.3500  -24.7980 C.3    78  LYS78       0.0271
     20  CG         0.1600  -88.7670  -26.1930 C.3    78  LYS78       0.0035
     21  CD        -1.0730  -88.0790  -26.7300 C.3    78  LYS78       0.0206
     22  CE        -0.8540  -87.3630  -28.0480 C.3    78  LYS78       0.1093
     23  NZ        -2.0080  -86.4890  -28.3710 N.3    78  LYS78      -0.1314
     24  N          2.6030  -87.1890  -30.5390 N.3    81  VAL81      -0.1245
     25  CA         2.1990  -87.9210  -31.6960 C.3    81  VAL81       0.1561
     26  C          3.4750  -88.1560  -32.5180 C.2    81  VAL81       0.2260
     27  O          4.2310  -87.2270  -32.7810 O.2    81  VAL81      -0.2867
     28  CB         1.1230  -87.1670  -32.5000 C.3    81  VAL81       0.0252
     29  CG1        0.7300  -87.9000  -33.7720 C.3    81  VAL81       0.0019
     30  CG2       -0.1090  -86.8770  -31.6560 C.3    81  VAL81       0.0019
     31  N          6.0030  -85.0510  -32.5360 N.3   109  HIS109     -0.1227
     32  CA         5.3150  -83.8270  -32.1640 C.3   109  HIS109      0.1737
     33  C          5.0740  -83.8950  -30.6630 C.2   109  HIS109      0.2438
     34  O          4.0030  -84.3040  -30.2290 O.2   109  HIS109     -0.2733
     35  CB         4.0300  -83.6800  -32.9980 C.3   109  HIS109      0.0758
     36  CG         3.2990  -82.3950  -32.8050 C.ar  109  HIS109      0.0818
     37  ND1        1.9560  -82.2670  -33.0970 N.ar  109  HIS109     -0.2268
     38  CD2        3.7050  -81.1840  -32.3570 C.ar  109  HIS109      0.1154
     39  CE1        1.5780  -81.0230  -32.8550 C.ar  109  HIS109      0.1986
     40  NE2        2.6250  -80.3400  -32.4020 N.ar  109  HIS109     -0.2212
     41  N          6.0710  -83.5680  -29.8120 N.am  110  PRO110     -0.2718
     42  CA         5.8880  -83.6140  -28.3640 C.3   110  PRO110      0.1535
     43  C          5.2320  -82.3320  -27.8190 C.2   110  PRO110      0.2599
     44  O          5.0950  -81.3230  -28.5440 O.2   110  PRO110     -0.2715
     45  CB         7.3200  -83.7530  -27.8130 C.3   110  PRO110      0.0310
     46  CG         8.2410  -83.7050  -29.0240 C.3   110  PRO110      0.0237
     47  CD         7.4270  -83.1240  -30.1670 C.3   110  PRO110      0.0939
     48  N          4.8530  -82.3890  -26.5410 N.am  111  PHE111     -0.1960
     49  CA         4.2630  -81.2700  -25.8310 C.3   111  PHE111      0.1771
     50  C          5.3790  -80.3670  -25.2940 C.2   111  PHE111      0.2620
     51  O          6.5570  -80.5490  -25.5910 O.2   111  PHE111     -0.2715
     52  CB         3.3520  -81.7880  -24.7080 C.3   111  PHE111      0.0574
     53  CG         2.3140  -82.7790  -25.1580 C.ar  111  PHE111     -0.0200
     54  CD1        1.3580  -82.4230  -26.0990 C.ar  111  PHE111     -0.0042
     55  CD2        2.2760  -84.0640  -24.6300 C.ar  111  PHE111     -0.0042
     56  CE1        0.3990  -83.3350  -26.5110 C.ar  111  PHE111     -0.0003
     57  CE2        1.3160  -84.9760  -25.0450 C.ar  111  PHE111     -0.0003
     58  CZ         0.3830  -84.6120  -25.9870 C.ar  111  PHE111     -0.0000
     59  N          4.9860  -79.3790  -24.4960 N.am  112  GLY112     -0.1940
     60  CA         5.9010  -78.4290  -23.8980 C.3   112  GLY112      0.2014
     61  C          6.2640  -77.3130  -24.8560 C.2   112  GLY112      0.2638
     62  O          5.8430  -77.3020  -26.0000 O.2   112  GLY112     -0.2714
     63  N          7.0360  -76.3610  -24.3380 N.am  113  LEU113     -0.1977
     64  CA         7.4500  -75.1780  -25.0380 C.3   113  LEU113      0.1596
     65  C          8.9820  -75.1980  -25.1330 C.2   113  LEU113      0.2287
     66  O          9.6790  -75.6160  -24.1990 O.2   113  LEU113     -0.2864
     67  CB         6.9600  -73.9560  -24.2510 C.3   113  LEU113      0.0297
     68  CG         5.4570  -73.8380  -24.0000 C.3   113  LEU113      0.0022
     69  CD1        5.1510  -72.6240  -23.1410 C.3   113  LEU113      0.0001
     70  CD2        4.6740  -73.7550  -25.2960 C.3   113  LEU113      0.0001
     71  N         -4.1690  -84.9280  -34.8030 N.3   357  GLU357     -0.1245
     72  CA        -3.4700  -84.2440  -33.7250 C.3   357  GLU357      0.1567
     73  C         -4.3730  -84.1900  -32.4880 C.2   357  GLU357      0.2260
     74  O         -4.3650  -83.2040  -31.7480 O.2   357  GLU357     -0.2867
     75  CB        -3.0190  -82.8460  -34.1690 C.3   357  GLU357      0.0388
     76  CG        -1.9190  -82.8410  -35.2270 C.3   357  GLU357      0.1160
     77  CD        -0.5170  -83.2610  -34.7850 C.2   357  GLU357      0.3649
     78  OE1       -0.3690  -83.7580  -33.6580 O.co2 357  GLU357     -0.2457
     79  OE2        0.4440  -83.0650  -35.5830 O.co2 357  GLU357     -0.2457
     80  N          1.2460  -71.5920  -19.1170 N.3   453  TYR453     -0.1227
     81  CA         0.6350  -72.1370  -20.3500 C.3   453  TYR453      0.1736
     82  C         -0.3190  -73.2880  -20.0050 C.2   453  TYR453      0.2595
     83  O         -1.4380  -73.3580  -20.5270 O.2   453  TYR453     -0.2718
     84  CB         1.7320  -72.6100  -21.3160 C.3   453  TYR453      0.0548
     85  CG         1.2810  -72.9830  -22.7110 C.ar  453  TYR453     -0.0200
     86  CD1        1.0130  -72.0270  -23.6810 C.ar  453  TYR453     -0.0009
     87  CD2        1.1610  -74.3100  -23.0750 C.ar  453  TYR453     -0.0009
     88  CE1        0.6100  -72.3850  -24.9610 C.ar  453  TYR453      0.0417
     89  CE2        0.7580  -74.6890  -24.3470 C.ar  453  TYR453      0.0417
     90  CZ         0.4880  -73.7260  -25.2960 C.ar  453  TYR453      0.1957
     91  OH         0.0620  -74.1440  -26.5240 O.3   453  TYR453     -0.2866
     92  N          0.1340  -74.1920  -19.1310 N.am  454  TYR454     -0.1976
     93  CA        -0.6450  -75.4080  -18.7780 C.3   454  TYR454      0.1639
     94  C         -1.4930  -75.1870  -17.5140 C.2   454  TYR454      0.2290
     95  O         -2.3670  -76.0100  -17.2450 O.2   454  TYR454     -0.2864
     96  CB         0.2640  -76.6310  -18.6380 C.3   454  TYR454      0.0560
     97  CG         0.8300  -77.1140  -19.9490 C.ar  454  TYR454     -0.0198
     98  CD1       -0.0030  -77.4030  -21.0130 C.ar  454  TYR454     -0.0009
     99  CD2        2.1980  -77.2560  -20.1370 C.ar  454  TYR454     -0.0009
    100  CE1        0.5020  -77.8550  -22.2210 C.ar  454  TYR454      0.0417
    101  CE2        2.7220  -77.7000  -21.3400 C.ar  454  TYR454      0.0417
    102  CZ         1.8690  -78.0010  -22.3840 C.ar  454  TYR454      0.1957
    103  OH         2.3670  -78.4170  -23.5790 O.3   454  TYR454     -0.2866
    104  N         -3.2720  -71.0230  -23.1100 N.3   460  GLU460     -0.1245
    105  CA        -3.0300  -72.0520  -24.1280 C.3   460  GLU460      0.1567
    106  C         -4.0120  -71.8800  -25.3040 C.2   460  GLU460      0.2260
    107  O         -3.6480  -72.0670  -26.4680 O.2   460  GLU460     -0.2867
    108  CB        -3.1380  -73.4480  -23.5130 C.3   460  GLU460      0.0388
    109  CG        -3.0580  -74.5720  -24.5300 C.3   460  GLU460      0.1160
    110  CD        -3.2560  -75.9760  -23.9750 C.2   460  GLU460      0.3649
    111  OE1       -3.8330  -76.1210  -22.8440 O.co2 460  GLU460     -0.2457
    112  OE2       -2.8300  -76.9270  -24.6820 O.co2 460  GLU460     -0.2457
    113  N         -2.4080  -72.1000  -29.3150 N.3   464  PHE464     -0.1227
    114  CA        -2.5690  -73.5510  -29.1210 C.3   464  PHE464      0.1736
    115  C         -1.4900  -74.3270  -29.8890 C.2   464  PHE464      0.2595
    116  O         -0.8300  -75.1920  -29.3290 O.2   464  PHE464     -0.2718
    117  CB        -3.9670  -74.0400  -29.4980 C.3   464  PHE464      0.0547
    118  CG        -4.1880  -75.4890  -29.1380 C.ar  464  PHE464     -0.0202
    119  CD1       -4.5040  -75.8610  -27.8370 C.ar  464  PHE464     -0.0042
    120  CD2       -4.0220  -76.4950  -30.0790 C.ar  464  PHE464     -0.0042
    121  CE1       -4.6690  -77.1990  -27.4980 C.ar  464  PHE464     -0.0003
    122  CE2       -4.1960  -77.8290  -29.7380 C.ar  464  PHE464     -0.0003
    123  CZ        -4.5130  -78.1830  -28.4490 C.ar  464  PHE464     -0.0000
    124  N         -1.3480  -74.0320  -31.1800 N.am  465  TRP465     -0.1962
    125  CA        -0.2130  -74.5120  -31.9910 C.3   465  TRP465      0.1771
    126  C          0.8890  -73.4550  -31.9550 C.2   465  TRP465      0.2620
    127  O          0.7850  -72.4610  -32.6710 O.2   465  TRP465     -0.2715
    128  CB        -0.6370  -74.8020  -33.4320 C.3   465  TRP465      0.0590
    129  CG        -1.7850  -75.7550  -33.5360 C.ar  465  TRP465      0.0006
    130  CD1       -2.9980  -75.5240  -34.1170 C.ar  465  TRP465      0.0946
    131  CD2       -1.8380  -77.0990  -33.0240 C.ar  465  TRP465      0.0152
    132  NE1       -3.7910  -76.6360  -34.0090 N.ar  465  TRP465     -0.2442
    133  CE2       -3.1080  -77.6190  -33.3510 C.ar  465  TRP465      0.0810
    134  CE3       -0.9330  -77.9200  -32.3470 C.ar  465  TRP465      0.0012
    135  CZ2       -3.4950  -78.9140  -33.0280 C.ar  465  TRP465      0.0191
    136  CZ3       -1.3210  -79.1980  -32.0190 C.ar  465  TRP465      0.0001
    137  CH2       -2.5830  -79.6840  -32.3460 C.ar  465  TRP465      0.0015
    138  N          1.9020  -73.6740  -31.1060 N.am  466  THR466     -0.1951
    139  CA         3.0100  -72.7300  -30.9210 C.3   466  THR466      0.1897
    140  C          4.0590  -72.9600  -32.0150 C.2   466  THR466      0.2313
    141  O          3.9340  -73.8680  -32.8330 O.2   466  THR466     -0.2863
    142  CB         3.6610  -72.8490  -29.5270 C.3   466  THR466      0.1794
    143  OG1        4.5850  -73.9410  -29.4500 O.3   466  THR466     -0.2208
    144  CG2        2.6520  -73.0050  -28.4070 C.3   466  THR466      0.0378
    145  N          5.3460  -76.4840  -32.5160 N.3   469  SER469     -0.1217
    146  CA         4.4900  -77.4190  -33.2120 C.3   469  SER469      0.1889
    147  C          4.6220  -77.2060  -34.7210 C.2   469  SER469      0.2288
    148  O          4.6240  -78.1430  -35.4790 O.2   469  SER469     -0.2866
    149  CB         3.0510  -77.3020  -32.7470 C.3   469  SER469      0.2089
    150  OG         2.9080  -77.8680  -31.4510 O.3   469  SER469     -0.2183
@<TRIPOS>BOND
     1    79    77   ar
     2   148   147    2
     3    76    77    1
     4    76    75    1
     5    71    72    1
     6    77    78   ar
     7   147   146    1
     8    75    72    1
     9   130   132   ar
    10   130   129   ar
    11   132   133   ar
    12    29    28    1
    13    72    73    1
    14   129   128    1
    15   129   131   ar
    16   128   125    1
    17   133   135   ar
    18   133   131   ar
    19   146   149    1
    20   146   145    1
    21    37    39   ar
    22    37    36   ar
    23   135   137   ar
    24   131   134   ar
    25    35    36    1
    26    35    32    1
    27    39    40   ar
    28   141   140    2
    29    36    38   ar
    30    27    26    2
    31   149   150    1
    32   127   126    2
    33    31    32    1
    34    26    25    1
    35    28    25    1
    36    28    30    1
    37    73    74    2
    38    40    38   ar
    39   134   136   ar
    40   137   136   ar
    41    32    33    1
    42   140   139    1
    43   125   126    1
    44   125   124    1
    45   126   138   am
    46    25    24    1
    47   124   115   am
    48   138   139    1
    49   139   142    1
    50    33    34    2
    51    33    41   am
    52    47    41    1
    53    47    46    1
    54   120   122   ar
    55   120   118   ar
    56   115   116    2
    57   115   114    1
    58    41    42    1
    59   122   123   ar
    60   142   143    1
    61   142   144    1
    62   117   118    1
    63   117   114    1
    64   113   114    1
    65   118   119   ar
    66    46    45    1
    67    44    43    2
    68   123   121   ar
    69    23    22    1
    70    42    43    1
    71    42    45    1
    72    22    21    1
    73   119   121   ar
    74    43    48   am
    75     6     5    1
    76    21    20    1
    77    48    49    1
    78    91    90    1
    79    56    54   ar
    80    56    58   ar
    81   107   106    2
    82    20    19    1
    83    54    53   ar
    84    62    61    2
    85    58    57   ar
    86    49    50    1
    87    49    52    1
    88    51    50    2
    89     5     7    1
    90     5     2    1
    91   106   105    1
    92    90    88   ar
    93    90    89   ar
    94    70    68    1
    95    50    59   am
    96    53    52    1
    97    53    55   ar
    98    65    64    1
    99    65    66    2
   100    57    55   ar
   101    64    63    1
   102    64    67    1
   103    88    86   ar
   104    61    63   am
   105    61    60    1
   106    19    16    1
   107   112   110   ar
   108     1     2    1
   109   109   110    1
   110   109   108    1
   111    59    60    1
   112     2     3    1
   113    89    87   ar
   114    67    68    1
   115   105   108    1
   116   105   104    1
   117    16    17    1
   118    16    15    1
   119    68    69    1
   120   110   111   ar
   121    17    18    2
   122    86    85   ar
   123   103   102    1
   124    14     8    1
   125    14    13    1
   126    87    85   ar
   127     3     8   am
   128     3     4    2
   129    85    84    1
   130     8     9    1
   131    13    12    1
   132   102   100   ar
   133   102   101   ar
   134   100    98   ar
   135   101    99   ar
   136    84    81    1
   137    12     9    1
   138     9    10    1
   139    98    97   ar
   140    83    82    2
   141    81    82    1
   142    81    80    1
   143    10    11    2
   144    99    97   ar
   145    82    92   am
   146    97    96    1
   147    92    93    1
   148    93    96    1
   149    93    94    1
   150    94    95    2
