@<TRIPOS>MOLECULE
tmp/6h45A00.pdb
 139 130 0 0 0
SMALL
GASTEIGER

@<TRIPOS>ATOM
      1  N         36.3850   -1.3720   11.6840 N.3    94  ASP94      -0.1225
      2  CA        37.3440   -2.0150   12.5660 C.3    94  ASP94       0.1805
      3  C         38.7450   -1.9530   11.9560 C.2    94  ASP94       0.2598
      4  O         38.9500   -1.4740   10.8360 O.2    94  ASP94      -0.2718
      5  CB        36.9160   -3.4530   12.8430 C.3    94  ASP94       0.1424
      6  CG        37.0390   -4.3410   11.6230 C.2    94  ASP94       0.3668
      7  OD1       36.7800   -3.8490   10.5040 O.co2  94  ASP94      -0.2456
      8  OD2       37.4180   -5.5210   11.7790 O.co2  94  ASP94      -0.2456
      9  N         39.7300   -2.4490   12.7070 N.am   95  SER95      -0.1952
     10  CA        41.1130   -2.3750   12.2460 C.3    95  SER95       0.1924
     11  C         41.3910   -3.3610   11.1220 C.2    95  SER95       0.2314
     12  O         42.2630   -3.1100   10.2810 O.2    95  SER95      -0.2863
     13  CB        42.0700   -2.6380   13.4050 C.3    95  SER95       0.2116
     14  OG        42.0030   -3.9980   13.8000 O.3    95  SER95      -0.2180
     15  N         41.4300   -8.4240   13.6240 N.3    98  PHE98      -0.1241
     16  CA        40.6580   -9.5730   14.0950 C.3    98  PHE98       0.1605
     17  C         40.4220  -10.5730   12.9720 C.2    98  PHE98       0.2264
     18  O         40.6670  -11.7740   13.1320 O.2    98  PHE98      -0.2867
     19  CB        39.3240   -9.1060   14.6830 C.3    98  PHE98       0.0534
     20  CG        38.4290  -10.2230   15.1230 C.ar   98  PHE98      -0.0203
     21  CD1       38.6250  -10.8380   16.3460 C.ar   98  PHE98      -0.0042
     22  CD2       37.4010  -10.6670   14.3070 C.ar   98  PHE98      -0.0042
     23  CE1       37.8090  -11.8730   16.7520 C.ar   98  PHE98      -0.0003
     24  CE2       36.5830  -11.7020   14.7070 C.ar   98  PHE98      -0.0003
     25  CZ        36.7870  -12.3050   15.9310 C.ar   98  PHE98      -0.0000
     26  N         38.2410    1.7370   14.8960 N.3   145  MET145     -0.1230
     27  CA        38.6080    0.9110   16.0340 C.3   145  MET145      0.1702
     28  C         40.1200    0.7660   16.1300 C.2   145  MET145      0.2592
     29  O         40.8070    0.5890   15.1200 O.2   145  MET145     -0.2718
     30  CB        37.9600   -0.4700   15.9310 C.3   145  MET145      0.0401
     31  CG        36.4430   -0.4290   15.8050 C.3   145  MET145      0.0596
     32  SD        35.6500    0.4670   17.1540 S.3   145  MET145     -0.1393
     33  CE        35.9880   -0.6250   18.5340 C.3   145  MET145      0.0692
     34  N         40.6260    0.8500   17.3560 N.am  146  GLN146     -0.1979
     35  CA        42.0200    0.5370   17.6290 C.3   146  GLN146      0.1601
     36  C         42.3760   -0.8380   17.0740 C.2   146  GLN146      0.2287
     37  O         41.5420   -1.7480   17.0390 O.2   146  GLN146     -0.2864
     38  CB        42.2580    0.5760   19.1450 C.3   146  GLN146      0.0394
     39  CG        43.6090    0.0710   19.6040 C.3   146  GLN146      0.0908
     40  CD        43.5510   -0.6090   20.9600 C.2   146  GLN146      0.2608
     41  OE1       42.7370   -0.2570   21.8190 O.2   146  GLN146     -0.2717
     42  NE2       44.4140   -1.5960   21.1540 N.am  146  GLN146     -0.0878
     43  N         44.0940   -4.1200   17.9640 N.3   148  ASP148     -0.1239
     44  CA        44.3360   -4.7580   19.2500 C.3   148  ASP148      0.1674
     45  C         44.8630   -6.1740   19.0570 C.2   148  ASP148      0.2266
     46  O         44.7690   -6.7560   17.9770 O.2   148  ASP148     -0.2867
     47  CB        43.0610   -4.7800   20.1120 C.3   148  ASP148      0.1410
     48  CG        41.8830   -5.4350   19.4070 C.2   148  ASP148      0.3668
     49  OD1       42.0570   -5.9410   18.2770 O.co2 148  ASP148     -0.2456
     50  OD2       40.7760   -5.4430   19.9840 O.co2 148  ASP148     -0.2456
     51  N         44.1300   -9.6750   19.8170 N.3   150  VAL150     -0.1231
     52  CA        42.9510  -10.4520   20.1810 C.3   150  VAL150      0.1692
     53  C         43.3640  -11.8900   20.4630 C.2   150  VAL150      0.2592
     54  O         44.0300  -12.5290   19.6410 O.2   150  VAL150     -0.2718
     55  CB        41.8910  -10.3890   19.0680 C.3   150  VAL150      0.0266
     56  CG1       40.8160  -11.4320   19.2970 C.3   150  VAL150      0.0020
     57  CG2       41.2840   -8.9950   18.9970 C.3   150  VAL150      0.0020
     58  N         42.9710  -12.3990   21.6290 N.am  151  VAL151     -0.1966
     59  CA        43.1740  -13.7980   21.9800 C.3   151  VAL151      0.1727
     60  C         41.8180  -14.4270   22.2500 C.2   151  VAL151      0.2617
     61  O         40.8770  -13.7590   22.6930 O.2   151  VAL151     -0.2715
     62  CB        44.1060  -13.9770   23.2010 C.3   151  VAL151      0.0290
     63  CG1       45.4870  -13.4400   22.8920 C.3   151  VAL151      0.0023
     64  CG2       43.5200  -13.3020   24.4310 C.3   151  VAL151      0.0023
     65  N         41.7210  -15.7240   21.9680 N.am  152  SER152     -0.1936
     66  CA        40.4930  -16.4570   22.2360 C.3   152  SER152      0.2055
     67  C         40.2310  -16.5010   23.7370 C.2   152  SER152      0.2643
     68  O         41.1440  -16.7410   24.5330 O.2   152  SER152     -0.2714
     69  CB        40.5890  -17.8720   21.6660 C.3   152  SER152      0.2130
     70  OG        39.3420  -18.5400   21.7420 O.3   152  SER152     -0.2179
     71  N         38.9760  -16.2550   24.1230 N.am  153  SER153     -0.1949
     72  CA        38.6180  -16.2690   25.5360 C.3   153  SER153      0.1924
     73  C         38.7720  -17.6530   26.1510 C.2   153  SER153      0.2314
     74  O         38.8900  -17.7650   27.3750 O.2   153  SER153     -0.2863
     75  CB        37.1870  -15.7620   25.7240 C.3   153  SER153      0.2116
     76  OG        36.2770  -16.4590   24.8940 O.3   153  SER153     -0.2180
     77  N         39.7550   -0.6380   22.7690 N.3   189  ILE189     -0.1245
     78  CA        39.1080   -1.9330   22.9550 C.3   189  ILE189      0.1561
     79  C         39.6640   -2.5530   24.2290 C.2   189  ILE189      0.2260
     80  O         40.8390   -2.9410   24.2740 O.2   189  ILE189     -0.2867
     81  CB        39.3200   -2.8690   21.7590 C.3   189  ILE189      0.0252
     82  CG1       38.9100   -2.1750   20.4580 C.3   189  ILE189      0.0019
     83  CG2       38.5340   -4.1550   21.9600 C.3   189  ILE189      0.0019
     84  CD1       39.2670   -2.9510   19.2110 C.3   189  ILE189      0.0001
     85  N         40.6530   -5.2220   26.7130 N.3   191  GLN191     -0.1245
     86  CA        41.0140   -6.6260   26.6500 C.3   191  GLN191      0.1566
     87  C         41.0710   -7.2050   28.0660 C.2   191  GLN191      0.2260
     88  O         40.5190   -6.6260   29.0130 O.2   191  GLN191     -0.2867
     89  CB        42.3370   -6.7700   25.8930 C.3   191  GLN191      0.0367
     90  CG        42.2430   -6.4410   24.4080 C.3   191  GLN191      0.0905
     91  CD        41.5340   -7.5210   23.6140 C.2   191  GLN191      0.2608
     92  OE1       41.9160   -8.6910   23.6570 O.2   191  GLN191     -0.2717
     93  NE2       40.4930   -7.1330   22.8850 N.am  191  GLN191     -0.0878
     94  N         36.1160   -5.8980   24.4080 N.3   217  GLY217     -0.1210
     95  CA        36.5170   -6.9820   23.4930 C.3   217  GLY217      0.1956
     96  C         36.8570   -8.2800   24.1910 C.2   217  GLY217      0.2612
     97  O         36.9820   -8.2700   25.4100 O.2   217  GLY217     -0.2717
     98  N         36.9160   -9.3700   23.4210 N.am  218  GLY218     -0.1942
     99  CA        37.2940  -10.7140   23.8970 C.3   218  GLY218      0.2014
    100  C         36.1800  -11.4730   24.5860 C.2   218  GLY218      0.2639
    101  O         36.4880  -12.4730   25.2220 O.2   218  GLY218     -0.2714
    102  N         34.9470  -11.0390   24.3930 N.am  219  LEU219     -0.1963
    103  CA        33.7740  -11.7770   24.9110 C.3   219  LEU219      0.1728
    104  C         33.0710  -12.4570   23.7260 C.2   219  LEU219      0.2617
    105  O         33.5150  -12.2530   22.5800 O.2   219  LEU219     -0.2715
    106  CB        32.8990  -10.8050   25.7010 C.3   219  LEU219      0.0311
    107  CG        33.6470  -10.1230   26.8420 C.3   219  LEU219      0.0022
    108  CD1       32.7220   -9.2850   27.6960 C.3   219  LEU219      0.0001
    109  CD2       34.3660  -11.1470   27.6930 C.3   219  LEU219      0.0001
    110  N         32.0880  -13.3180   23.9920 N.am  220  SER220     -0.1936
    111  CA        31.3740  -14.0880   22.9340 C.3   220  SER220      0.2055
    112  C         32.3670  -14.9230   22.1180 C.2   220  SER220      0.2643
    113  O         32.2620  -14.9330   20.8910 O.2   220  SER220     -0.2714
    114  CB        30.5180  -13.2280   22.0470 C.3   220  SER220      0.2130
    115  OG        31.2940  -12.7550   20.9590 O.3   220  SER220     -0.2179
    116  N         33.3200  -15.5510   22.8070 N.am  221  GLY221     -0.1954
    117  CA        34.3540  -16.4150   22.2090 C.3   221  GLY221      0.1869
    118  C         34.1700  -17.8600   22.6320 C.2   221  GLY221      0.2309
    119  O         35.1270  -18.6410   22.4920 O.2   221  GLY221     -0.2863
    120  N         31.2640   -5.5810   21.4460 N.3   248  MET248     -0.1230
    121  CA        31.4530   -6.1760   20.1310 C.3   248  MET248      0.1702
    122  C         31.0650   -7.6490   20.1480 C.2   248  MET248      0.2592
    123  O         31.4740   -8.3970   21.0430 O.2   248  MET248     -0.2718
    124  CB        32.9070   -6.0280   19.6840 C.3   248  MET248      0.0401
    125  CG        33.5590   -4.7340   20.1290 C.3   248  MET248      0.0596
    126  SD        35.2810   -4.5840   19.6200 S.3   248  MET248     -0.1393
    127  CE        35.0920   -4.4500   17.8440 C.3   248  MET248      0.0692
    128  N         30.2760   -8.0580   19.1590 N.am  249  GLY249     -0.1957
    129  CA        30.0350   -9.4660   18.9250 C.3   249  GLY249      0.1869
    130  C         28.8730  -10.0860   19.6630 C.2   249  GLY249      0.2309
    131  O         28.8840  -11.3000   19.8950 O.2   249  GLY249     -0.2863
    132  N         26.9070   -5.2550   17.7080 N.3   268  ASP268     -0.1239
    133  CA        27.0440   -5.7520   16.3450 C.3   268  ASP268      0.1674
    134  C         27.1730   -7.2680   16.3800 C.2   268  ASP268      0.2266
    135  O         27.7660   -7.8310   17.3030 O.2   268  ASP268     -0.2867
    136  CB        28.2520   -5.1280   15.6370 C.3   268  ASP268      0.1410
    137  CG        29.5730   -5.7310   16.0880 C.2   268  ASP268      0.3668
    138  OD1       29.9750   -6.7750   15.5290 O.co2 268  ASP268     -0.2456
    139  OD2       30.2090   -5.1610   16.9990 O.co2 268  ASP268     -0.2456
@<TRIPOS>BOND
     1    12    11    2
     2     7     6   ar
     3     4     3    2
     4    11    10    1
     5     6     8   ar
     6     6     5    1
     7     1     2    1
     8     3     2    1
     9     3     9   am
    10    10     9    1
    11    10    13    1
    12     2     5    1
    13    17    18    2
    14    17    16    1
    15    13    14    1
    16    15    16    1
    17    16    19    1
    18    22    24   ar
    19    22    20   ar
    20    19    20    1
    21    24    25   ar
    22    26    27    1
    23    29    28    2
    24    20    21   ar
    25   138   137   ar
    26   136   137    1
    27   136   133    1
    28    31    30    1
    29    31    32    1
    30    25    23   ar
    31    30    27    1
    32    27    28    1
    33   137   139   ar
    34    28    34   am
    35   133   134    1
    36   133   132    1
    37    21    23   ar
    38   134   135    2
    39    37    36    2
    40    36    35    1
    41    32    33    1
    42    34    35    1
    43    35    38    1
    44   127   126    1
    45    43    44    1
    46    46    45    2
    47    49    48   ar
    48   129   128    1
    49   129   130    1
    50    57    55    1
    51    45    44    1
    52    55    56    1
    53    55    52    1
    54    38    39    1
    55   128   122   am
    56    84    82    1
    57    44    47    1
    58    48    50   ar
    59    48    47    1
    60    39    40    1
    61   126   125    1
    62    54    53    2
    63   130   131    2
    64   124   125    1
    65   124   121    1
    66    51    52    1
    67   121   122    1
    68   121   120    1
    69   122   123    2
    70    52    53    1
    71    82    81    1
    72    53    58   am
    73   113   112    2
    74   115   114    1
    75    40    42   am
    76    40    41    2
    77    58    59    1
    78    69    70    1
    79    69    66    1
    80    81    83    1
    81    81    78    1
    82    65    66    1
    83    65    60   am
    84    59    60    1
    85    59    62    1
    86   114   111    1
    87   112   116   am
    88   112   111    1
    89   117   118    1
    90   117   116    1
    91    66    67    1
    92    60    61    2
    93   119   118    2
    94   105   104    2
    95    77    78    1
    96    93    91   am
    97    63    62    1
    98   111   110    1
    99    78    79    1
   100    62    64    1
   101    98    99    1
   102    98    96   am
   103    95    96    1
   104    95    94    1
   105    91    92    2
   106    91    90    1
   107   104   110   am
   108   104   103    1
   109    67    71   am
   110    67    68    2
   111    99   100    1
   112    71    72    1
   113    96    97    2
   114    79    80    2
   115   102   100   am
   116   102   103    1
   117    90    89    1
   118   100   101    2
   119    76    75    1
   120   103   106    1
   121    72    75    1
   122    72    73    1
   123   106   107    1
   124    89    86    1
   125    73    74    2
   126    86    85    1
   127    86    87    1
   128   107   109    1
   129   107   108    1
   130    87    88    2
