@<TRIPOS>MOLECULE
tmp/6h4aA00.pdb
 206 195 0 0 0
SMALL
GASTEIGER

@<TRIPOS>ATOM
      1  N        -22.9670  -23.6870   24.3430 N.3     5  VAL5       -0.1231
      2  CA       -23.2970  -22.5680   23.4870 C.3     5  VAL5        0.1692
      3  C        -22.0180  -22.1200   22.7570 C.2     5  VAL5        0.2592
      4  O        -20.9670  -22.0030   23.3970 O.2     5  VAL5       -0.2718
      5  CB       -23.8820  -21.5520   24.5230 C.3     5  VAL5        0.0266
      6  CG1      -23.1910  -20.1890   24.5750 C.3     5  VAL5        0.0020
      7  CG2      -25.3960  -21.4610   24.4610 C.3     5  VAL5        0.0020
      8  N        -22.0930  -21.9160   21.4250 N.am    6  ALA6       -0.1966
      9  CA       -20.9420  -21.4880   20.6220 C.3     6  ALA6        0.1728
     10  C        -21.2920  -20.4500   19.5910 C.2     6  ALA6        0.2616
     11  O        -22.3670  -20.5040   19.0020 O.2     6  ALA6       -0.2715
     12  CB       -20.2760  -22.6750   19.9440 C.3     6  ALA6        0.0334
     13  N        -20.3720  -19.5080   19.3590 N.am    7  LEU7       -0.1977
     14  CA       -20.4780  -18.4680   18.3380 C.3     7  LEU7        0.1596
     15  C        -19.2090  -18.5330   17.4750 C.2     7  LEU7        0.2287
     16  O        -18.1070  -18.4380   17.9920 O.2     7  LEU7       -0.2864
     17  CB       -20.6110  -17.0660   18.9580 C.3     7  LEU7        0.0297
     18  CG       -20.5280  -15.8890   17.9700 C.3     7  LEU7        0.0022
     19  CD1      -21.6760  -15.9190   16.9660 C.3     7  LEU7        0.0001
     20  CD2      -20.4770  -14.5730   18.7060 C.3     7  LEU7        0.0001
     21  N        -25.0730  -25.6740   20.8080 N.3    40  LYS40      -0.1245
     22  CA       -26.0400  -24.8980   20.0350 C.3    40  LYS40       0.1561
     23  C        -25.0950  -23.8800   19.4110 C.2    40  LYS40       0.2260
     24  O        -24.4160  -23.1620   20.1330 O.2    40  LYS40      -0.2867
     25  CB       -27.0910  -24.2180   20.9320 C.3    40  LYS40       0.0271
     26  CG       -28.0900  -25.1730   21.5350 C.3    40  LYS40       0.0035
     27  CD       -28.2280  -24.9550   23.0270 C.3    40  LYS40       0.0206
     28  CE       -28.4600  -26.2860   23.7150 C.3    40  LYS40       0.1093
     29  NZ       -29.2180  -26.1430   24.9940 N.3    40  LYS40      -0.1314
     30  N        -24.0830  -20.8170   16.6530 N.3    42  VAL42      -0.1245
     31  CA       -24.4390  -19.7320   15.7560 C.3    42  VAL42       0.1561
     32  C        -23.1520  -19.5210   14.9020 C.2    42  VAL42       0.2260
     33  O        -22.0430  -19.3890   15.4580 O.2    42  VAL42      -0.2867
     34  CB       -24.9300  -18.4470   16.4770 C.3    42  VAL42       0.0252
     35  CG1      -24.9950  -17.2490   15.5110 C.3    42  VAL42       0.0019
     36  CG2      -26.2820  -18.6830   17.1310 C.3    42  VAL42       0.0019
     37  N        -21.6200  -17.2180   11.6890 N.3    44  LEU44      -0.1245
     38  CA       -21.8450  -16.0000   10.9180 C.3    44  LEU44       0.1561
     39  C        -20.6570  -15.6510   10.0640 C.2    44  LEU44       0.2260
     40  O        -19.5150  -15.6340   10.5530 O.2    44  LEU44      -0.2867
     41  CB       -22.1640  -14.8160   11.8590 C.3    44  LEU44       0.0270
     42  CG       -23.3580  -15.0250   12.8000 C.3    44  LEU44       0.0019
     43  CD1      -23.2780  -14.1120   14.0100 C.3    44  LEU44       0.0001
     44  CD2      -24.6790  -14.8950   12.0580 C.3    44  LEU44       0.0001
     45  N        -19.0550  -10.2580    8.9420 N.3    47  LEU47      -0.1245
     46  CA       -19.7330   -9.3070    9.8130 C.3    47  LEU47       0.1561
     47  C        -19.0300   -7.9370    9.8470 C.2    47  LEU47       0.2260
     48  O        -17.7830   -7.8480    9.8140 O.2    47  LEU47      -0.2867
     49  CB       -19.8620   -9.8620   11.2410 C.3    47  LEU47       0.0270
     50  CG       -20.7080  -11.1090   11.4720 C.3    47  LEU47       0.0019
     51  CD1      -20.8920  -11.3460   12.9590 C.3    47  LEU47       0.0001
     52  CD2      -22.0720  -10.9990   10.8020 C.3    47  LEU47       0.0001
     53  N        -20.5310   -3.1920   13.8460 N.3    50  TYR50      -0.1227
     54  CA       -21.7350   -3.1830   14.6780 C.3    50  TYR50       0.1736
     55  C        -22.3410   -4.5710   14.8500 C.2    50  TYR50       0.2595
     56  O        -22.7300   -4.9310   15.9680 O.2    50  TYR50      -0.2718
     57  CB       -22.7550   -2.1460   14.1780 C.3    50  TYR50       0.0548
     58  CG       -22.3610   -0.7230   14.5440 C.ar   50  TYR50      -0.0200
     59  CD1      -21.4060   -0.4690   15.5330 C.ar   50  TYR50      -0.0009
     60  CD2      -22.9470    0.3730   13.9060 C.ar   50  TYR50      -0.0009
     61  CE1      -21.0640    0.8340   15.8880 C.ar   50  TYR50       0.0417
     62  CE2      -22.5990    1.6830   14.2460 C.ar   50  TYR50       0.0417
     63  CZ       -21.6670    1.9060   15.2440 C.ar   50  TYR50       0.1957
     64  OH       -21.3600    3.1930   15.6090 O.3    50  TYR50      -0.2866
     65  N        -22.3310   -5.3700   13.7750 N.am   51  GLU51      -0.1979
     66  CA       -22.8120   -6.7510   13.7660 C.3    51  GLU51       0.1602
     67  C        -21.9500   -7.6210   14.6890 C.2    51  GLU51       0.2287
     68  O        -22.5010   -8.3690   15.4930 O.2    51  GLU51      -0.2864
     69  CB       -22.8600   -7.3180   12.3240 C.3    51  GLU51       0.0415
     70  CG       -23.9130   -6.6650   11.4470 C.3    51  GLU51       0.1163
     71  CD       -23.7460   -6.8580    9.9500 C.2    51  GLU51       0.3649
     72  OE1      -22.7840   -7.5370    9.5290 O.co2  51  GLU51      -0.2457
     73  OE2      -24.5840   -6.3270    9.1880 O.co2  51  GLU51      -0.2457
     74  N        -22.5410   -6.6740   18.4290 N.3    54  ASN54      -0.1225
     75  CA       -23.8310   -7.1660   18.9320 C.3    54  ASN54       0.1785
     76  C        -23.8450   -8.6830   19.1010 C.2    54  ASN54       0.2597
     77  O        -24.4010   -9.1820   20.0880 O.2    54  ASN54      -0.2718
     78  CB       -24.9930   -6.7130   18.0500 C.3    54  ASN54       0.1169
     79  CG       -25.1450   -5.2140   18.0020 C.2    54  ASN54       0.2627
     80  OD1      -24.7940   -4.4830   18.9380 O.2    54  ASN54      -0.2716
     81  ND2      -25.6620   -4.7150   16.9000 N.am   54  ASN54      -0.0877
     82  N        -23.2080   -9.4100   18.1470 N.am   55  ALA55      -0.1979
     83  CA       -23.1400  -10.8660   18.1970 C.3    55  ALA55       0.1597
     84  C        -22.3600  -11.3190   19.3970 C.2    55  ALA55       0.2287
     85  O        -22.8420  -12.1920   20.1340 O.2    55  ALA55      -0.2864
     86  CB       -22.5310  -11.4200   16.9170 C.3    55  ALA55       0.0319
     87  N        -24.2250  -10.5160   22.7380 N.3    58  GLU58      -0.1231
     88  CA       -25.3160  -11.4680   22.9450 C.3    58  GLU58       0.1699
     89  C        -24.7730  -12.8190   23.3610 C.2    58  GLU58       0.2592
     90  O        -25.3490  -13.4450   24.2420 O.2    58  GLU58      -0.2718
     91  CB       -26.2210  -11.5590   21.7200 C.3    58  GLU58       0.0402
     92  CG       -27.2560  -10.4480   21.6180 C.3    58  GLU58       0.1161
     93  CD       -28.3640  -10.6430   20.5930 C.2    58  GLU58       0.3649
     94  OE1      -28.8410   -9.6220   20.0470 O.co2  58  GLU58      -0.2457
     95  OE2      -28.7630  -11.8030   20.3350 O.co2  58  GLU58      -0.2457
     96  N        -23.6390  -13.2410   22.7790 N.am   59  PHE59      -0.1976
     97  CA       -23.0050  -14.5070   23.1480 C.3    59  PHE59       0.1639
     98  C        -22.4920  -14.4340   24.5980 C.2    59  PHE59       0.2290
     99  O        -22.7020  -15.3710   25.3790 O.2    59  PHE59      -0.2864
    100  CB       -21.8660  -14.8830   22.1800 C.3    59  PHE59       0.0560
    101  CG       -20.9610  -15.9750   22.7130 C.ar   59  PHE59      -0.0200
    102  CD1      -21.3030  -17.3200   22.5730 C.ar   59  PHE59      -0.0042
    103  CD2      -19.7830  -15.6590   23.3800 C.ar   59  PHE59      -0.0042
    104  CE1      -20.4700  -18.3250   23.0900 C.ar   59  PHE59      -0.0003
    105  CE2      -18.9610  -16.6620   23.8930 C.ar   59  PHE59      -0.0003
    106  CZ       -19.3050  -17.9860   23.7420 C.ar   59  PHE59      -0.0000
    107  N        -25.0020  -14.9930   27.3760 N.3    62  LEU62      -0.1245
    108  CA       -25.4690  -16.3680   27.5800 C.3    62  LEU62       0.1561
    109  C        -24.6180  -17.1290   28.5730 C.2    62  LEU62       0.2260
    110  O        -24.9900  -18.2470   28.9500 O.2    62  LEU62      -0.2867
    111  CB       -25.4340  -17.1530   26.2580 C.3    62  LEU62       0.0270
    112  CG       -26.2040  -16.6090   25.0880 C.3    62  LEU62       0.0019
    113  CD1      -25.6090  -17.1020   23.8220 C.3    62  LEU62       0.0001
    114  CD2      -27.6480  -17.0100   25.1580 C.3    62  LEU62       0.0001
    115  N        -33.3310  -22.2760   25.7890 N.3   219  ARG219     -0.1245
    116  CA       -32.2970  -21.8520   24.8430 C.3   219  ARG219      0.1563
    117  C        -32.3110  -22.6900   23.6170 C.2   219  ARG219      0.2260
    118  O        -32.0300  -22.1500   22.5690 O.2   219  ARG219     -0.2867
    119  CB       -30.9050  -21.7840   25.4540 C.3   219  ARG219      0.0307
    120  CG       -30.4990  -20.3740   25.8760 C.3   219  ARG219      0.0489
    121  CD       -29.8730  -20.4280   27.2560 C.3   219  ARG219      0.2205
    122  NE       -29.5150  -19.1090   27.7770 N.pl3 219  ARG219     -0.0865
    123  CZ       -28.7290  -18.9130   28.8330 C.cat 219  ARG219      0.5346
    124  NH1      -28.4420  -17.6810   29.2350 N.pl3 219  ARG219      0.1354
    125  NH2      -28.2120  -19.9480   29.4880 N.pl3 219  ARG219      0.1354
    126  N        -35.1770  -21.1460   21.4950 N.3   222  GLN222     -0.1231
    127  CA       -34.7060  -19.8400   21.0180 C.3   222  GLN222      0.1698
    128  C        -33.6710  -19.9770   19.8970 C.2   222  GLN222      0.2592
    129  O        -33.6980  -19.1910   18.9480 O.2   222  GLN222     -0.2718
    130  CB       -34.2070  -18.9530   22.1780 C.3   222  GLN222      0.0381
    131  CG       -35.3400  -18.5430   23.1410 C.3   222  GLN222      0.0905
    132  CD       -34.9110  -17.8880   24.4360 C.2   222  GLN222      0.2608
    133  OE1      -33.8350  -18.1510   24.9850 O.2   222  GLN222     -0.2717
    134  NE2      -35.7680  -17.0260   24.9710 N.am  222  GLN222     -0.0878
    135  N        -32.7920  -21.0010   19.9830 N.am  223  TRP223     -0.1976
    136  CA       -31.7960  -21.3100   18.9530 C.3   223  TRP223      0.1640
    137  C        -32.5520  -21.7850   17.7090 C.2   223  TRP223      0.2290
    138  O        -32.2980  -21.2770   16.6190 O.2   223  TRP223     -0.2864
    139  CB       -30.8010  -22.4240   19.4150 C.3   223  TRP223      0.0576
    140  CG       -29.6750  -22.6520   18.4460 C.ar  223  TRP223      0.0006
    141  CD1      -28.4650  -22.0280   18.4480 C.ar  223  TRP223      0.0946
    142  CD2      -29.7120  -23.4540   17.2560 C.ar  223  TRP223      0.0152
    143  NE1      -27.7460  -22.3860   17.3360 N.ar  223  TRP223     -0.2442
    144  CE2      -28.4780  -23.2740   16.5940 C.ar  223  TRP223      0.0810
    145  CE3      -30.6880  -24.2820   16.6590 C.ar  223  TRP223      0.0012
    146  CZ2      -28.1910  -23.8880   15.3610 C.ar  223  TRP223      0.0191
    147  CZ3      -30.4140  -24.8760   15.4270 C.ar  223  TRP223      0.0001
    148  CH2      -29.1810  -24.6730   14.7870 C.ar  223  TRP223      0.0015
    149  N        -34.2030  -19.2480   15.4360 N.3   226  ALA226     -0.1231
    150  CA       -33.2060  -18.4610   14.6930 C.3   226  ALA226      0.1694
    151  C        -32.6070  -19.2580   13.5060 C.2   226  ALA226      0.2592
    152  O        -31.7420  -18.7370   12.7830 O.2   226  ALA226     -0.2718
    153  CB       -32.0970  -18.0070   15.6190 C.3   226  ALA226      0.0304
    154  N        -33.0380  -20.5340   13.3200 N.am  227  HIS227     -0.1976
    155  CA       -32.5080  -21.3480   12.2360 C.3   227  HIS227      0.1656
    156  C        -33.6300  -21.9280   11.3820 C.2   227  HIS227      0.2291
    157  O        -33.5970  -23.0850   10.9420 O.2   227  HIS227     -0.2864
    158  CB       -31.5210  -22.3650   12.7870 C.3   227  HIS227      0.0771
    159  CG       -30.2950  -21.6620   13.2990 C.ar  227  HIS227      0.0820
    160  ND1      -29.2690  -21.2800   12.4410 N.ar  227  HIS227     -0.2267
    161  CD2      -30.0420  -21.1480   14.5300 C.ar  227  HIS227      0.1154
    162  CE1      -28.3940  -20.6430   13.2000 C.ar  227  HIS227      0.1986
    163  NE2      -28.8210  -20.5180   14.4550 N.ar  227  HIS227     -0.2212
    164  N        -28.3630  -11.0660    8.2180 N.3   319  GLN319     -0.1231
    165  CA       -28.3590  -10.3220    9.4760 C.3   319  GLN319      0.1698
    166  C        -28.7100   -8.8270    9.2470 C.2   319  GLN319      0.2592
    167  O        -29.0910   -8.1410   10.1850 O.2   319  GLN319     -0.2718
    168  CB       -27.0190  -10.4930   10.1890 C.3   319  GLN319      0.0381
    169  CG       -25.8850   -9.6300    9.6030 C.3   319  GLN319      0.0905
    170  CD       -25.1990  -10.1970    8.3790 C.2   319  GLN319      0.2608
    171  OE1      -25.5940  -11.1830    7.7730 O.2   319  GLN319     -0.2717
    172  NE2      -24.1550   -9.5650    7.9730 N.am  319  GLN319     -0.0878
    173  N        -28.6040   -8.3560    7.9840 N.am  320  LYS320     -0.1980
    174  CA       -28.8850   -6.9830    7.5640 C.3   320  LYS320      0.1596
    175  C        -30.3790   -6.7790    7.2290 C.2   320  LYS320      0.2287
    176  O        -30.8530   -5.6430    7.1260 O.2   320  LYS320     -0.2864
    177  CB       -28.0150   -6.6270    6.3370 C.3   320  LYS320      0.0298
    178  CG       -26.5310   -6.6380    6.6250 C.3   320  LYS320      0.0038
    179  CD       -25.6990   -6.2140    5.4450 C.3   320  LYS320      0.0206
    180  CE       -24.2620   -5.9210    5.8240 C.3   320  LYS320      0.1093
    181  NZ       -23.4500   -7.1330    6.1300 N.3   320  LYS320     -0.1314
    182  N        -33.9550   -6.1360    7.7330 N.3   322  LYS322     -0.1245
    183  CA       -34.7540   -5.5210    8.8020 C.3   322  LYS322      0.1561
    184  C        -36.2820   -5.5300    8.5180 C.2   322  LYS322      0.2260
    185  O        -37.0590   -4.9940    9.3070 O.2   322  LYS322     -0.2867
    186  CB       -34.2340   -4.1160    9.1400 C.3   322  LYS322      0.0271
    187  CG       -33.1670   -4.1520   10.2330 C.3   322  LYS322      0.0035
    188  CD       -32.7740   -2.7570   10.6740 C.3   322  LYS322      0.0206
    189  CE       -32.3960   -2.7050   12.1370 C.3   322  LYS322      0.1093
    190  NZ       -32.0840   -1.3160   12.5840 N.3   322  LYS322     -0.1314
    191  N        -31.2640  -16.1340   10.9120 N.3   355  ILE355     -0.1245
    192  CA       -30.9010  -15.0940   11.8820 C.3   355  ILE355      0.1561
    193  C        -31.8730  -13.8850   11.8390 C.2   355  ILE355      0.2260
    194  O        -32.1190  -13.2670   12.8930 O.2   355  ILE355     -0.2867
    195  CB       -29.4000  -14.6920   11.7670 C.3   355  ILE355      0.0252
    196  CG1      -28.8970  -13.9890   13.0500 C.3   355  ILE355      0.0019
    197  CG2      -29.0830  -13.8970   10.5050 C.3   355  ILE355      0.0019
    198  CD1      -28.1170  -14.8580   13.9880 C.3   355  ILE355      0.0001
    199  N        -34.7150  -13.2660   14.8040 N.3   358  LEU358     -0.1245
    200  CA       -34.2700  -12.6420   16.0630 C.3   358  LEU358      0.1561
    201  C        -34.6690  -11.1520   16.2360 C.2   358  LEU358      0.2260
    202  O        -34.9110  -10.4340   15.2650 O.2   358  LEU358     -0.2867
    203  CB       -32.7350  -12.8550   16.2070 C.3   358  LEU358      0.0270
    204  CG       -31.7600  -11.6700   16.4430 C.3   358  LEU358      0.0019
    205  CD1      -30.4780  -12.1460   17.1360 C.3   358  LEU358      0.0001
    206  CD2      -31.3920  -10.9790   15.1450 C.3   358  LEU358      0.0001
@<TRIPOS>BOND
     1   179   180    1
     2   179   178    1
     3   180   181    1
     4   177   178    1
     5   177   174    1
     6   176   175    2
     7   175   174    1
     8   174   173    1
     9   182   183    1
    10   171   170    2
    11   172   170   am
    12   173   166   am
    13   164   165    1
    14   170   169    1
    15   184   183    1
    16   184   185    2
    17   183   186    1
    18    45    46    1
    19   186   187    1
    20    73    71   ar
    21   166   165    1
    22   166   167    2
    23   165   168    1
    24    72    71   ar
    25   169   168    1
    26    46    47    1
    27    46    49    1
    28    48    47    2
    29    71    70    1
    30    39    40    2
    31    39    38    1
    32   187   188    1
    33   197   195    1
    34   188   189    1
    35    52    50    1
    36   191   192    1
    37    38    37    1
    38    38    41    1
    39   157   156    2
    40    49    50    1
    41   156   155    1
    42    70    69    1
    43    50    51    1
    44   195   192    1
    45   195   196    1
    46   193   192    1
    47   193   194    2
    48    41    42    1
    49    44    42    1
    50   189   190    1
    51   155   158    1
    52   155   154    1
    53    69    66    1
    54   160   162   ar
    55   160   159   ar
    56   152   151    2
    57   158   159    1
    58    42    43    1
    59   196   198    1
    60   162   163   ar
    61   159   161   ar
    62   154   151   am
    63   151   150    1
    64    66    65    1
    65    66    67    1
    66    65    55   am
    67    53    54    1
    68    60    62   ar
    69    60    58   ar
    70    57    58    1
    71    57    54    1
    72    62    63   ar
    73   163   161   ar
    74    58    59   ar
    75    54    55    1
    76    67    68    2
    77   150   149    1
    78   150   153    1
    79   148   146   ar
    80   148   147   ar
    81   199   200    1
    82    55    56    2
    83    32    33    2
    84    32    31    1
    85   206   204    1
    86    63    64    1
    87    63    61   ar
    88   202   201    2
    89   146   144   ar
    90   147   145   ar
    91    35    34    1
    92    59    61   ar
    93    31    34    1
    94    31    30    1
    95   200   203    1
    96   200   201    1
    97   203   204    1
    98   204   205    1
    99    34    36    1
   100   144   142   ar
   101   144   143   ar
   102   138   137    2
   103   145   142   ar
   104    81    79   am
   105    86    83    1
   106    19    18    1
   107   142   140   ar
   108   143   141   ar
   109    15    16    2
   110    15    14    1
   111   137   136    1
   112    18    20    1
   113    18    17    1
   114    79    78    1
   115    79    80    2
   116    78    75    1
   117    82    83    1
   118    82    76   am
   119    83    84    1
   120    14    17    1
   121    14    13    1
   122    74    75    1
   123   140   141   ar
   124   140   139    1
   125    75    76    1
   126   129   128    2
   127   136   139    1
   128   136   135    1
   129    11    10    2
   130    76    77    2
   131    13    10   am
   132    84    85    2
   133    23    22    1
   134    23    24    2
   135    10     9    1
   136   128   135   am
   137   128   127    1
   138    12     9    1
   139    22    21    1
   140    22    25    1
   141    94    93   ar
   142    95    93   ar
   143    93    92    1
   144     9     8    1
   145    25    26    1
   146   127   126    1
   147   127   130    1
   148     8     3   am
   149    26    27    1
   150    92    91    1
   151    91    88    1
   152   130   131    1
   153   100   101    1
   154   100    97    1
   155   118   117    2
   156   102   101   ar
   157   102   104   ar
   158   101   103   ar
   159    87    88    1
   160     3     4    2
   161     3     2    1
   162    96    97    1
   163    96    89   am
   164    88    89    1
   165    27    28    1
   166   104   106   ar
   167   131   132    1
   168    97    98    1
   169    89    90    2
   170   103   105   ar
   171     2     1    1
   172     2     5    1
   173   117   116    1
   174    28    29    1
   175   106   105   ar
   176   113   112    1
   177   132   134   am
   178   132   133    2
   179     7     5    1
   180     5     6    1
   181    98    99    2
   182   116   119    1
   183   116   115    1
   184   112   114    1
   185   112   111    1
   186   119   120    1
   187   120   121    1
   188   111   108    1
   189   121   122    1
   190   107   108    1
   191   108   109    1
   192   122   123    2
   193   109   110    2
   194   123   124    1
   195   123   125    1
