@<TRIPOS>MOLECULE
tmp/6h4mE01.pdb
 120 116 0 0 0
SMALL
GASTEIGER

@<TRIPOS>ATOM
      1  N         -4.8660   86.6110  -88.0760 N.3     9  PRO9       -0.2102
      2  CA        -6.0620   86.3000  -88.8480 C.3     9  PRO9        0.1504
      3  C         -7.2070   87.2290  -88.4290 C.2     9  PRO9        0.2576
      4  O         -7.2990   87.5890  -87.2510 O.2     9  PRO9       -0.2718
      5  CB        -6.3190   84.8420  -88.4660 C.3     9  PRO9        0.0282
      6  CG        -5.8420   84.7510  -87.0300 C.3     9  PRO9        0.0208
      7  CD        -4.6460   85.6780  -86.9580 C.3     9  PRO9        0.0893
      8  N         -8.0500   87.6100  -89.3920 N.am   10  THR10      -0.1939
      9  CA        -9.1830   88.5290  -89.1090 C.3    10  THR10       0.2028
     10  C        -10.4380   88.0470  -89.8420 C.2    10  THR10       0.2642
     11  O        -10.4000   87.9670  -91.0840 O.2    10  THR10      -0.2714
     12  CB        -8.8330   89.9640  -89.5220 C.3    10  THR10       0.1808
     13  OG1       -8.6710   89.9720  -90.9390 O.3    10  THR10      -0.2208
     14  CG2       -7.5720   90.4760  -88.8630 C.3    10  THR10       0.0379
     15  N        -11.5110   87.7750  -89.0930 N.am   11  PHE11      -0.1973
     16  CA       -12.8000   87.3290  -89.6860 C.3    11  PHE11       0.1639
     17  C        -13.9380   88.1820  -89.1130 C.2    11  PHE11       0.2290
     18  O        -14.2650   88.0240  -87.9200 O.2    11  PHE11      -0.2864
     19  CB       -13.0380   85.8430  -89.4120 C.3    11  PHE11       0.0560
     20  CG       -14.4240   85.3610  -89.7570 C.ar   11  PHE11      -0.0200
     21  CD1      -14.8620   85.3400  -91.0710 C.ar   11  PHE11      -0.0042
     22  CD2      -15.2940   84.9310  -88.7680 C.ar   11  PHE11      -0.0042
     23  CE1      -16.1360   84.8970  -91.3880 C.ar   11  PHE11      -0.0003
     24  CE2      -16.5690   84.4880  -89.0860 C.ar   11  PHE11      -0.0003
     25  CZ       -16.9870   84.4720  -90.3960 C.ar   11  PHE11      -0.0000
     26  N        -10.2180   85.7200  -93.0720 N.3    39  ASP39      -0.1239
     27  CA       -10.8510   84.4220  -93.2860 C.3    39  ASP39       0.1674
     28  C        -12.2070   84.6260  -93.9700 C.2    39  ASP39       0.2266
     29  O        -13.2370   84.1540  -93.4810 O.2    39  ASP39      -0.2867
     30  CB       -10.9600   83.6470  -91.9700 C.3    39  ASP39       0.1410
     31  CG       -11.0860   82.1440  -92.1360 C.2    39  ASP39       0.3668
     32  OD1      -10.8790   81.6600  -93.2600 O.co2  39  ASP39      -0.2456
     33  OD2      -11.3920   81.4610  -91.1300 O.co2  39  ASP39      -0.2456
     34  N        -14.4550   80.9450  -95.8340 N.3    59  ASN59      -0.1240
     35  CA       -14.2080   81.0600  -94.3870 C.3    59  ASN59       0.1653
     36  C        -13.8990   79.6700  -93.8130 C.2    59  ASN59       0.2266
     37  O        -14.6980   78.7570  -93.9600 O.2    59  ASN59      -0.2867
     38  CB       -15.3860   81.7090  -93.6570 C.3    59  ASN59       0.1155
     39  CG       -15.2780   81.6130  -92.1500 C.2    59  ASN59       0.2627
     40  OD1      -15.8310   80.6960  -91.5490 O.2    59  ASN59      -0.2716
     41  ND2      -14.5550   82.5350  -91.5340 N.am   59  ASN59      -0.0877
     42  N        -13.4520   78.9230  -90.5850 N.3    61  GLY61      -0.1210
     43  CA       -14.2580   78.7160  -89.3730 C.3    61  GLY61       0.1956
     44  C        -13.4980   79.0190  -88.0910 C.2    61  GLY61       0.2612
     45  O        -14.0910   79.4780  -87.1140 O.2    61  GLY61      -0.2717
     46  N        -12.1930   78.7240  -88.0740 N.am   62  ASN62      -0.1960
     47  CA       -11.2900   79.0100  -86.9510 C.3    62  ASN62       0.1819
     48  C        -10.0500   79.7300  -87.5040 C.2    62  ASN62       0.2621
     49  O        -10.0330   80.1350  -88.6720 O.2    62  ASN62      -0.2715
     50  CB       -10.9630   77.7310  -86.1740 C.3    62  ASN62       0.1195
     51  CG       -10.0910   76.7590  -86.9440 C.2    62  ASN62       0.2630
     52  OD1       -9.7450   77.0030  -88.1080 O.2    62  ASN62      -0.2716
     53  ND2       -9.7290   75.6540  -86.3010 N.am   62  ASN62      -0.0877
     54  N         -9.0130   79.8590  -86.6660 N.am   63  ALA63      -0.1977
     55  CA        -7.7970   80.6080  -86.9910 C.3    63  ALA63       0.1597
     56  C         -6.6960   79.6960  -87.5540 C.2    63  ALA63       0.2287
     57  O         -5.6180   80.1850  -87.9010 O.2    63  ALA63      -0.2864
     58  CB        -7.3090   81.3120  -85.7500 C.3    63  ALA63       0.0319
     59  N         -5.9490   80.2860  -91.5960 N.3    66  PRO66      -0.2102
     60  CA        -5.3360   81.6100  -91.6920 C.3    66  PRO66       0.1504
     61  C         -3.9120   81.6890  -91.1220 C.2    66  PRO66       0.2575
     62  O         -3.0330   82.2700  -91.7560 O.2    66  PRO66      -0.2718
     63  CB        -6.2300   82.5160  -90.8420 C.3    66  PRO66       0.0282
     64  CG        -7.5560   81.7970  -90.7400 C.3    66  PRO66       0.0208
     65  CD        -7.2900   80.3280  -91.0000 C.3    66  PRO66       0.0893
     66  N         -3.6990   81.1170  -89.9300 N.am   67  ARG67      -0.1980
     67  CA        -2.3890   81.1620  -89.2770 C.3    67  ARG67       0.1597
     68  C         -1.3770   80.3340  -90.0790 C.2    67  ARG67       0.2287
     69  O         -0.2060   80.7120  -90.1830 O.2    67  ARG67      -0.2864
     70  CB        -2.4770   80.6570  -87.8340 C.3    67  ARG67       0.0334
     71  CG        -3.1100   81.6850  -86.9390 C.3    67  ARG67       0.0492
     72  CD        -3.3690   81.1940  -85.5240 C.3    67  ARG67       0.2205
     73  NE        -3.7010   82.3210  -84.6740 N.pl3  67  ARG67      -0.0865
     74  CZ        -4.3460   82.2090  -83.5130 C.cat  67  ARG67       0.5346
     75  NH1       -4.7020   80.9970  -83.1140 N.pl3  67  ARG67       0.1354
     76  NH2       -4.6160   83.2630  -82.7670 N.pl3  67  ARG67       0.1354
     77  N         -4.1640   87.7980  -82.1090 N.3    83  ASP83      -0.1225
     78  CA        -5.5790   87.7280  -82.4050 C.3    83  ASP83       0.1805
     79  C         -6.0960   89.1400  -82.7180 C.2    83  ASP83       0.2598
     80  O         -5.5210   90.1290  -82.2700 O.2    83  ASP83      -0.2718
     81  CB        -6.3300   87.0700  -81.2510 C.3    83  ASP83       0.1424
     82  CG        -7.7200   86.5950  -81.6050 C.2    83  ASP83       0.3668
     83  OD1       -8.1580   86.6690  -82.7430 O.co2  83  ASP83      -0.2456
     84  OD2       -8.3730   86.0000  -80.7450 O.co2  83  ASP83      -0.2456
     85  N         -7.1800   89.2060  -83.4960 N.am   84  SER84      -0.1938
     86  CA        -7.5950   90.4240  -84.1890 C.3    84  SER84       0.2055
     87  C         -8.1650   91.4720  -83.2210 C.2    84  SER84       0.2643
     88  O         -8.1540   92.6540  -83.5320 O.2    84  SER84      -0.2714
     89  CB        -8.5660   90.1160  -85.3000 C.3    84  SER84       0.2130
     90  OG        -9.7410   89.5510  -84.7540 O.3    84  SER84      -0.2179
     91  N         -8.6510   91.0580  -82.0490 N.am   85  ASP85      -0.1957
     92  CA        -9.2660   92.0180  -81.1360 C.3    85  ASP85       0.1840
     93  C         -8.2530   92.4990  -80.0760 C.2    85  ASP85       0.2622
     94  O         -8.5280   93.4510  -79.3490 O.2    85  ASP85      -0.2715
     95  CB       -10.5440   91.4220  -80.5440 C.3    85  ASP85       0.1450
     96  CG       -10.3720   90.2800  -79.6920 C.2    85  ASP85       0.3671
     97  OD1       -9.2470   89.7700  -79.4410 O.co2  85  ASP85      -0.2456
     98  OD2      -11.4090   89.7760  -79.1230 O.co2  85  ASP85      -0.2456
     99  N         -7.0690   91.8700  -80.0240 N.am   86  ASP86      -0.1971
    100  CA        -6.0960   92.0530  -78.9390 C.3    86  ASP86       0.1709
    101  C         -5.1530   93.2220  -79.2850 C.2    86  ASP86       0.2293
    102  O         -5.2550   93.8000  -80.3740 O.2    86  ASP86      -0.2864
    103  CB        -5.3920   90.7190  -78.6670 C.3    86  ASP86       0.1436
    104  CG        -6.2590   89.6700  -78.0800 C.2    86  ASP86       0.3671
    105  OD1       -7.3350   89.9950  -77.4920 O.co2  86  ASP86      -0.2456
    106  OD2       -5.8480   88.4630  -78.1180 O.co2  86  ASP86      -0.2456
    107  N         -5.0870   90.7620  -73.9160 N.3   195  VAL195     -0.1231
    108  CA        -6.2710   90.0640  -74.4200 C.3   195  VAL195      0.1692
    109  C         -7.4790   90.9620  -74.1540 C.2   195  VAL195      0.2591
    110  O         -7.7190   91.3160  -73.0100 O.2   195  VAL195     -0.2718
    111  CB        -6.4500   88.6890  -73.7510 C.3   195  VAL195      0.0266
    112  CG1       -7.6880   87.9640  -74.2670 C.3   195  VAL195      0.0020
    113  CG2       -5.2240   87.8290  -74.0680 C.3   195  VAL195      0.0020
    114  N         -8.2170   91.3080  -75.2130 N.am  196  VAL196     -0.1980
    115  CA        -9.4370   92.1240  -75.1040 C.3   196  VAL196      0.1595
    116  C        -10.6640   91.2160  -75.2710 C.2   196  VAL196      0.2287
    117  O        -10.8040   90.5500  -76.2960 O.2   196  VAL196     -0.2864
    118  CB        -9.4310   93.2570  -76.1490 C.3   196  VAL196      0.0276
    119  CG1      -10.6900   94.1130  -76.0650 C.3   196  VAL196      0.0022
    120  CG2       -8.2210   94.1570  -75.8860 C.3   196  VAL196      0.0022
@<TRIPOS>BOND
     1    34    35    1
     2    35    36    1
     3    35    38    1
     4    28    29    2
     5    28    27    1
     6    37    36    2
     7    38    39    1
     8    27    26    1
     9    27    30    1
    10    32    31   ar
    11    39    40    2
    12    39    41   am
    13    31    30    1
    14    31    33   ar
    15    62    61    2
    16    60    59    1
    17    60    61    1
    18    60    63    1
    19    59    65    1
    20    23    21   ar
    21    23    25   ar
    22    61    66   am
    23    11    10    2
    24    21    20   ar
    25    65    64    1
    26    13    12    1
    27    63    64    1
    28    42    43    1
    29    25    24   ar
    30    69    68    2
    31    68    67    1
    32    66    67    1
    33    10     9    1
    34    10    15   am
    35    20    19    1
    36    20    22   ar
    37    16    19    1
    38    16    17    1
    39    16    15    1
    40    12     9    1
    41    12    14    1
    42     8     9    1
    43     8     3   am
    44    43    44    1
    45    67    70    1
    46    17    18    2
    47    24    22   ar
    48     2     5    1
    49     2     3    1
    50     2     1    1
    51    49    48    2
    52     5     6    1
    53     3     4    2
    54    52    51    2
    55    44    46   am
    56    44    45    2
    57     1     7    1
    58    46    47    1
    59    57    56    2
    60    70    71    1
    61    56    55    1
    62    48    47    1
    63    48    54   am
    64     6     7    1
    65    55    54    1
    66    55    58    1
    67    47    50    1
    68    51    53   am
    69    51    50    1
    70    71    72    1
    71    72    73    1
    72    89    90    1
    73    89    86    1
    74    73    74    2
    75    86    85    1
    76    86    87    1
    77    88    87    2
    78    74    75    1
    79    74    76    1
    80    85    79   am
    81    87    91   am
    82    83    82   ar
    83    79    78    1
    84    79    80    2
    85    78    77    1
    86    78    81    1
    87    91    92    1
    88    82    81    1
    89    82    84   ar
    90    92    95    1
    91    92    93    1
    92    95    96    1
    93   102   101    2
    94    93    99   am
    95    93    94    2
    96    99   100    1
    97    96    97   ar
    98    96    98   ar
    99   101   100    1
   100   100   103    1
   101   103   104    1
   102   106   104   ar
   103   104   105   ar
   104   117   116    2
   105   118   119    1
   106   118   120    1
   107   118   115    1
   108   116   115    1
   109   114   115    1
   110   114   109   am
   111   108   109    1
   112   108   107    1
   113   108   111    1
   114   112   111    1
   115   109   110    2
   116   113   111    1
