@<TRIPOS>MOLECULE
tmp/6h4mF01.pdb
 205 196 0 0 0
SMALL
GASTEIGER

@<TRIPOS>ATOM
      1  N        -35.3650   55.9510   27.8290 N.3    10  PRO10      -0.2102
      2  CA       -34.6130   56.2660   29.0380 C.3    10  PRO10       0.1504
      3  C        -33.6020   55.1490   29.3330 C.2    10  PRO10       0.2576
      4  O        -33.8960   53.9840   29.0770 O.2    10  PRO10      -0.2718
      5  CB       -35.7170   56.3580   30.0890 C.3    10  PRO10       0.0282
      6  CG       -36.7330   55.3450   29.6310 C.3    10  PRO10       0.0208
      7  CD       -36.7020   55.4210   28.1170 C.3    10  PRO10       0.0893
      8  N        -32.4280   55.5260   29.8470 N.am   11  THR11      -0.1939
      9  CA       -31.3680   54.5820   30.2150 C.3    11  THR11       0.2028
     10  C        -30.9580   54.8090   31.6730 C.2    11  THR11       0.2642
     11  O        -31.0770   55.9280   32.1960 O.2    11  THR11      -0.2714
     12  CB       -30.1420   54.7190   29.3010 C.3    11  THR11       0.1808
     13  OG1      -29.6490   56.0570   29.4110 O.3    11  THR11      -0.2208
     14  CG2      -30.4590   54.3880   27.8590 C.3    11  THR11       0.0379
     15  N        -30.4670   53.7340   32.3050 N.am   12  PHE12      -0.1973
     16  CA       -29.9100   53.7960   33.6510 C.3    12  PHE12       0.1639
     17  C        -29.0690   52.5440   33.9260 C.2    12  PHE12       0.2290
     18  O        -29.6060   51.4660   34.1080 O.2    12  PHE12      -0.2864
     19  CB       -31.0200   53.9380   34.6940 C.3    12  PHE12       0.0560
     20  CG       -30.5050   54.0100   36.1040 C.ar   12  PHE12      -0.0200
     21  CD1      -29.7530   55.0950   36.5160 C.ar   12  PHE12      -0.0042
     22  CD2      -30.7520   52.9900   37.0120 C.ar   12  PHE12      -0.0042
     23  CE1      -29.2680   55.1670   37.8170 C.ar   12  PHE12      -0.0003
     24  CE2      -30.2650   53.0640   38.3080 C.ar   12  PHE12      -0.0003
     25  CZ       -29.5240   54.1530   38.7080 C.ar   12  PHE12      -0.0000
     26  N        -27.0780   50.6120   32.1320 N.3    14  ASN14      -0.1240
     27  CA       -27.3590   49.5350   31.2130 C.3    14  ASN14       0.1653
     28  C        -26.0520   48.8690   30.7740 C.2    14  ASN14       0.2266
     29  O        -26.0200   47.6640   30.5660 O.2    14  ASN14      -0.2867
     30  CB       -28.1670   50.0350   30.0200 C.3    14  ASN14       0.1155
     31  CG       -29.5720   50.4320   30.4210 C.2    14  ASN14       0.2627
     32  OD1      -29.8340   51.5990   30.7050 O.2    14  ASN14      -0.2716
     33  ND2      -30.4540   49.4490   30.4640 N.am   14  ASN14      -0.0877
     34  N        -30.9020   58.5510   33.0670 N.3    42  ASP42      -0.1239
     35  CA       -31.4130   58.9510   34.3610 C.3    42  ASP42       0.1674
     36  C        -30.2580   58.9530   35.3760 C.2    42  ASP42       0.2266
     37  O        -30.3330   58.3080   36.4330 O.2    42  ASP42      -0.2867
     38  CB       -32.5590   58.0360   34.8040 C.3    42  ASP42       0.1410
     39  CG       -33.4880   58.6580   35.8350 C.2    42  ASP42       0.3668
     40  OD1      -33.3660   59.8900   36.0730 O.co2  42  ASP42      -0.2456
     41  OD2      -34.3320   57.9110   36.3920 O.co2  42  ASP42      -0.2456
     42  N        -30.8190   60.9980   39.5680 N.3    69  ASN69      -0.1240
     43  CA       -31.5950   59.8080   39.1690 C.3    69  ASN69       0.1653
     44  C        -33.0260   59.9170   39.7120 C.2    69  ASN69       0.2266
     45  O        -33.2120   60.0610   40.9020 O.2    69  ASN69      -0.2867
     46  CB       -30.9270   58.5110   39.6350 C.3    69  ASN69       0.1155
     47  CG       -31.8080   57.2920   39.4630 C.2    69  ASN69       0.2627
     48  OD1      -32.4970   56.8910   40.3960 O.2    69  ASN69      -0.2716
     49  ND2      -31.8150   56.7110   38.2720 N.am   69  ASN69      -0.0877
     50  N        -35.4060   57.5690   39.4940 N.3    71  GLY71      -0.1210
     51  CA       -35.7700   56.2960   40.1360 C.3    71  GLY71       0.1956
     52  C        -36.6000   55.3760   39.2500 C.2    71  GLY71       0.2612
     53  O        -36.4950   54.1600   39.3790 O.2    71  GLY71      -0.2717
     54  N        -37.4400   55.9540   38.3840 N.am   72  ASN72      -0.1960
     55  CA       -38.2280   55.2140   37.3830 C.3    72  ASN72       0.1819
     56  C        -38.0350   55.8910   36.0160 C.2    72  ASN72       0.2621
     57  O        -37.1680   56.7570   35.8740 O.2    72  ASN72      -0.2715
     58  CB       -39.7010   55.1120   37.8130 C.3    72  ASN72       0.1195
     59  CG       -40.4290   56.4410   37.7800 C.2    72  ASN72       0.2630
     60  OD1      -39.8460   57.4790   37.4710 O.2    72  ASN72      -0.2716
     61  ND2      -41.7090   56.4180   38.0860 N.am   72  ASN72      -0.0877
     62  N        -38.8680   55.5190   35.0310 N.am   73  ALA73      -0.1977
     63  CA       -38.7580   55.9910   33.6500 C.3    73  ALA73       0.1597
     64  C        -39.6520   57.2070   33.3790 C.2    73  ALA73       0.2287
     65  O        -39.6560   57.7460   32.2680 O.2    73  ALA73      -0.2864
     66  CB       -39.1470   54.8690   32.7110 C.3    73  ALA73       0.0319
     67  N        -37.5780   60.7660   32.8700 N.3    76  PRO76      -0.2102
     68  CA       -36.8720   60.6260   31.5960 C.3    76  PRO76       0.1504
     69  C        -37.7890   60.6530   30.3630 C.2    76  PRO76       0.2575
     70  O        -37.4780   61.3320   29.3920 O.2    76  PRO76      -0.2718
     71  CB       -36.2200   59.2420   31.6630 C.3    76  PRO76       0.0282
     72  CG       -36.1490   58.9000   33.1280 C.3    76  PRO76       0.0208
     73  CD       -37.1960   59.7320   33.8350 C.3    76  PRO76       0.0893
     74  N        -38.9010   59.9080   30.4090 N.am   77  ARG77      -0.1980
     75  CA       -39.8270   59.8370   29.2810 C.3    77  ARG77       0.1597
     76  C        -40.5060   61.1970   29.0730 C.2    77  ARG77       0.2287
     77  O        -40.7480   61.6080   27.9350 O.2    77  ARG77      -0.2864
     78  CB       -40.8730   58.7450   29.4960 C.3    77  ARG77       0.0334
     79  CG       -40.3950   57.3270   29.2160 C.3    77  ARG77       0.0492
     80  CD       -41.4750   56.3310   29.6040 C.3    77  ARG77       0.2205
     81  NE       -41.0580   54.9530   29.4830 N.pl3  77  ARG77      -0.0865
     82  CZ       -41.6460   53.9530   30.1190 C.cat  77  ARG77       0.5346
     83  NH1      -42.6350   54.1840   30.9580 N.pl3  77  ARG77       0.1354
     84  NH2      -41.2500   52.7090   29.9190 N.pl3  77  ARG77       0.1354
     85  N        -37.9290   50.6930   25.9410 N.3    93  ASP93      -0.1225
     86  CA       -37.1460   50.4270   27.1350 C.3    93  ASP93       0.1805
     87  C        -35.7220   50.0350   26.7320 C.2    93  ASP93       0.2598
     88  O        -35.5400   49.5050   25.6310 O.2    93  ASP93      -0.2718
     89  CB       -37.8350   49.3780   28.0100 C.3    93  ASP93       0.1424
     90  CG       -39.0880   49.9030   28.6880 C.2    93  ASP93       0.3668
     91  OD1      -39.3340   51.1330   28.5970 O.co2  93  ASP93      -0.2456
     92  OD2      -39.8150   49.0820   29.2910 O.co2  93  ASP93      -0.2456
     93  N        -34.7610   50.2570   27.6290 N.am   94  SER94      -0.1938
     94  CA       -33.3440   50.2430   27.2950 C.3    94  SER94       0.2055
     95  C        -32.8350   48.8230   27.0190 C.2    94  SER94       0.2643
     96  O        -31.8310   48.6590   26.3330 O.2    94  SER94      -0.2714
     97  CB       -32.4970   50.9290   28.3650 C.3    94  SER94       0.2130
     98  OG       -32.9660   50.6170   29.6480 O.3    94  SER94      -0.2179
     99  N        -33.5080   47.7930   27.5370 N.am   95  ASP95      -0.1957
    100  CA       -33.0090   46.4350   27.3470 C.3    95  ASP95       0.1840
    101  C        -33.7030   45.7490   26.1540 C.2    95  ASP95       0.2622
    102  O        -33.2760   44.6820   25.7270 O.2    95  ASP95      -0.2715
    103  CB       -33.0840   45.6580   28.6650 C.3    95  ASP95       0.1450
    104  CG       -31.8720   45.9130   29.5440 C.2    95  ASP95       0.3671
    105  OD1      -31.0310   46.7680   29.1880 O.co2  95  ASP95      -0.2456
    106  OD2      -31.7640   45.2400   30.5960 O.co2  95  ASP95      -0.2456
    107  N        -34.7380   46.3780   25.5970 N.am   96  ASP96      -0.1971
    108  CA       -35.6410   45.7580   24.6010 C.3    96  ASP96       0.1709
    109  C        -35.0890   45.9930   23.1830 C.2    96  ASP96       0.2293
    110  O        -34.0720   46.6580   23.0210 O.2    96  ASP96      -0.2864
    111  CB       -37.0680   46.2650   24.8330 C.3    96  ASP96       0.1436
    112  CG       -37.6520   45.8910   26.1920 C.2    96  ASP96       0.3671
    113  OD1      -37.1050   44.9880   26.8460 O.co2  96  ASP96      -0.2456
    114  OD2      -38.6540   46.5130   26.6000 O.co2  96  ASP96      -0.2456
    115  N        -41.3700   37.8050   32.7260 N.3   129  ARG129     -0.1245
    116  CA       -42.6290   38.4530   32.3280 C.3   129  ARG129      0.1563
    117  C        -43.0500   37.9020   30.9540 C.2   129  ARG129      0.2260
    118  O        -42.2240   37.7660   30.0550 O.2   129  ARG129     -0.2867
    119  CB       -42.4680   39.9820   32.3190 C.3   129  ARG129      0.0307
    120  CG       -41.7560   40.5060   33.5760 C.3   129  ARG129      0.0489
    121  CD       -42.4010   40.0660   34.8680 C.3   129  ARG129      0.2205
    122  NE       -43.7830   40.5130   34.9570 N.pl3 129  ARG129     -0.0865
    123  CZ       -44.7890   39.6920   35.3150 C.cat 129  ARG129      0.5346
    124  NH1      -44.5670   38.4260   35.6670 N.pl3 129  ARG129      0.1354
    125  NH2      -46.0300   40.1800   35.2410 N.pl3 129  ARG129      0.1354
    126  N        -45.9190   38.5030   27.6550 N.3   131  VAL131     -0.1245
    127  CA       -46.4370   39.6580   26.9250 C.3   131  VAL131      0.1561
    128  C        -47.8820   39.3830   26.5100 C.2   131  VAL131      0.2260
    129  O        -48.2960   38.2320   26.4180 O.2   131  VAL131     -0.2867
    130  CB       -45.5520   39.9660   25.7030 C.3   131  VAL131      0.0252
    131  CG1      -44.1230   40.3190   26.1270 C.3   131  VAL131      0.0019
    132  CG2      -45.5610   38.8260   24.6900 C.3   131  VAL131      0.0019
    133  N        -49.0780   48.7770   28.2980 N.3   156  SER156     -0.1202
    134  CA       -47.6920   49.3150   28.2930 C.3   156  SER156      0.2020
    135  C        -47.6330   50.5270   27.3630 C.2   156  SER156      0.2619
    136  O        -48.5050   50.6830   26.5030 O.2   156  SER156     -0.2717
    137  CB       -46.6690   48.2770   27.9010 C.3   156  SER156      0.2103
    138  OG       -46.7030   48.0310   26.5110 O.3   156  SER156     -0.2182
    139  N        -46.6020   51.3560   27.5200 N.am  157  VAL157     -0.1965
    140  CA       -46.4360   52.4980   26.6140 C.3   157  VAL157      0.1727
    141  C        -45.4840   52.1370   25.4690 C.2   157  VAL157      0.2616
    142  O        -45.0000   53.0140   24.7800 O.2   157  VAL157     -0.2715
    143  CB       -45.9640   53.7550   27.3610 C.3   157  VAL157      0.0290
    144  CG1      -47.0040   54.2010   28.3450 C.3   157  VAL157      0.0023
    145  CG2      -44.5970   53.5890   28.0120 C.3   157  VAL157      0.0023
    146  N        -45.2420   50.8340   25.2680 N.am  158  LEU158     -0.1977
    147  CA       -44.3120   50.3750   24.2560 C.3   158  LEU158      0.1596
    148  C        -45.0640   50.2820   22.9240 C.2   158  LEU158      0.2287
    149  O        -45.2360   49.2100   22.3420 O.2   158  LEU158     -0.2864
    150  CB       -43.7150   49.0470   24.7240 C.3   158  LEU158      0.0297
    151  CG       -43.1220   49.0780   26.1440 C.3   158  LEU158      0.0022
    152  CD1      -42.4930   47.7570   26.5330 C.3   158  LEU158      0.0001
    153  CD2      -42.1140   50.2140   26.3200 C.3   158  LEU158      0.0001
    154  N        -44.1230   53.7170   41.7470 N.3   178  LYS178     -0.1231
    155  CA       -43.0590   52.9730   41.0760 C.3   178  LYS178      0.1696
    156  C        -43.6560   52.0640   39.9980 C.2   178  LYS178      0.2593
    157  O        -42.9500   51.6780   39.0600 O.2   178  LYS178     -0.2718
    158  CB       -42.2790   52.1270   42.0910 C.3   178  LYS178      0.0331
    159  CG       -41.4680   52.9440   43.0760 C.3   178  LYS178      0.0295
    160  CD       -40.4770   53.8770   42.4650 C.2   178  LYS178     -0.0067
    161  CE       -39.7460   54.8280   43.2620 C.2   178  LYS178      0.1012
    162  NZ       -38.8150   55.6850   42.5210 N.pl3 178  LYS178     -0.1270
    163  N        -44.9500   51.7450   40.1220 N.am  179  THR179     -0.1939
    164  CA       -45.6410   50.8380   39.2060 C.3   179  THR179      0.2028
    165  C        -46.9410   51.4710   38.6890 C.2   179  THR179      0.2642
    166  O        -47.4990   52.4060   39.2940 O.2   179  THR179     -0.2714
    167  CB       -45.9400   49.5050   39.8960 C.3   179  THR179      0.1808
    168  OG1      -46.3040   49.7840   41.2510 O.3   179  THR179     -0.2208
    169  CG2      -44.7620   48.5560   39.8470 C.3   179  THR179      0.0379
    170  N        -47.3950   50.9500   37.5480 N.am  180  ALA180     -0.1963
    171  CA       -48.6960   51.2460   36.9450 C.3   180  ALA180      0.1728
    172  C        -48.7450   52.6840   36.4110 C.2   180  ALA180      0.2616
    173  O        -49.8210   53.1630   36.1200 O.2   180  ALA180     -0.2715
    174  CB       -49.8010   50.9800   37.9550 C.3   180  ALA180      0.0334
    175  N        -47.6110   53.3690   36.2700 N.am  181  GLU181     -0.1963
    176  CA       -47.5920   54.7410   35.7890 C.3   181  GLU181      0.1733
    177  C        -47.7290   54.7440   34.2590 C.2   181  GLU181      0.2616
    178  O        -48.2080   55.7150   33.6750 O.2   181  GLU181     -0.2715
    179  CB       -46.3020   55.4490   36.2020 C.3   181  GLU181      0.0429
    180  CG       -46.1110   55.7300   37.6740 C.3   181  GLU181      0.1163
    181  CD       -47.2240   56.5610   38.3220 C.2   181  GLU181      0.3649
    182  OE1      -47.3890   57.7320   37.9600 O.co2 181  GLU181     -0.2457
    183  OE2      -47.9390   56.0480   39.1960 O.co2 181  GLU181     -0.2457
    184  N        -47.2600   53.6590   33.6320 N.am  182  ASP182     -0.1971
    185  CA       -47.3430   53.4540   32.2080 C.3   182  ASP182      0.1709
    186  C        -48.7910   53.1210   31.8260 C.2   182  ASP182      0.2293
    187  O        -49.2850   53.5620   30.7860 O.2   182  ASP182     -0.2864
    188  CB       -46.3210   52.3960   31.7660 C.3   182  ASP182      0.1436
    189  CG       -46.5420   51.0080   32.3450 C.2   182  ASP182      0.3671
    190  OD1      -47.1900   50.9020   33.4050 O.co2 182  ASP182     -0.2456
    191  OD2      -46.0310   50.0470   31.7460 O.co2 182  ASP182     -0.2456
    192  N        -39.6680   42.2850   24.0050 N.3   207  VAL207     -0.1231
    193  CA       -39.3730   42.4840   25.4160 C.3   207  VAL207      0.1692
    194  C        -38.2880   41.4740   25.7990 C.2   207  VAL207      0.2591
    195  O        -38.4700   40.2790   25.6130 O.2   207  VAL207     -0.2718
    196  CB       -40.6340   42.2520   26.2780 C.3   207  VAL207      0.0266
    197  CG1      -40.3270   42.3800   27.7540 C.3   207  VAL207      0.0020
    198  CG2      -41.7730   43.1770   25.8910 C.3   207  VAL207      0.0020
    199  N        -37.1710   41.9680   26.3310 N.am  208  VAL208     -0.1980
    200  CA       -36.0500   41.1490   26.7790 C.3   208  VAL208      0.1595
    201  C        -36.0780   41.0620   28.3140 C.2   208  VAL208      0.2287
    202  O        -36.0520   42.0880   28.9990 O.2   208  VAL208     -0.2864
    203  CB       -34.7120   41.7130   26.2680 C.3   208  VAL208      0.0276
    204  CG1      -33.5290   40.9450   26.8270 C.3   208  VAL208      0.0022
    205  CG2      -34.6790   41.7550   24.7470 C.3   208  VAL208      0.0022
@<TRIPOS>BOND
     1   149   148    2
     2   148   147    1
     3   110   109    2
     4   109   108    1
     5   192   193    1
     6   147   150    1
     7   147   146    1
     8   108   111    1
     9   108   107    1
    10   132   130    1
    11   150   151    1
    12   205   203    1
    13   142   141    2
    14   111   112    1
    15   146   141   am
    16   193   194    1
    17   193   196    1
    18   141   140    1
    19   107   101   am
    20   195   194    2
    21    88    87    2
    22   130   131    1
    23   130   127    1
    24   102   101    2
    25   194   199   am
    26   198   196    1
    27    85    86    1
    28   151   153    1
    29   151   152    1
    30   101   100    1
    31   112   114   ar
    32   112   113   ar
    33   203   200    1
    34   203   204    1
    35   196   197    1
    36   199   200    1
    37    96    95    2
    38   129   128    2
    39   136   135    2
    40   128   127    1
    41   138   137    1
    42   140   143    1
    43   140   139    1
    44    87    86    1
    45    87    93   am
    46   200   201    1
    47   127   126    1
    48    95    94    1
    49    95    99   am
    50    86    89    1
    51    94    93    1
    52    94    97    1
    53   100    99    1
    54   100   103    1
    55   143   145    1
    56   143   144    1
    57   135   139   am
    58   135   134    1
    59     1     7    1
    60     1     2    1
    61    14    12    1
    62   137   134    1
    63    77    76    2
    64    89    90    1
    65     7     6    1
    66   134   133    1
    67   201   202    2
    68    97    98    1
    69    91    90   ar
    70   103   104    1
    71    90    92   ar
    72     2     3    1
    73     2     5    1
    74    76    75    1
    75     4     3    2
    76   105   104   ar
    77    79    78    1
    78    79    80    1
    79    75    78    1
    80    75    74    1
    81    12    13    1
    82    12     9    1
    83     3     8   am
    84    70    69    2
    85    81    80    1
    86    81    82    2
    87   104   106   ar
    88     6     5    1
    89     8     9    1
    90    84    82    1
    91    30    31    1
    92    30    27    1
    93   118   117    2
    94    82    83    1
    95     9    10    1
    96    69    74   am
    97    69    68    1
    98    31    33   am
    99    31    32    2
   100    29    28    2
   101    28    27    1
   102   187   186    2
   103   117   116    1
   104    27    26    1
   105    68    71    1
   106    68    67    1
   107    71    72    1
   108    10    11    2
   109    10    15   am
   110   191   189   ar
   111   188   185    1
   112   188   189    1
   113   186   185    1
   114   185   184    1
   115    65    64    2
   116    15    16    1
   117   119   116    1
   118   119   120    1
   119   116   115    1
   120   189   190   ar
   121    66    63    1
   122    67    73    1
   123    34    35    1
   124    72    73    1
   125    64    63    1
   126   120   121    1
   127   184   177   am
   128    63    62    1
   129    16    17    1
   130    16    19    1
   131   178   177    2
   132    17    18    2
   133   177   176    1
   134    35    38    1
   135    35    36    1
   136    19    20    1
   137    38    39    1
   138   121   122    1
   139   122   123    2
   140    62    56   am
   141   125   123    1
   142   123   124    1
   143    36    37    2
   144   176   179    1
   145   176   175    1
   146    39    40   ar
   147    39    41   ar
   148    57    56    2
   149    56    55    1
   150    20    21   ar
   151    20    22   ar
   152   173   172    2
   153   179   180    1
   154   175   172   am
   155   172   171    1
   156    21    23   ar
   157   171   170    1
   158   171   174    1
   159    22    24   ar
   160    55    58    1
   161    55    54    1
   162    60    59    2
   163   170   165   am
   164   180   181    1
   165    59    58    1
   166    59    61   am
   167    23    25   ar
   168   182   181   ar
   169    49    47   am
   170    24    25   ar
   171   181   183   ar
   172    54    52   am
   173   165   164    1
   174   165   166    2
   175   157   156    2
   176    43    42    1
   177    43    46    1
   178    43    44    1
   179   164   167    1
   180   164   163    1
   181    52    53    2
   182    52    51    1
   183    47    46    1
   184    47    48    2
   185    50    51    1
   186    44    45    2
   187   169   167    1
   188   167   168    1
   189   156   163   am
   190   156   155    1
   191   155   154    1
   192   155   158    1
   193   158   159    1
   194   160   159    1
   195   160   161    2
   196   162   161    1
