@<TRIPOS>MOLECULE
tmp/6h5eB00.pdb
 157 151 0 0 0
SMALL
GASTEIGER

@<TRIPOS>ATOM
      1  N         34.3510  114.7990  157.3690 N.3    21  THR21      -0.1203
      2  CA        33.2140  113.9760  157.7500 C.3    21  THR21       0.1994
      3  C         31.9100  114.7840  157.6750 C.2    21  THR21       0.2618
      4  O         30.9140  114.2890  157.1280 O.2    21  THR21      -0.2717
      5  CB        33.4440  113.3300  159.1320 C.3    21  THR21       0.1784
      6  OG1       33.8790  114.3030  160.0700 O.3    21  THR21      -0.2211
      7  CG2       34.5540  112.2400  159.0750 C.3    21  THR21       0.0376
      8  N         31.9420  116.0260  158.1550 N.am   22  ASN22      -0.1960
      9  CA        30.7070  116.8490  158.1530 C.3    22  ASN22       0.1819
     10  C         30.9070  118.1810  157.4320 C.2    22  ASN22       0.2622
     11  O         32.0250  118.6950  157.4180 O.2    22  ASN22      -0.2715
     12  CB        30.2070  117.1410  159.5680 C.3    22  ASN22       0.1195
     13  CG        29.8760  115.8960  160.3550 C.2    22  ASN22       0.2630
     14  OD1       30.7640  115.1970  160.8240 O.2    22  ASN22      -0.2716
     15  ND2       28.5980  115.6200  160.5170 N.am   22  ASN22      -0.0877
     16  N         29.8320  118.6690  156.8190 N.am   23  GLY23      -0.1940
     17  CA        29.7910  119.9630  156.1870 C.3    23  GLY23       0.2014
     18  C         30.2820  120.0200  154.7680 C.2    23  GLY23       0.2639
     19  O         30.3900  121.1230  154.2190 O.2    23  GLY23      -0.2714
     20  N         30.5860  118.8770  154.1460 N.am   24  LYS24      -0.1963
     21  CA        31.0960  118.9010  152.7710 C.3    24  LYS24       0.1728
     22  C         30.1260  119.5900  151.8170 C.2    24  LYS24       0.2617
     23  O         30.5470  120.3510  150.9320 O.2    24  LYS24      -0.2715
     24  CB        31.3590  117.4770  152.2590 C.3    24  LYS24       0.0311
     25  CG        32.4620  116.6910  152.9470 C.3    24  LYS24       0.0038
     26  CD        32.5890  115.3040  152.3210 C.3    24  LYS24       0.0206
     27  CE        31.3080  114.4440  152.5860 C.3    24  LYS24       0.1093
     28  NZ        31.1280  114.1650  154.0670 N.3    24  LYS24      -0.1314
     29  N         28.8350  119.2620  151.9280 N.am   25  THR25      -0.1937
     30  CA        27.8290  119.7220  150.9700 C.3    25  THR25       0.2028
     31  C         27.6410  121.2290  151.0420 C.2    25  THR25       0.2642
     32  O         27.6810  121.9150  150.0140 O.2    25  THR25      -0.2714
     33  CB        26.4900  118.9860  151.2190 C.3    25  THR25       0.1808
     34  OG1       26.6330  117.6080  150.8570 O.3    25  THR25      -0.2208
     35  CG2       25.3640  119.5770  150.3670 C.3    25  THR25       0.0379
     36  N         27.4330  121.7690  152.2480 N.am   26  THR26      -0.1950
     37  CA        27.3060  123.2200  152.3980 C.3    26  THR26       0.1897
     38  C         28.5450  123.9320  151.8680 C.2    26  THR26       0.2313
     39  O         28.4420  124.8600  151.0590 O.2    26  THR26      -0.2863
     40  CB        27.0720  123.5730  153.8710 C.3    26  THR26       0.1794
     41  OG1       25.9430  122.8620  154.3620 O.3    26  THR26      -0.2208
     42  CG2       26.8570  125.0860  154.0840 C.3    26  THR26       0.0378
     43  N         25.5010  116.2470  145.6950 N.3    48  GLY48      -0.1225
     44  CA        26.0850  115.4830  146.8030 C.3    48  GLY48       0.1811
     45  C         26.5020  114.0780  146.4140 C.2    48  GLY48       0.2280
     46  O         26.9340  113.3660  147.3040 O.2    48  GLY48      -0.2866
     47  N         28.8160  111.9760  145.9820 N.3    50  ASN50      -0.1240
     48  CA        30.2500  112.1310  146.3120 C.3    50  ASN50       0.1653
     49  C         31.0610  110.8420  146.2160 C.2    50  ASN50       0.2266
     50  O         32.1090  110.7950  146.8350 O.2    50  ASN50      -0.2867
     51  CB        30.3720  112.7240  147.7100 C.3    50  ASN50       0.1155
     52  CG        29.5760  111.9420  148.7270 C.2    50  ASN50       0.2627
     53  OD1       29.2500  110.7960  148.4960 O.2    50  ASN50      -0.2716
     54  ND2       29.2580  112.5550  149.8470 N.am   50  ASN50      -0.0877
     55  N         32.6960  117.4520  145.6270 N.3    73  GLU73      -0.1245
     56  CA        32.5440  116.9310  147.0020 C.3    73  GLU73       0.1567
     57  C         32.8780  115.4370  146.9300 C.2    73  GLU73       0.2260
     58  O         32.3750  114.7830  146.0420 O.2    73  GLU73      -0.2867
     59  CB        31.1080  117.1500  147.4630 C.3    73  GLU73       0.0388
     60  CG        30.7350  116.2770  148.6190 C.3    73  GLU73       0.1160
     61  CD        29.3130  116.4050  149.1110 C.2    73  GLU73       0.3649
     62  OE1       29.0160  115.7970  150.1030 O.co2  73  GLU73      -0.2457
     63  OE2       28.5370  117.1120  148.5090 O.co2  73  GLU73      -0.2457
     64  N         33.1650  111.7520  149.1770 N.3    75  ASP75      -0.1225
     65  CA        33.1620  110.8570  150.3380 C.3    75  ASP75       0.1805
     66  C         34.5880  110.4630  150.6980 C.2    75  ASP75       0.2597
     67  O         35.3610  110.0240  149.8370 O.2    75  ASP75      -0.2718
     68  CB        32.3380  109.5970  150.0480 C.3    75  ASP75       0.1424
     69  CG        32.6690  108.4040  150.9880 C.2    75  ASP75       0.3668
     70  OD1       32.6090  108.5390  152.2230 O.co2  75  ASP75      -0.2456
     71  OD2       32.9540  107.2920  150.4750 O.co2  75  ASP75      -0.2456
     72  N         34.9230  110.6110  151.9800 N.am   76  GLU76      -0.1979
     73  CA        36.3120  110.4450  152.4130 C.3    76  GLU76       0.1602
     74  C         36.8240  109.0500  152.0950 C.2    76  GLU76       0.2287
     75  O         37.9710  108.8910  151.6650 O.2    76  GLU76      -0.2864
     76  CB        36.4470  110.7480  153.9120 C.3    76  GLU76       0.0415
     77  CG        35.3560  110.2070  154.8170 C.3    76  GLU76       0.1163
     78  CD        34.0600  111.0680  154.8940 C.2    76  GLU76       0.3649
     79  OE1       33.5380  111.5790  153.8580 O.co2  76  GLU76      -0.2457
     80  OE2       33.5430  111.1950  156.0280 O.co2  76  GLU76      -0.2457
     81  N         37.2010  119.6310  155.9450 N.3    94  THR94      -0.1203
     82  CA        36.4060  120.3930  156.8970 C.3    94  THR94       0.1994
     83  C         36.6770  119.9680  158.3370 C.2    94  THR94       0.2617
     84  O         36.9630  120.8060  159.2010 O.2    94  THR94      -0.2717
     85  CB        34.9140  120.2440  156.5390 C.3    94  THR94       0.1784
     86  OG1       34.5910  118.8570  156.3860 O.3    94  THR94      -0.2211
     87  CG2       34.6380  120.9240  155.2170 C.3    94  THR94       0.0376
     88  N         36.6520  118.6650  158.5950 N.am   95  ASN95      -0.1974
     89  CA        36.7420  118.1350  159.9430 C.3    95  ASN95       0.1688
     90  C         36.8210  116.6220  159.8360 C.2    95  ASN95       0.2292
     91  O         36.4830  116.0530  158.7980 O.2    95  ASN95      -0.2864
     92  CB        35.5190  118.5480  160.7720 C.3    95  ASN95       0.1181
     93  CG        34.2190  118.2990  160.0230 C.2    95  ASN95       0.2629
     94  OD1       33.8980  117.1570  159.6760 O.2    95  ASN95      -0.2716
     95  ND2       33.4810  119.3670  159.7440 N.am   95  ASN95      -0.0877
     96  N         35.2620  113.9460  162.4840 N.3    97  PHE97      -0.1241
     97  CA        34.6190  113.6140  163.7770 C.3    97  PHE97       0.1605
     98  C         34.4320  112.1030  163.8970 C.2    97  PHE97       0.2264
     99  O         33.9020  111.4750  162.9730 O.2    97  PHE97      -0.2867
    100  CB        33.2680  114.3160  163.9010 C.3    97  PHE97       0.0534
    101  CG        33.3500  115.8170  163.8890 C.ar   97  PHE97      -0.0203
    102  CD1       34.0800  116.4920  164.8490 C.ar   97  PHE97      -0.0042
    103  CD2       32.7080  116.5520  162.9100 C.ar   97  PHE97      -0.0042
    104  CE1       34.1600  117.8720  164.8350 C.ar   97  PHE97      -0.0003
    105  CE2       32.7920  117.9320  162.8950 C.ar   97  PHE97      -0.0003
    106  CZ        33.5140  118.5890  163.8590 C.ar   97  PHE97      -0.0000
    107  N         34.2130  123.6930  170.1110 N.3   177  TYR177     -0.1241
    108  CA        33.2320  122.6130  170.3780 C.3   177  TYR177      0.1605
    109  C         33.8990  121.2720  170.0810 C.2   177  TYR177      0.2264
    110  O         34.7340  121.2220  169.1700 O.2   177  TYR177     -0.2867
    111  CB        31.9500  122.8010  169.5640 C.3   177  TYR177      0.0534
    112  CG        32.1080  122.6650  168.0730 C.ar  177  TYR177     -0.0201
    113  CD1       31.9630  121.4410  167.4500 C.ar  177  TYR177     -0.0009
    114  CD2       32.3910  123.7630  167.2830 C.ar  177  TYR177     -0.0009
    115  CE1       32.0990  121.3070  166.0800 C.ar  177  TYR177      0.0417
    116  CE2       32.5320  123.6470  165.9110 C.ar  177  TYR177      0.0417
    117  CZ        32.3860  122.4140  165.3070 C.ar  177  TYR177      0.1957
    118  OH        32.5240  122.2880  163.9590 O.3   177  TYR177     -0.2866
    119  N         27.5990  125.8310  163.2100 N.3   224  PHE224     -0.1227
    120  CA        28.5980  125.0260  162.4600 C.3   224  PHE224      0.1736
    121  C         28.8170  125.5320  161.0300 C.2   224  PHE224      0.2595
    122  O         29.9310  125.3460  160.5250 O.2   224  PHE224     -0.2718
    123  CB        28.1930  123.5500  162.4700 C.3   224  PHE224      0.0547
    124  CG        28.0860  122.9400  163.8450 C.ar  224  PHE224     -0.0202
    125  CD1       29.0210  123.2310  164.8250 C.ar  224  PHE224     -0.0042
    126  CD2       27.0500  122.0780  164.1630 C.ar  224  PHE224     -0.0042
    127  CE1       28.9230  122.6710  166.0900 C.ar  224  PHE224     -0.0003
    128  CE2       26.9560  121.5160  165.4260 C.ar  224  PHE224     -0.0003
    129  CZ        27.8900  121.8150  166.3890 C.ar  224  PHE224     -0.0000
    130  N         27.8520  126.2430  160.4450 N.am  225  ASN225     -0.1974
    131  CA        28.0280  126.7130  159.0780 C.3   225  ASN225      0.1688
    132  C         29.0310  127.8610  158.9660 C.2   225  ASN225      0.2292
    133  O         29.4580  128.1700  157.8500 O.2   225  ASN225     -0.2864
    134  CB        26.6610  127.1060  158.4670 C.3   225  ASN225      0.1181
    135  CG        25.9510  125.9040  157.8390 C.2   225  ASN225      0.2629
    136  OD1       26.5850  125.0530  157.1990 O.2   225  ASN225     -0.2716
    137  ND2       24.6440  125.8160  158.0410 N.am  225  ASN225     -0.0877
    138  N         32.0430  127.5340  159.9330 N.3   227  TYR227     -0.1227
    139  CA        33.2150  126.7940  159.4750 C.3   227  TYR227      0.1736
    140  C         33.0960  126.3880  158.0140 C.2   227  TYR227      0.2595
    141  O         34.0780  126.4730  157.2650 O.2   227  TYR227     -0.2718
    142  CB        33.4420  125.5660  160.3500 C.3   227  TYR227      0.0548
    143  CG        34.3310  125.8540  161.5250 C.ar  227  TYR227     -0.0200
    144  CD1       35.7240  125.9150  161.3740 C.ar  227  TYR227     -0.0009
    145  CD2       33.7920  126.1200  162.7800 C.ar  227  TYR227     -0.0009
    146  CE1       36.5520  126.1850  162.4630 C.ar  227  TYR227      0.0417
    147  CE2       34.5870  126.3990  163.8650 C.ar  227  TYR227      0.0417
    148  CZ        35.9840  126.4210  163.7000 C.ar  227  TYR227      0.1957
    149  OH        36.7840  126.6760  164.7740 O.3   227  TYR227     -0.2866
    150  N         31.9090  125.9520  157.5830 N.am  228  ASN228     -0.1974
    151  CA        31.7330  125.5950  156.1790 C.3   228  ASN228      0.1688
    152  C         31.8860  126.8150  155.2750 C.2   228  ASN228      0.2292
    153  O         32.5380  126.7430  154.2300 O.2   228  ASN228     -0.2864
    154  CB        30.3670  124.9240  155.9800 C.3   228  ASN228      0.1181
    155  CG        30.2210  123.6810  156.8310 C.2   228  ASN228      0.2629
    156  OD1       31.2170  122.9780  157.0800 O.2   228  ASN228     -0.2716
    157  ND2       28.9990  123.4040  157.3030 N.am  228  ASN228     -0.0877
@<TRIPOS>BOND
     1    55    56    1
     2    43    44    1
     3    47    48    1
     4    58    57    2
     5    49    48    1
     6    49    50    2
     7    48    51    1
     8    45    44    1
     9    45    46    2
    10    57    56    1
    11    56    59    1
    12    59    60    1
    13    51    52    1
    14    53    52    2
    15    63    61   ar
    16    60    61    1
    17    52    54   am
    18    61    62   ar
    19    64    65    1
    20    67    66    2
    21    32    31    2
    22    68    65    1
    23    68    69    1
    24    65    66    1
    25    35    33    1
    26    71    69   ar
    27    66    72   am
    28    34    33    1
    29    23    22    2
    30    30    31    1
    31    30    33    1
    32    30    29    1
    33    69    70   ar
    34    31    36   am
    35    39    38    2
    36    75    74    2
    37    22    29   am
    38    22    21    1
    39    38    37    1
    40    72    73    1
    41    74    73    1
    42    36    37    1
    43    24    21    1
    44    24    25    1
    45    26    27    1
    46    26    25    1
    47    37    40    1
    48    73    76    1
    49    27    28    1
    50    21    20    1
    51    79    78   ar
    52    40    42    1
    53    40    41    1
    54    76    77    1
    55    20    18   am
    56    19    18    2
    57   153   152    2
    58    18    17    1
    59    77    78    1
    60    78    80   ar
    61    87    85    1
    62   152   151    1
    63    81    82    1
    64   154   151    1
    65   154   155    1
    66   151   150    1
    67    17    16    1
    68    86    85    1
    69    85    82    1
    70    16    10   am
    71   155   156    2
    72   155   157   am
    73    82    83    1
    74     4     3    2
    75   136   135    2
    76   141   140    2
    77     1     2    1
    78    11    10    2
    79    10     9    1
    80   150   140   am
    81     3     2    1
    82     3     8   am
    83     2     5    1
    84   135   137   am
    85   135   134    1
    86   133   132    2
    87   140   139    1
    88     9     8    1
    89     9    12    1
    90    83    88   am
    91    83    84    2
    92   134   131    1
    93    88    89    1
    94    91    90    2
    95   132   131    1
    96     7     5    1
    97   131   130    1
    98     5     6    1
    99   139   138    1
   100   139   142    1
   101    12    13    1
   102    94    93    2
   103    95    93   am
   104    90    89    1
   105    89    92    1
   106    93    92    1
   107   142   143    1
   108    13    15   am
   109    13    14    2
   110   130   121   am
   111   122   121    2
   112   121   120    1
   113   144   143   ar
   114   144   146   ar
   115   143   145   ar
   116   120   123    1
   117   120   119    1
   118   146   148   ar
   119   123   124    1
   120    96    97    1
   121   145   147   ar
   122   105   103   ar
   123   105   106   ar
   124   103   101   ar
   125    99    98    2
   126   148   147   ar
   127   148   149    1
   128    97    98    1
   129    97   100    1
   130   124   126   ar
   131   124   125   ar
   132   106   104   ar
   133   101   100    1
   134   101   102   ar
   135   118   117    1
   136   126   128   ar
   137   125   127   ar
   138   104   102   ar
   139   117   116   ar
   140   117   115   ar
   141   128   129   ar
   142   116   114   ar
   143   115   113   ar
   144   127   129   ar
   145   114   112   ar
   146   113   112   ar
   147   112   111    1
   148   110   109    2
   149   111   108    1
   150   109   108    1
   151   107   108    1
