@<TRIPOS>MOLECULE
tmp/6h5wA06.pdb
 185 173 0 0 0
SMALL
GASTEIGER

@<TRIPOS>ATOM
      1  N        -15.1830  -24.5510   32.2630 N.3   132  THR132     -0.1218
      2  CA       -15.9410  -25.6190   32.9090 C.3   132  THR132      0.1862
      3  C        -15.1120  -26.5870   33.7360 C.2   132  THR132      0.2287
      4  O        -15.6740  -27.2290   34.6300 O.2   132  THR132     -0.2866
      5  CB       -16.7440  -26.4440   31.8820 C.3   132  THR132      0.1770
      6  OG1      -15.8460  -27.1340   31.0000 O.3   132  THR132     -0.2211
      7  CG2      -17.6920  -25.5660   31.0820 C.3   132  THR132      0.0375
      8  N        -12.8910  -28.0370   36.6320 N.3   134  ARG134     -0.1245
      9  CA       -12.7010  -27.6930   38.0330 C.3   134  ARG134      0.1563
     10  C        -11.5640  -28.5090   38.6350 C.2   134  ARG134      0.2260
     11  O        -11.5140  -28.7350   39.8540 O.2   134  ARG134     -0.2867
     12  CB       -14.0110  -27.8940   38.7980 C.3   134  ARG134      0.0307
     13  CG       -15.1520  -27.0260   38.2820 C.3   134  ARG134      0.0489
     14  CD       -14.8860  -25.5720   38.5590 C.3   134  ARG134      0.2205
     15  NE       -15.9460  -24.6820   38.0800 N.pl3 134  ARG134     -0.0865
     16  CZ       -15.9040  -23.9780   36.9560 C.cat 134  ARG134      0.5346
     17  NH1      -16.9210  -23.2020   36.6410 N.pl3 134  ARG134      0.1354
     18  NH2      -14.8650  -24.0590   36.1400 N.pl3 134  ARG134      0.1354
     19  N        -16.8520  -14.6540   35.4440 N.3   245  SER245     -0.1202
     20  CA       -18.1920  -15.1410   35.7470 C.3   245  SER245      0.2020
     21  C        -18.3970  -16.6380   35.4980 C.2   245  SER245      0.2618
     22  O        -19.3840  -17.1870   36.0080 O.2   245  SER245     -0.2717
     23  CB       -19.2580  -14.3310   35.0470 C.3   245  SER245      0.2103
     24  OG       -19.1900  -14.5980   33.6780 O.3   245  SER245     -0.2182
     25  N        -17.4950  -17.3230   34.7760 N.am  246  ASN246     -0.1974
     26  CA       -17.6530  -18.7510   34.5700 C.3   246  ASN246      0.1688
     27  C        -17.4120  -19.5590   35.8290 C.2   246  ASN246      0.2292
     28  O        -17.7880  -20.7360   35.8530 O.2   246  ASN246     -0.2864
     29  CB       -16.7840  -19.2660   33.4220 C.3   246  ASN246      0.1181
     30  CG       -17.2980  -18.8150   32.0960 C.2   246  ASN246      0.2629
     31  OD1      -18.5050  -18.8320   31.8300 O.2   246  ASN246     -0.2716
     32  ND2      -16.4080  -18.3360   31.2800 N.am  246  ASN246     -0.0877
     33  N        -18.8990  -18.6850   38.6170 N.3   248  TYR248     -0.1227
     34  CA       -20.0430  -18.3570   39.4610 C.3   248  TYR248      0.1736
     35  C        -20.4360  -19.5330   40.3580 C.2   248  TYR248      0.2595
     36  O        -20.7690  -19.3340   41.5320 O.2   248  TYR248     -0.2718
     37  CB       -21.2150  -17.9110   38.5820 C.3   248  TYR248      0.0548
     38  CG       -22.4740  -17.5920   39.3510 C.ar  248  TYR248     -0.0200
     39  CD1      -22.6310  -16.3780   40.0070 C.ar  248  TYR248     -0.0009
     40  CD2      -23.4980  -18.5320   39.4590 C.ar  248  TYR248     -0.0009
     41  CE1      -23.7820  -16.0910   40.7120 C.ar  248  TYR248      0.0417
     42  CE2      -24.6620  -18.2540   40.1700 C.ar  248  TYR248      0.0417
     43  CZ       -24.7960  -17.0290   40.7900 C.ar  248  TYR248      0.1957
     44  OH       -25.9240  -16.7260   41.5230 O.3   248  TYR248     -0.2866
     45  N        -20.4050  -20.7600   39.8170 N.am  249  ASP249     -0.1974
     46  CA       -20.7720  -21.9540   40.5830 C.3   249  ASP249      0.1709
     47  C        -19.9440  -22.1200   41.8500 C.2   249  ASP249      0.2293
     48  O        -20.4330  -22.6870   42.8350 O.2   249  ASP249     -0.2864
     49  CB       -20.6210  -23.2190   39.7250 C.3   249  ASP249      0.1436
     50  CG       -19.1980  -23.3910   39.1720 C.2   249  ASP249      0.3671
     51  OD1      -18.6960  -22.4520   38.5240 O.co2 249  ASP249     -0.2456
     52  OD2      -18.5730  -24.4570   39.3960 O.co2 249  ASP249     -0.2456
     53  N        -29.9600  -20.5720   40.0420 N.3   259  SER259     -0.1202
     54  CA       -30.4250  -20.0670   38.7630 C.3   259  SER259      0.2020
     55  C        -30.4380  -21.1910   37.7360 C.2   259  SER259      0.2619
     56  O        -29.6010  -22.0910   37.7690 O.2   259  SER259     -0.2717
     57  CB       -29.5010  -18.9520   38.2420 C.3   259  SER259      0.2103
     58  OG       -29.6090  -17.7740   39.0160 O.3   259  SER259     -0.2182
     59  N        -31.4020  -21.1270   36.8280 N.am  260  MET260     -0.1965
     60  CA       -31.4430  -22.0830   35.7420 C.3   260  MET260      0.1736
     61  C        -30.1120  -22.1020   35.0080 C.2   260  MET260      0.2616
     62  O        -29.3990  -21.0950   34.9210 O.2   260  MET260     -0.2715
     63  CB       -32.5420  -21.6940   34.7680 C.3   260  MET260      0.0427
     64  CG       -33.9290  -21.9880   35.2700 C.3   260  MET260      0.0599
     65  SD       -35.1130  -21.8400   33.9460 S.3   260  MET260     -0.1393
     66  CE       -34.5850  -23.2100   32.9880 C.3   260  MET260      0.0692
     67  N        -29.7780  -23.2700   34.4750 N.am  261  ASP261     -0.1957
     68  CA       -28.5990  -23.4120   33.6230 C.3   261  ASP261      0.1840
     69  C        -28.9380  -22.7860   32.2750 C.2   261  ASP261      0.2623
     70  O        -29.7200  -23.3430   31.4940 O.2   261  ASP261     -0.2715
     71  CB       -28.2500  -24.8970   33.5030 C.3   261  ASP261      0.1450
     72  CG       -27.1020  -25.1860   32.5320 C.2   261  ASP261      0.3671
     73  OD1      -26.8180  -24.3660   31.6530 O.co2 261  ASP261     -0.2456
     74  OD2      -26.5120  -26.2900   32.6350 O.co2 261  ASP261     -0.2456
     75  N        -28.3400  -21.6310   31.9990 N.am  262  THR262     -0.1937
     76  CA       -28.7100  -20.8470   30.8240 C.3   262  THR262      0.2028
     77  C        -28.2290  -21.4860   29.5250 C.2   262  THR262      0.2642
     78  O        -28.8700  -21.3050   28.4890 O.2   262  THR262     -0.2714
     79  CB       -28.1940  -19.4040   30.9440 C.3   262  THR262      0.1808
     80  OG1      -26.7710  -19.3910   31.1500 O.3   262  THR262     -0.2208
     81  CG2      -28.8840  -18.6730   32.0990 C.3   262  THR262      0.0379
     82  N        -27.0910  -22.1850   29.5390 N.am  263  THR263     -0.1950
     83  CA       -26.6300  -22.8550   28.3260 C.3   263  THR263      0.1897
     84  C        -27.5950  -23.9650   27.9340 C.2   263  THR263      0.2313
     85  O        -27.9960  -24.0740   26.7680 O.2   263  THR263     -0.2863
     86  CB       -25.2290  -23.4260   28.5280 C.3   263  THR263      0.1794
     87  OG1      -24.3230  -22.3800   28.8800 O.3   263  THR263     -0.2208
     88  CG2      -24.7510  -24.0950   27.2640 C.3   263  THR263      0.0378
     89  N        -24.3830  -19.8480   24.1130 N.3   335  ASN335     -0.1225
     90  CA       -24.3880  -19.6630   25.5590 C.3   335  ASN335      0.1785
     91  C        -24.5770  -18.1820   25.8530 C.2   335  ASN335      0.2597
     92  O        -24.5530  -17.3420   24.9510 O.2   335  ASN335     -0.2718
     93  CB       -23.1220  -20.2420   26.2160 C.3   335  ASN335      0.1169
     94  CG       -21.8280  -19.5870   25.7480 C.2   335  ASN335      0.2627
     95  OD1      -21.7590  -18.4020   25.4530 O.2   335  ASN335     -0.2716
     96  ND2      -20.7780  -20.3740   25.7300 N.am  335  ASN335     -0.0877
     97  N        -24.7600  -17.8700   27.1410 N.am  336  LEU336     -0.1980
     98  CA       -25.0820  -16.5070   27.5350 C.3   336  LEU336      0.1596
     99  C        -23.8860  -15.5760   27.3580 C.2   336  LEU336      0.2287
    100  O        -24.0430  -14.4240   26.9270 O.2   336  LEU336     -0.2864
    101  CB       -25.5670  -16.5060   28.9820 C.3   336  LEU336      0.0297
    102  CG       -25.9520  -15.1610   29.5650 C.3   336  LEU336      0.0022
    103  CD1      -26.9730  -14.4860   28.6960 C.3   336  LEU336      0.0001
    104  CD2      -26.5060  -15.3670   30.9590 C.3   336  LEU336      0.0001
    105  N        -23.8920  -12.0380   25.0770 N.3   340  VAL340     -0.1245
    106  CA       -23.3770  -10.7140   25.4210 C.3   340  VAL340      0.1561
    107  C        -22.4030  -10.2270   24.3490 C.2   340  VAL340      0.2260
    108  O        -22.4950   -9.0880   23.8800 O.2   340  VAL340     -0.2867
    109  CB       -22.7650  -10.7290   26.8370 C.3   340  VAL340      0.0252
    110  CG1      -22.0690   -9.4380   27.1310 C.3   340  VAL340      0.0019
    111  CG2      -23.8470  -10.9910   27.8670 C.3   340  VAL340      0.0019
    112  N        -29.1640   -8.6900   30.2610 N.3   383  SER383     -0.1217
    113  CA       -28.6140   -9.5390   31.3090 C.3   383  SER383      0.1889
    114  C        -29.4270   -9.5230   32.5960 C.2   383  SER383      0.2288
    115  O        -29.1790  -10.3760   33.4520 O.2   383  SER383     -0.2866
    116  CB       -27.1780   -9.1080   31.6370 C.3   383  SER383      0.2089
    117  OG       -26.3140   -9.3320   30.5430 O.3   383  SER383     -0.2183
    118  N        -32.1790  -10.3290   35.3440 N.3   385  PRO385     -0.2116
    119  CA       -32.9830  -11.5440   35.4940 C.3   385  PRO385      0.1372
    120  C        -34.3810  -11.4110   34.9200 C.2   385  PRO385      0.2244
    121  O        -34.8950  -12.3670   34.3340 O.2   385  PRO385     -0.2868
    122  CB       -32.9570  -11.7760   37.0120 C.3   385  PRO385      0.0268
    123  CG       -31.6130  -11.2280   37.4060 C.3   385  PRO385      0.0207
    124  CD       -31.4950   -9.9740   36.6030 C.3   385  PRO385      0.0892
    125  N        -33.9440  -11.9010   31.0980 N.3   388  LEU388     -0.1245
    126  CA       -33.5990  -13.2790   30.7620 C.3   388  LEU388      0.1561
    127  C        -34.7720  -14.2130   31.0110 C.2   388  LEU388      0.2260
    128  O        -34.9840  -15.1690   30.2590 O.2   388  LEU388     -0.2867
    129  CB       -32.3690  -13.7270   31.5460 C.3   388  LEU388      0.0270
    130  CG       -31.0410  -13.0560   31.1610 C.3   388  LEU388      0.0019
    131  CD1      -29.9260  -13.4550   32.1060 C.3   388  LEU388      0.0001
    132  CD2      -30.6840  -13.3800   29.7170 C.3   388  LEU388      0.0001
    133  N        -34.0820  -17.9200   32.2420 N.3   394  LEU394     -0.1245
    134  CA       -34.0580  -18.0500   33.6930 C.3   394  LEU394      0.1561
    135  C        -35.4880  -18.2590   34.1570 C.2   394  LEU394      0.2260
    136  O        -36.4460  -17.9320   33.4440 O.2   394  LEU394     -0.2867
    137  CB       -33.5020  -16.7930   34.3930 C.3   394  LEU394      0.0270
    138  CG       -32.0060  -16.4860   34.2750 C.3   394  LEU394      0.0019
    139  CD1      -31.7450  -15.2070   35.0320 C.3   394  LEU394      0.0001
    140  CD2      -31.1740  -17.6080   34.8230 C.3   394  LEU394      0.0001
    141  N        -36.9620  -14.7600   39.1900 N.3   397  GLU397     -0.1245
    142  CA       -36.0390  -14.5250   40.2960 C.3   397  GLU397      0.1567
    143  C        -36.3530  -13.2520   41.0680 C.2   397  GLU397      0.2260
    144  O        -35.5980  -12.8940   41.9790 O.2   397  GLU397     -0.2867
    145  CB       -34.5910  -14.4790   39.7910 C.3   397  GLU397      0.0388
    146  CG       -34.1100  -15.7930   39.1660 C.3   397  GLU397      0.1160
    147  CD       -32.6540  -15.7750   38.7400 C.2   397  GLU397      0.3649
    148  OE1      -32.1300  -16.8640   38.3690 O.co2 397  GLU397     -0.2457
    149  OE2      -32.0260  -14.6860   38.7500 O.co2 397  GLU397     -0.2457
    150  N        -27.3230  -12.0520   41.5070 N.3   407  PHE407     -0.1241
    151  CA       -27.2080  -11.3970   40.2030 C.3   407  PHE407      0.1605
    152  C        -26.0890  -10.3610   40.1960 C.2   407  PHE407      0.2264
    153  O        -25.2930  -10.2850   39.2490 O.2   407  PHE407     -0.2867
    154  CB       -28.5390  -10.7520   39.7890 C.3   407  PHE407      0.0534
    155  CG       -28.4110   -9.8750   38.5810 C.ar  407  PHE407     -0.0203
    156  CD1      -28.0480  -10.4090   37.3600 C.ar  407  PHE407     -0.0042
    157  CD2      -28.6290   -8.5130   38.6700 C.ar  407  PHE407     -0.0042
    158  CE1      -27.8920   -9.5950   36.2450 C.ar  407  PHE407     -0.0003
    159  CE2      -28.4640   -7.6990   37.5710 C.ar  407  PHE407     -0.0003
    160  CZ       -28.1160   -8.2540   36.3460 C.ar  407  PHE407     -0.0000
    161  N        -22.8540  -12.1260   39.8710 N.3   410  LYS410     -0.1231
    162  CA       -22.6260  -12.5840   38.5040 C.3   410  LYS410      0.1693
    163  C        -22.1170  -11.4390   37.6320 C.2   410  LYS410      0.2591
    164  O        -21.1680  -11.6080   36.8570 O.2   410  LYS410     -0.2718
    165  CB       -23.9180  -13.1680   37.9250 C.3   410  LYS410      0.0285
    166  CG       -23.8530  -13.5550   36.4580 C.3   410  LYS410      0.0035
    167  CD       -22.9830  -14.7880   36.2220 C.3   410  LYS410      0.0206
    168  CE       -22.7150  -15.0120   34.7320 C.3   410  LYS410      0.1093
    169  NZ       -23.9150  -15.3970   33.9770 N.3   410  LYS410     -0.1314
    170  N        -22.7370  -10.2690   37.7420 N.am  411  MET411     -0.1979
    171  CA       -22.3030   -9.1060   36.9730 C.3   411  MET411      0.1605
    172  C        -20.9220   -8.6250   37.3950 C.2   411  MET411      0.2287
    173  O        -20.1030   -8.2970   36.5480 O.2   411  MET411     -0.2864
    174  CB       -23.3150   -7.9750   37.1140 C.3   411  MET411      0.0413
    175  CG       -24.6690   -8.3170   36.5250 C.3   411  MET411      0.0598
    176  SD       -24.6580   -8.6760   34.7470 S.3   411  MET411     -0.1393
    177  CE       -24.1290   -7.1190   34.0540 C.3   411  MET411      0.0692
    178  N        -17.7250  -10.3330   36.0030 N.3   414  ASP414     -0.1239
    179  CA       -17.2420   -9.8700   34.7110 C.3   414  ASP414      0.1674
    180  C        -16.8230   -8.4010   34.7220 C.2   414  ASP414      0.2266
    181  O        -15.6860   -8.0580   34.3500 O.2   414  ASP414     -0.2867
    182  CB       -18.3160  -10.1720   33.6770 C.3   414  ASP414      0.1410
    183  CG       -18.3580  -11.6380   33.3250 C.2   414  ASP414      0.3668
    184  OD1      -17.3750  -12.3620   33.6230 O.co2 414  ASP414     -0.2456
    185  OD2      -19.3830  -12.0890   32.7790 O.co2 414  ASP414     -0.2456
@<TRIPOS>BOND
     1   108   107    2
     2    89    90    1
     3   107   106    1
     4    92    91    2
     5   105   106    1
     6   106   109    1
     7    95    94    2
     8    90    91    1
     9    90    93    1
    10    96    94   am
    11    94    93    1
    12    91    97   am
    13    85    84    2
    14   109   110    1
    15   109   111    1
    16   100    99    2
    17    97    98    1
    18    88    86    1
    19    99    98    1
    20    98   101    1
    21    84    83    1
    22    83    86    1
    23    83    82    1
    24    78    77    2
    25    86    87    1
    26   103   102    1
    27   101   102    1
    28    77    82   am
    29    77    76    1
    30   102   104    1
    31   132   130    1
    32   128   127    2
    33   112   113    1
    34   117   116    1
    35   126   127    1
    36   126   125    1
    37   126   129    1
    38    76    79    1
    39    76    75    1
    40    79    80    1
    41    79    81    1
    42     6     5    1
    43     7     5    1
    44   130   129    1
    45   130   131    1
    46    32    30   am
    47   113   116    1
    48   113   114    1
    49    70    69    2
    50    73    72   ar
    51    31    30    2
    52     5     2    1
    53    75    69   am
    54    30    29    1
    55   133   134    1
    56     1     2    1
    57    69    68    1
    58    72    74   ar
    59    72    71    1
    60   114   115    2
    61   185   183   ar
    62     2     3    1
    63    66    65    1
    64   183   184   ar
    65   183   182    1
    66    29    26    1
    67   136   135    2
    68    71    68    1
    69    68    67    1
    70   182   179    1
    71    24    23    1
    72   134   135    1
    73   134   137    1
    74     3     4    2
    75    65    64    1
    76   169   168    1
    77   177   176    1
    78   138   137    1
    79   138   140    1
    80   138   139    1
    81   121   120    2
    82   181   180    2
    83    67    61   am
    84    26    25    1
    85    26    27    1
    86   179   180    1
    87   179   178    1
    88   168   167    1
    89   176   175    1
    90    63    64    1
    91    63    60    1
    92    25    21   am
    93   120   119    1
    94    62    61    2
    95    61    60    1
    96    23    20    1
    97   118   119    1
    98   118   124    1
    99    19    20    1
   100   119   122    1
   101    21    20    1
   102    21    22    2
   103    60    59    1
   104    27    28    2
   105    18    16    1
   106   167   166    1
   107   158   160   ar
   108   158   156   ar
   109   160   159   ar
   110   166   165    1
   111   175   174    1
   112   173   172    2
   113   124   123    1
   114     8     9    1
   115    17    16    1
   116    59    55   am
   117   164   163    2
   118    16    15    2
   119   171   174    1
   120   171   172    1
   121   171   170    1
   122   122   123    1
   123   156   155   ar
   124   159   157   ar
   125   163   170   am
   126   163   162    1
   127    55    56    2
   128    55    54    1
   129   165   162    1
   130     9    10    1
   131     9    12    1
   132    15    14    1
   133    57    54    1
   134    57    58    1
   135    13    14    1
   136    13    12    1
   137   148   147   ar
   138   162   161    1
   139    51    50   ar
   140   155   157   ar
   141   155   154    1
   142    37    38    1
   143    37    34    1
   144    33    34    1
   145    10    11    2
   146   147   149   ar
   147   147   146    1
   148    54    53    1
   149   146   145    1
   150    50    52   ar
   151    50    49    1
   152   141   142    1
   153   153   152    2
   154    38    40   ar
   155    38    39   ar
   156    40    42   ar
   157    34    35    1
   158    49    46    1
   159   154   151    1
   160   145   142    1
   161    45    35   am
   162    45    46    1
   163    39    41   ar
   164    42    43   ar
   165   152   151    1
   166   151   150    1
   167   142   143    1
   168    35    36    2
   169    46    47    1
   170    41    43   ar
   171    43    44    1
   172   143   144    2
   173    47    48    2
