@<TRIPOS>MOLECULE
tmp/6h5xB05.pdb
 93 90 0 0 0
SMALL
GASTEIGER

@<TRIPOS>ATOM
      1  N        -27.8730   71.8700   -6.9190 N.3   225  PHE225     -0.1241
      2  CA       -26.8710   71.4410   -7.8900 C.3   225  PHE225      0.1605
      3  C        -27.1900   71.9820   -9.2780 C.2   225  PHE225      0.2264
      4  O        -26.3100   72.4950   -9.9780 O.2   225  PHE225     -0.2867
      5  CB       -26.8340   69.9150   -7.8680 C.3   225  PHE225      0.0534
      6  CG       -25.7780   69.2960   -8.7230 C.ar  225  PHE225     -0.0203
      7  CD1      -24.4780   69.1810   -8.2650 C.ar  225  PHE225     -0.0042
      8  CD2      -26.1000   68.7820   -9.9630 C.ar  225  PHE225     -0.0042
      9  CE1      -23.5160   68.5880   -9.0450 C.ar  225  PHE225     -0.0003
     10  CE2      -25.1440   68.1890  -10.7490 C.ar  225  PHE225     -0.0003
     11  CZ       -23.8540   68.0800  -10.2840 C.ar  225  PHE225     -0.0000
     12  N        -26.6240   75.7360   -9.5520 N.3   228  ARG228     -0.1231
     13  CA       -25.2090   76.0160   -9.7790 C.3   228  ARG228      0.1694
     14  C        -24.8310   75.8210  -11.2450 C.2   228  ARG228      0.2591
     15  O        -24.0780   76.6220  -11.8080 O.2   228  ARG228     -0.2718
     16  CB       -24.3540   75.1210   -8.8820 C.3   228  ARG228      0.0321
     17  CG       -22.8540   75.2000   -9.1300 C.3   228  ARG228      0.0489
     18  CD       -22.3070   76.5770   -8.8080 C.3   228  ARG228      0.2205
     19  NE       -22.4820   76.9270   -7.4020 N.pl3 228  ARG228     -0.0865
     20  CZ       -21.9630   78.0080   -6.8290 C.cat 228  ARG228      0.5346
     21  NH1      -21.2250   78.8470   -7.5400 N.pl3 228  ARG228      0.1354
     22  NH2      -22.1770   78.2460   -5.5420 N.pl3 228  ARG228      0.1354
     23  N        -25.3320   74.7560  -11.8780 N.am  229  ALA229     -0.1980
     24  CA       -25.0200   74.5170  -13.2860 C.3   229  ALA229      0.1597
     25  C        -25.5780   75.6300  -14.1670 C.2   229  ALA229      0.2287
     26  O        -24.9230   76.0680  -15.1200 O.2   229  ALA229     -0.2864
     27  CB       -25.5680   73.1600  -13.7190 C.3   229  ALA229      0.0319
     28  N        -23.4300   78.7850  -13.9630 N.3   232  ARG232     -0.1231
     29  CA       -22.2130   78.7230  -14.7630 C.3   232  ARG232      0.1694
     30  C        -22.4710   79.0820  -16.2220 C.2   232  ARG232      0.2591
     31  O        -21.5550   79.5350  -16.9190 O.2   232  ARG232     -0.2718
     32  CB       -21.5960   77.3290  -14.6300 C.3   232  ARG232      0.0321
     33  CG       -20.9490   77.1140  -13.2750 C.3   232  ARG232      0.0489
     34  CD       -20.7150   75.6530  -12.9890 C.3   232  ARG232      0.2205
     35  NE       -19.9400   75.0060  -14.0390 N.pl3 232  ARG232     -0.0865
     36  CZ       -19.8350   73.6910  -14.1730 C.cat 232  ARG232      0.5346
     37  NH1      -20.4600   72.8940  -13.3240 N.pl3 232  ARG232      0.1354
     38  NH2      -19.1120   73.1760  -15.1550 N.pl3 232  ARG232      0.1354
     39  N        -23.6990   78.9040  -16.7070 N.am  233  ARG233     -0.1980
     40  CA       -24.0150   79.2730  -18.0880 C.3   233  ARG233      0.1597
     41  C        -24.6390   80.6600  -18.2230 C.2   233  ARG233      0.2287
     42  O        -24.2800   81.4220  -19.1260 O.2   233  ARG233     -0.2864
     43  CB       -24.9630   78.2580  -18.7490 C.3   233  ARG233      0.0334
     44  CG       -24.2730   77.0870  -19.3990 C.3   233  ARG233      0.0492
     45  CD       -23.7220   76.2080  -18.3130 C.3   233  ARG233      0.2205
     46  NE       -23.0400   75.0260  -18.8220 N.pl3 233  ARG233     -0.0865
     47  CZ       -22.7320   73.9780  -18.0720 C.cat 233  ARG233      0.5346
     48  NH1      -22.1090   72.9350  -18.5940 N.pl3 233  ARG233      0.1354
     49  NH2      -23.0600   73.9710  -16.7890 N.pl3 233  ARG233      0.1354
     50  N        -26.2670   70.0730  -19.5040 N.3   264  MET264     -0.1230
     51  CA       -25.6290   71.0930  -18.6810 C.3   264  MET264      0.1702
     52  C        -25.2980   70.6120  -17.2810 C.2   264  MET264      0.2592
     53  O        -24.4850   71.2430  -16.5960 O.2   264  MET264     -0.2718
     54  CB       -26.5300   72.3240  -18.5450 C.3   264  MET264      0.0401
     55  CG       -26.4670   73.2530  -19.7240 C.3   264  MET264      0.0596
     56  SD       -27.3360   74.8090  -19.4890 S.3   264  MET264     -0.1393
     57  CE       -29.0220   74.2150  -19.3980 C.3   264  MET264      0.0692
     58  N        -25.9200   69.5300  -16.8310 N.am  265  VAL265     -0.1966
     59  CA       -25.7620   69.0830  -15.4530 C.3   265  VAL265      0.1727
     60  C        -25.0500   67.7460  -15.3340 C.2   265  VAL265      0.2616
     61  O        -24.6330   67.3890  -14.2220 O.2   265  VAL265     -0.2715
     62  CB       -27.1220   69.0200  -14.7280 C.3   265  VAL265      0.0290
     63  CG1      -27.8320   70.3660  -14.7900 C.3   265  VAL265      0.0023
     64  CG2      -28.0040   67.9520  -15.3510 C.3   265  VAL265      0.0023
     65  N        -24.8670   67.0120  -16.4260 N.am  266  VAL266     -0.1964
     66  CA       -24.3190   65.6560  -16.3530 C.3   266  VAL266      0.1712
     67  C        -22.9720   65.6690  -15.6350 C.2   266  VAL266      0.2458
     68  O        -22.0570   66.4040  -16.0300 O.2   266  VAL266     -0.2730
     69  CB       -24.2000   65.0140  -17.7470 C.3   266  VAL266      0.0289
     70  CG1      -23.3960   65.8970  -18.6980 C.3   266  VAL266      0.0023
     71  CG2      -23.5640   63.6230  -17.6450 C.3   266  VAL266      0.0023
     72  N        -22.8200   64.8680  -14.5730 N.am  267  PRO267     -0.2727
     73  CA       -21.5770   64.9410  -13.7820 C.3   267  PRO267      0.1402
     74  C        -20.3320   64.4670  -14.5120 C.2   267  PRO267      0.2269
     75  O        -19.2590   65.0510  -14.3170 O.2   267  PRO267     -0.2865
     76  CB       -21.8830   64.0530  -12.5650 C.3   267  PRO267      0.0296
     77  CG       -23.3760   64.0560  -12.4470 C.3   267  PRO267      0.0237
     78  CD       -23.9090   64.1770  -13.8480 C.3   267  PRO267      0.0939
     79  N        -19.2840   63.7380  -18.1980 N.3   269  PRO269     -0.2116
     80  CA       -19.6340   63.7120  -19.6290 C.3   269  PRO269      0.1372
     81  C        -18.7440   62.8190  -20.4940 C.2   269  PRO269      0.2244
     82  O        -19.0640   62.6450  -21.6760 O.2   269  PRO269     -0.2868
     83  CB       -19.5270   65.1890  -20.0490 C.3   269  PRO269      0.0268
     84  CG       -18.7080   65.8660  -18.9800 C.3   269  PRO269      0.0207
     85  CD       -18.9350   65.0910  -17.7160 C.3   269  PRO269      0.0892
     86  N        -19.2130   72.3510   -2.4450 N.3   585  ASN585     -0.1240
     87  CA       -19.3150   73.5850   -3.2060 C.3   585  ASN585      0.1653
     88  C        -19.8540   74.7470   -2.3850 C.2   585  ASN585      0.2266
     89  O        -19.9970   75.8510   -2.9200 O.2   585  ASN585     -0.2867
     90  CB       -20.1990   73.3600   -4.4390 C.3   585  ASN585      0.1155
     91  CG       -19.6000   72.3570   -5.4060 C.2   585  ASN585      0.2627
     92  OD1      -18.3820   72.1850   -5.4650 O.2   585  ASN585     -0.2716
     93  ND2      -20.4550   71.6890   -6.1720 N.am  585  ASN585     -0.0877
@<TRIPOS>BOND
     1    82    81    2
     2    81    80    1
     3    83    80    1
     4    83    84    1
     5    55    56    1
     6    55    54    1
     7    80    79    1
     8    50    51    1
     9    56    57    1
    10    44    43    1
    11    44    45    1
    12    42    41    2
    13    84    85    1
    14    46    45    1
    15    46    47    2
    16    43    40    1
    17    70    69    1
    18    51    54    1
    19    51    52    1
    20    48    47    1
    21    41    40    1
    22    79    85    1
    23    40    39    1
    24    47    49    1
    25    69    71    1
    26    69    66    1
    27    52    58   am
    28    52    53    2
    29    31    30    2
    30    58    59    1
    31    39    30   am
    32    65    66    1
    33    65    60   am
    34    66    67    1
    35    30    29    1
    36    68    67    2
    37    67    72   am
    38    59    60    1
    39    59    62    1
    40    64    62    1
    41    60    61    2
    42    38    36    1
    43    26    25    2
    44    63    62    1
    45    29    32    1
    46    29    28    1
    47    32    33    1
    48    72    78    1
    49    72    73    1
    50    74    75    2
    51    74    73    1
    52    36    35    2
    53    36    37    1
    54    25    24    1
    55    35    34    1
    56    78    77    1
    57    73    76    1
    58    27    24    1
    59    24    23    1
    60    33    34    1
    61    76    77    1
    62    23    14   am
    63    15    14    2
    64    14    13    1
    65    10    11   ar
    66    10     8   ar
    67    11     9   ar
    68     4     3    2
    69     8     6   ar
    70    13    12    1
    71    13    16    1
    72     3     2    1
    73    17    16    1
    74    17    18    1
    75     9     7   ar
    76    18    19    1
    77     6     7   ar
    78     6     5    1
    79     2     5    1
    80     2     1    1
    81    21    20    1
    82    19    20    2
    83    20    22    1
    84    93    91   am
    85    92    91    2
    86    91    90    1
    87    90    87    1
    88    87    86    1
    89    87    88    1
    90    89    88    2
