@<TRIPOS>MOLECULE
tmp/6h65C00.pdb
 161 153 0 0 0
SMALL
GASTEIGER

@<TRIPOS>ATOM
      1  N        -15.3380   23.6270   14.7410 N.3    37  GLY37      -0.1225
      2  CA       -16.6960   23.3980   15.2110 C.3    37  GLY37       0.1811
      3  C        -16.7760   23.5410   16.7440 C.2    37  GLY37       0.2280
      4  O        -15.9470   22.9550   17.4710 O.2    37  GLY37      -0.2866
      5  N        -10.4220   24.5770   21.5490 N.3    57  HIS57      -0.1241
      6  CA       -10.6840   24.7760   20.1320 C.3    57  HIS57       0.1621
      7  C         -9.7880   25.8640   19.5420 C.2    57  HIS57       0.2264
      8  O         -9.1810   25.6490   18.4950 O.2    57  HIS57      -0.2867
      9  CB       -12.1710   24.9900   19.8530 C.3    57  HIS57       0.0745
     10  CG       -12.9510   23.7150   19.9580 C.ar   57  HIS57       0.0817
     11  ND1      -12.9140   22.7390   18.9910 N.ar   57  HIS57      -0.2268
     12  CD2      -13.7390   23.2170   20.9180 C.ar   57  HIS57       0.1154
     13  CE1      -13.6970   21.7350   19.3240 C.ar   57  HIS57       0.1986
     14  NE2      -14.1620   21.9800   20.5260 N.ar   57  HIS57      -0.2212
     15  N         -6.2430   24.7910   19.0920 N.3    60  ARG60      -0.1245
     16  CA        -6.0370   23.9170   17.9540 C.3    60  ARG60       0.1563
     17  C         -5.9850   24.7270   16.6450 C.2    60  ARG60       0.2260
     18  O         -5.1870   24.4300   15.7460 O.2    60  ARG60      -0.2867
     19  CB        -7.0050   22.7330   17.9270 C.3    60  ARG60       0.0307
     20  CG        -6.7180   21.8220   16.7460 C.3    60  ARG60       0.0489
     21  CD        -7.5960   20.6060   16.7080 C.3    60  ARG60       0.2205
     22  NE        -9.0040   20.9950   16.5880 N.pl3  60  ARG60      -0.0865
     23  CZ       -10.0040   20.1320   16.6770 C.cat  60  ARG60       0.5346
     24  NH1       -9.7600   18.8910   17.0610 N.pl3  60  ARG60       0.1354
     25  NH2      -11.2420   20.5180   16.4730 N.pl3  60  ARG60       0.1354
     26  N         -9.3620    6.6790    3.3930 N.3   147  ARG147     -0.1245
     27  CA        -9.1100    7.9250    4.0870 C.3   147  ARG147      0.1563
     28  C         -7.8880    8.6160    3.4670 C.2   147  ARG147      0.2260
     29  O         -6.9070    7.9960    3.1920 O.2   147  ARG147     -0.2867
     30  CB        -8.6780    7.6020    5.5340 C.3   147  ARG147      0.0307
     31  CG        -8.6910    8.8370    6.4160 C.3   147  ARG147      0.0489
     32  CD       -10.1310    9.3780    6.7040 C.3   147  ARG147      0.2205
     33  NE       -10.0340   10.5440    7.5760 N.pl3 147  ARG147     -0.0865
     34  CZ       -10.4350   11.7780    7.3120 C.cat 147  ARG147      0.5346
     35  NH1      -10.8760   12.1050    6.1150 N.pl3 147  ARG147      0.1354
     36  NH2      -10.4160   12.7040    8.2540 N.pl3 147  ARG147      0.1354
     37  N         -5.3910   14.7360    7.4340 N.3   155  PRO155     -0.2116
     38  CA        -6.6800   14.7950    8.1030 C.3   155  PRO155      0.1372
     39  C         -6.5870   15.4630    9.4830 C.2   155  PRO155      0.2244
     40  O         -7.6010   15.9180    9.9980 O.2   155  PRO155     -0.2868
     41  CB        -7.1020   13.3380    8.2600 C.3   155  PRO155      0.0268
     42  CG        -5.9110   12.4850    7.9410 C.3   155  PRO155      0.0207
     43  CD        -4.9170   13.3660    7.1960 C.3   155  PRO155      0.0892
     44  N         -8.0940   20.7800   10.2760 N.3   158  LYS158     -0.1245
     45  CA        -9.5200   20.9330   10.0350 C.3   158  LYS158      0.1561
     46  C         -9.7420   22.1290    9.1100 C.2   158  LYS158      0.2260
     47  O         -9.8960   23.2680    9.5590 O.2   158  LYS158     -0.2867
     48  CB       -10.2660   21.0950   11.3510 C.3   158  LYS158      0.0271
     49  CG       -11.6800   20.5360   11.3460 C.3   158  LYS158      0.0035
     50  CD       -12.4880   21.0310   12.5600 C.3   158  LYS158      0.0206
     51  CE       -13.0900   19.8790   13.3540 C.3   158  LYS158      0.1093
     52  NZ       -14.2190   19.1930   12.6530 N.3   158  LYS158     -0.1314
     53  N        -12.5580   18.1600    3.3290 N.3   163  TYR163     -0.1241
     54  CA       -13.7630   17.3760    3.5560 C.3   163  TYR163      0.1605
     55  C        -14.2370   16.6600    2.2930 C.2   163  TYR163      0.2264
     56  O        -15.2490   15.9620    2.3200 O.2   163  TYR163     -0.2867
     57  CB       -14.8300   18.2970    4.1070 C.3   163  TYR163      0.0534
     58  CG       -14.6570   18.4490    5.5890 C.ar  163  TYR163     -0.0201
     59  CD1      -13.7980   19.3920    6.1270 C.ar  163  TYR163     -0.0009
     60  CD2      -15.3530   17.6060    6.4470 C.ar  163  TYR163     -0.0009
     61  CE1      -13.6570   19.5010    7.5010 C.ar  163  TYR163      0.0417
     62  CE2      -15.2810   17.7540    7.8210 C.ar  163  TYR163      0.0417
     63  CZ       -14.4080   18.6890    8.3480 C.ar  163  TYR163      0.1957
     64  OH       -14.3020   18.7950    9.7150 O.3   163  TYR163     -0.2866
     65  N        -14.4350   13.0960    3.0790 N.3   166  SER166     -0.1217
     66  CA       -15.6120   12.8910    3.8990 C.3   166  SER166      0.1889
     67  C        -16.9190   12.9390    3.0740 C.2   166  SER166      0.2288
     68  O        -17.8150   12.0990    3.2640 O.2   166  SER166     -0.2866
     69  CB       -15.6690   13.8890    5.0420 C.3   166  SER166      0.2089
     70  OG       -14.6380   13.6120    5.9560 O.3   166  SER166     -0.2183
     71  N        -11.6550    6.7690   10.7380 N.3   192  GLU192     -0.1231
     72  CA       -12.7940    7.3230   11.4050 C.3   192  GLU192      0.1699
     73  C        -13.9980    7.3350   10.4430 C.2   192  GLU192      0.2593
     74  O        -13.9910    6.6630    9.3850 O.2   192  GLU192     -0.2718
     75  CB       -12.4790    8.7190   11.8950 C.3   192  GLU192      0.0402
     76  CG       -12.0450    9.7160   10.8320 C.3   192  GLU192      0.1161
     77  CD       -11.6630   11.0880   11.4260 C.2   192  GLU192      0.3649
     78  OE1      -12.2410   11.4700   12.4750 O.co2 192  GLU192     -0.2457
     79  OE2      -10.7410   11.7880   10.9250 O.co2 192  GLU192     -0.2457
     80  N        -14.9820    8.1750   10.7990 N.am  193  THR193     -0.1940
     81  CA       -16.1760    8.3870    9.9940 C.3   193  THR193      0.2013
     82  C        -16.1270    9.7710    9.3820 C.2   193  THR193      0.2484
     83  O        -15.3140   10.5740    9.7980 O.2   193  THR193     -0.2729
     84  CB       -17.4670    8.0830   10.7720 C.3   193  THR193      0.1807
     85  OG1      -17.8040    9.2070   11.5840 O.3   193  THR193     -0.2208
     86  CG2      -17.3610    6.7490   11.4570 C.3   193  THR193      0.0379
     87  N        -16.9100   10.0650    8.3260 N.am  194  PRO194     -0.2715
     88  CA       -16.8240   11.3530    7.6760 C.3   194  PRO194      0.1536
     89  C        -16.8110   12.5340    8.6260 C.2   194  PRO194      0.2599
     90  O        -16.0530   13.4830    8.3630 O.2   194  PRO194     -0.2715
     91  CB       -17.9840   11.3320    6.6960 C.3   194  PRO194      0.0310
     92  CG       -18.0770    9.8970    6.3350 C.3   194  PRO194      0.0237
     93  CD       -17.8500    9.1750    7.6280 C.3   194  PRO194      0.0939
     94  N        -17.5820   12.4700    9.7300 N.am  195  GLY195     -0.1941
     95  CA       -17.5860   13.6580   10.5800 C.3   195  GLY195      0.2014
     96  C        -17.4860   13.3610   12.0750 C.2   195  GLY195      0.2639
     97  O        -18.0320   14.0980   12.8830 O.2   195  GLY195     -0.2714
     98  N        -16.8770   12.2430   12.4730 N.am  196  ALA196     -0.1963
     99  CA       -16.7510   11.8770   13.8490 C.3   196  ALA196      0.1728
    100  C        -15.6720   10.8120   13.9800 C.2   196  ALA196      0.2616
    101  O        -15.4890   10.0080   13.0790 O.2   196  ALA196     -0.2715
    102  CB       -18.0860   11.3360   14.3200 C.3   196  ALA196      0.0334
    103  N        -15.0140   10.7840   15.1430 N.am  197  CYS197     -0.1968
    104  CA       -14.0820    9.7330   15.5300 C.3   197  CYS197      0.1712
    105  C        -14.8810    8.4970   15.9140 C.2   197  CYS197      0.2296
    106  O        -16.0570    8.6080   16.2180 O.2   197  CYS197     -0.2864
    107  CB       -13.1550   10.2580   16.6220 C.3   197  CYS197      0.0983
    108  SG       -11.8270   11.2900   15.8930 S.3   197  CYS197     -0.0798
    109  N         -8.7510   13.1270   12.4560 N.3   216  LEU216     -0.1245
    110  CA        -8.6340   14.4230   13.0880 C.3   216  LEU216      0.1561
    111  C         -8.4800   14.2280   14.6060 C.2   216  LEU216      0.2260
    112  O         -9.1120   13.3130   15.1480 O.2   216  LEU216     -0.2867
    113  CB        -9.8660   15.2440   12.7230 C.3   216  LEU216      0.0270
    114  CG        -9.7300   16.6360   13.3250 C.3   216  LEU216      0.0019
    115  CD1       -9.5570   17.7370   12.3210 C.3   216  LEU216      0.0001
    116  CD2      -10.7430   16.9540   14.4050 C.3   216  LEU216      0.0001
    117  N         -9.6440   14.9070   17.5820 N.3   218  SER218     -0.1202
    118  CA       -10.9020   15.4640   18.0690 C.3   218  SER218      0.2020
    119  C        -10.7910   15.9240   19.5270 C.2   218  SER218      0.2619
    120  O        -10.2770   15.2080   20.3910 O.2   218  SER218     -0.2717
    121  CB       -11.9800   14.4140   17.9060 C.3   218  SER218      0.2103
    122  OG       -13.1470   14.7190   18.6500 O.3   218  SER218     -0.2182
    123  N        -11.3000   17.1310   19.7730 N.am  219  VAL219     -0.1965
    124  CA       -11.5100   17.6430   21.1030 C.3   219  VAL219      0.1727
    125  C        -12.4910   16.7510   21.8660 C.2   219  VAL219      0.2616
    126  O        -12.2650   16.4980   23.0610 O.2   219  VAL219     -0.2715
    127  CB       -11.9250   19.1240   21.0900 C.3   219  VAL219      0.0290
    128  CG1      -12.1910   19.6010   22.5100 C.3   219  VAL219      0.0023
    129  CG2      -10.8440   19.9990   20.4770 C.3   219  VAL219      0.0023
    130  N        -13.5450   16.2690   21.1990 N.am  220  THR220     -0.1951
    131  CA       -14.5060   15.4020   21.8730 C.3   220  THR220      0.1897
    132  C        -13.8100   14.0930   22.2330 C.2   220  THR220      0.2313
    133  O        -14.0080   13.5860   23.3360 O.2   220  THR220     -0.2863
    134  CB       -15.7620   15.0840   21.0270 C.3   220  THR220      0.1794
    135  OG1      -16.2110   16.3180   20.5010 O.3   220  THR220     -0.2208
    136  CG2      -16.9080   14.5190   21.8280 C.3   220  THR220      0.0378
    137  N        -17.8340    9.9810   18.1290 N.3   255  CYS255     -0.1221
    138  CA       -17.9490   11.2360   18.8660 C.3   255  CYS255      0.1808
    139  C        -17.3540   12.3770   18.0440 C.2   255  CYS255      0.2602
    140  O        -16.5130   12.1360   17.1990 O.2   255  CYS255     -0.2717
    141  CB       -17.2240   11.1440   20.2020 C.3   255  CYS255      0.0970
    142  SG       -15.4230   10.8350   20.0910 S.3   255  CYS255     -0.0800
    143  N        -17.8390   13.6020   18.2530 N.am  256  GLY256     -0.1942
    144  CA       -17.2360   14.8360   17.7540 C.3   256  GLY256      0.2014
    145  C        -18.1790   15.9680   18.2000 C.2   256  GLY256      0.2640
    146  O        -19.2270   15.7090   18.7970 O.2   256  GLY256     -0.2714
    147  N        -17.7980   17.2220   17.9480 N.am  257  THR257     -0.1936
    148  CA       -18.6210   18.3080   18.4220 C.3   257  THR257      0.2028
    149  C        -20.0300   18.1860   17.8560 C.2   257  THR257      0.2642
    150  O        -20.9720   18.1750   18.6060 O.2   257  THR257     -0.2714
    151  CB       -17.9600   19.6490   18.1280 C.3   257  THR257      0.1808
    152  OG1      -16.6640   19.6240   18.7150 O.3   257  THR257     -0.2208
    153  CG2      -18.6760   20.7860   18.7960 C.3   257  THR257      0.0379
    154  N        -20.1940   18.1080   16.5430 N.am  258  ILE258     -0.1977
    155  CA       -21.5260   18.1750   15.9770 C.3   258  ILE258      0.1596
    156  C        -22.2310   16.8660   16.2590 C.2   258  ILE258      0.2287
    157  O        -23.4170   16.8680   16.5940 O.2   258  ILE258     -0.2864
    158  CB       -21.5790   18.5190   14.4870 C.3   258  ILE258      0.0276
    159  CG1      -20.6830   19.7270   14.1650 C.3   258  ILE258      0.0022
    160  CG2      -23.0280   18.7900   14.0490 C.3   258  ILE258      0.0022
    161  CD1      -19.3900   19.3530   13.4540 C.3   258  ILE258      0.0001
@<TRIPOS>BOND
     1    55    56    2
     2    55    54    1
     3    67    68    2
     4    67    66    1
     5    65    66    1
     6    29    28    2
     7    53    54    1
     8    26    27    1
     9    28    27    1
    10    54    57    1
    11    66    69    1
    12    27    30    1
    13    57    58    1
    14    69    70    1
    15    30    31    1
    16    58    59   ar
    17    58    60   ar
    18    35    34    1
    19    59    61   ar
    20    92    91    1
    21    92    93    1
    22    31    32    1
    23    60    62   ar
    24    91    88    1
    25    32    33    1
    26    43    37    1
    27    43    42    1
    28    34    33    2
    29    34    36    1
    30    37    38    1
    31    61    63   ar
    32    93    87    1
    33    88    87    1
    34    88    89    1
    35    62    63   ar
    36    42    41    1
    37    38    41    1
    38    38    39    1
    39    87    82   am
    40    63    64    1
    41    90    89    2
    42    89    94   am
    43    46    47    2
    44    46    45    1
    45    82    83    2
    46    82    81    1
    47    74    73    2
    48    39    40    2
    49    94    95    1
    50    81    84    1
    51    81    80    1
    52    45    44    1
    53    45    48    1
    54    73    80   am
    55    73    72    1
    56    95    96    1
    57    71    72    1
    58    84    86    1
    59    84    85    1
    60    76    77    1
    61    76    75    1
    62    79    77   ar
    63    49    48    1
    64    49    50    1
    65    72    75    1
    66    77    78   ar
    67    96    98   am
    68    96    97    2
    69   115   114    1
    70   109   110    1
    71    98    99    1
    72    50    51    1
    73    52    51    1
    74   113   110    1
    75   113   114    1
    76   101   100    2
    77   110   111    1
    78   114   116    1
    79   161   159    1
    80    99   100    1
    81    99   102    1
    82   100   103   am
    83   160   158    1
    84   159   158    1
    85   158   155    1
    86   111   112    2
    87     1     2    1
    88   103   104    1
    89     2     3    1
    90   104   105    1
    91   104   107    1
    92    18    17    2
    93   108   107    1
    94   105   106    2
    95   155   156    1
    96   155   154    1
    97   156   157    2
    98    25    23    1
    99   154   149   am
   100    22    23    2
   101    22    21    1
   102    17    16    1
   103    23    24    1
   104    21    20    1
   105     3     4    2
   106    20    19    1
   107   140   139    2
   108   117   118    1
   109   144   145    1
   110   144   143    1
   111   149   148    1
   112   149   150    2
   113   121   118    1
   114   121   122    1
   115    19    16    1
   116   147   145   am
   117   147   148    1
   118    16    15    1
   119   139   143   am
   120   139   138    1
   121   118   119    1
   122   151   148    1
   123   151   152    1
   124   151   153    1
   125   137   138    1
   126   145   146    2
   127     8     7    2
   128   138   141    1
   129    11    13   ar
   130    11    10   ar
   131    13    14   ar
   132   119   123   am
   133   119   120    2
   134     7     6    1
   135   123   124    1
   136     9    10    1
   137     9     6    1
   138    10    12   ar
   139   142   141    1
   140     6     5    1
   141   129   127    1
   142   135   134    1
   143    14    12   ar
   144   134   136    1
   145   134   131    1
   146   127   124    1
   147   127   128    1
   148   124   125    1
   149   130   125   am
   150   130   131    1
   151   125   126    2
   152   131   132    1
   153   132   133    2
