@<TRIPOS>MOLECULE
tmp/6h6aA02.pdb
 245 235 0 0 0
SMALL
GASTEIGER

@<TRIPOS>ATOM
      1  N        -16.7400   -1.4020    3.0340 N.3    33  PHE33      -0.1241
      2  CA       -15.8270   -2.5180    2.9260 C.3    33  PHE33       0.1605
      3  C        -16.5930   -3.8230    3.0510 C.2    33  PHE33       0.2264
      4  O        -17.4320   -3.9910    3.9510 O.2    33  PHE33      -0.2867
      5  CB       -14.7640   -2.4250    3.9870 C.3    33  PHE33       0.0534
      6  CG       -13.6640   -3.4510    3.8450 C.ar   33  PHE33      -0.0203
      7  CD1      -12.8550   -3.4670    2.7360 C.ar   33  PHE33      -0.0042
      8  CD2      -13.4430   -4.3900    4.8460 C.ar   33  PHE33      -0.0042
      9  CE1      -11.8440   -4.3960    2.6100 C.ar   33  PHE33      -0.0003
     10  CE2      -12.4290   -5.3240    4.7280 C.ar   33  PHE33      -0.0003
     11  CZ       -11.6340   -5.3290    3.6060 C.ar   33  PHE33      -0.0000
     12  N        -16.0550   -8.2470    2.4090 N.3    35  ILE35      -0.1245
     13  CA       -15.2180   -9.4190    2.1000 C.3    35  ILE35       0.1561
     14  C        -16.1060  -10.5880    1.7260 C.2    35  ILE35       0.2260
     15  O        -17.0440  -10.9060    2.4490 O.2    35  ILE35      -0.2867
     16  CB       -14.4110   -9.8610    3.3440 C.3    35  ILE35       0.0252
     17  CG1      -13.6010   -8.7100    3.9090 C.3    35  ILE35       0.0019
     18  CG2      -13.5080  -11.0320    3.0040 C.3    35  ILE35       0.0019
     19  CD1      -13.0910   -8.9690    5.3200 C.3    35  ILE35       0.0001
     20  N         -9.6650   -2.1070   13.8420 N.3    59  VAL59      -0.1245
     21  CA       -10.8780   -2.9080   13.6520 C.3    59  VAL59       0.1561
     22  C        -10.6600   -4.3520   14.1100 C.2    59  VAL59       0.2260
     23  O         -9.5830   -4.9350   13.9150 O.2    59  VAL59      -0.2867
     24  CB       -11.3540   -2.8780   12.1730 C.3    59  VAL59       0.0252
     25  CG1      -10.2520   -3.3510   11.2440 C.3    59  VAL59       0.0019
     26  CG2      -12.6150   -3.7100   11.9930 C.3    59  VAL59       0.0019
     27  N        -12.0800   -8.2540   13.9780 N.3    61  TYR61      -0.1241
     28  CA       -12.8740   -9.1370   13.1500 C.3    61  TYR61       0.1605
     29  C        -13.2490  -10.3850   13.8830 C.2    61  TYR61       0.2264
     30  O        -12.4110  -11.0070   14.5630 O.2    61  TYR61      -0.2867
     31  CB       -12.1070   -9.5030   11.8750 C.3    61  TYR61       0.0534
     32  CG       -12.0060   -8.3690   10.8960 C.ar   61  TYR61      -0.0201
     33  CD1      -13.1140   -7.9820   10.1330 C.ar   61  TYR61      -0.0009
     34  CD2      -10.8120   -7.6700   10.7310 C.ar   61  TYR61      -0.0009
     35  CE1      -13.0300   -6.9380    9.2310 C.ar   61  TYR61       0.0417
     36  CE2      -10.7130   -6.6150    9.8260 C.ar   61  TYR61       0.0417
     37  CZ       -11.8170   -6.2540    9.0750 C.ar   61  TYR61       0.1957
     38  OH       -11.7290   -5.2130    8.1840 O.3    61  TYR61      -0.2866
     39  N        -14.4600  -13.9480   12.8960 N.3    63  PHE63      -0.1241
     40  CA       -14.7090  -14.9370   11.8400 C.3    63  PHE63       0.1605
     41  C        -14.9270  -16.3090   12.4270 C.2    63  PHE63       0.2264
     42  O        -14.8080  -16.5050   13.6450 O.2    63  PHE63      -0.2867
     43  CB       -13.5390  -14.9750   10.8570 C.3    63  PHE63       0.0534
     44  CG       -13.3570  -13.7100   10.0860 C.ar   63  PHE63      -0.0203
     45  CD1      -14.4420  -13.0620    9.5290 C.ar   63  PHE63      -0.0042
     46  CD2      -12.0990  -13.1610    9.9160 C.ar   63  PHE63      -0.0042
     47  CE1      -14.2760  -11.8880    8.8220 C.ar   63  PHE63      -0.0003
     48  CE2      -11.9310  -11.9860    9.2040 C.ar   63  PHE63      -0.0003
     49  CZ       -13.0170  -11.3520    8.6560 C.ar   63  PHE63      -0.0000
     50  N        -13.0980  -20.0570    8.0910 N.3    67  PHE67      -0.1227
     51  CA       -12.4190  -18.9710    7.4010 C.3    67  PHE67       0.1736
     52  C        -10.9540  -19.3690    7.0840 C.2    67  PHE67       0.2595
     53  O        -10.4120  -19.0110    6.0440 O.2    67  PHE67      -0.2718
     54  CB       -12.4490  -17.7180    8.2730 C.3    67  PHE67       0.0547
     55  CG       -11.8740  -16.4980    7.6190 C.ar   67  PHE67      -0.0202
     56  CD1      -10.5080  -16.2640    7.6330 C.ar   67  PHE67      -0.0042
     57  CD2      -12.7070  -15.5550    7.0170 C.ar   67  PHE67      -0.0042
     58  CE1       -9.9780  -15.1320    7.0350 C.ar   67  PHE67      -0.0003
     59  CE2      -12.1790  -14.4280    6.4220 C.ar   67  PHE67      -0.0003
     60  CZ       -10.8130  -14.2160    6.4320 C.ar   67  PHE67      -0.0000
     61  N        -10.3350  -20.1010    7.9990 N.am   68  LEU68      -0.1980
     62  CA        -8.9050  -20.4110    7.8900 C.3    68  LEU68       0.1596
     63  C         -8.6290  -21.4670    6.8170 C.2    68  LEU68       0.2287
     64  O         -7.4760  -21.6990    6.4440 O.2    68  LEU68      -0.2864
     65  CB        -8.3760  -20.8960    9.2300 C.3    68  LEU68       0.0297
     66  CG        -8.3500  -19.8310   10.3390 C.3    68  LEU68       0.0022
     67  CD1       -7.9650  -20.4590   11.6540 C.3    68  LEU68       0.0001
     68  CD2       -7.3970  -18.7030    9.9770 C.3    68  LEU68       0.0001
     69  N        -10.3310  -14.8410   -0.9490 N.3    73  VAL73      -0.1245
     70  CA       -11.3870  -13.9030   -0.6480 C.3    73  VAL73       0.1561
     71  C        -11.2350  -12.6440   -1.4500 C.2    73  VAL73       0.2260
     72  O        -10.1140  -12.1740   -1.7080 O.2    73  VAL73      -0.2867
     73  CB       -11.4660  -13.5660    0.8670 C.3    73  VAL73       0.0252
     74  CG1      -11.6050  -14.8470    1.6920 C.3    73  VAL73       0.0019
     75  CG2      -10.2640  -12.7820    1.3110 C.3    73  VAL73       0.0019
     76  N         -0.1940   -4.8210    3.3190 N.3    93  GLU93      -0.1245
     77  CA        -0.8900   -5.3130    4.4690 C.3    93  GLU93       0.1567
     78  C         -0.2820   -6.6170    4.9330 C.2    93  GLU93       0.2260
     79  O         -0.2210   -7.5850    4.1840 O.2    93  GLU93      -0.2867
     80  CB        -2.3590   -5.5060    4.1580 C.3    93  GLU93       0.0388
     81  CG        -3.1900   -5.9310    5.3390 C.3    93  GLU93       0.1160
     82  CD        -4.6760   -5.9660    5.0060 C.2    93  GLU93       0.3649
     83  OE1       -5.1640   -7.0420    4.6110 O.co2  93  GLU93      -0.2457
     84  OE2       -5.3350   -4.9070    5.1120 O.co2  93  GLU93      -0.2457
     85  N          0.0220   -9.7270    7.7390 N.3    95  HIS95      -0.1241
     86  CA        -0.7280  -10.5060    8.7180 C.3    95  HIS95       0.1621
     87  C          0.2070  -11.4380    9.4680 C.2    95  HIS95       0.2264
     88  O          0.9970  -12.1760    8.8440 O.2    95  HIS95      -0.2867
     89  CB        -1.8050  -11.3440    8.0070 C.3    95  HIS95       0.0745
     90  CG        -2.8570  -10.5270    7.3470 C.ar   95  HIS95       0.0817
     91  ND1       -4.1690  -10.5080    7.7780 N.ar   95  HIS95      -0.2268
     92  CD2       -2.8000   -9.6940    6.2860 C.ar   95  HIS95       0.1154
     93  CE1       -4.8730   -9.6970    7.0090 C.ar   95  HIS95       0.1986
     94  NE2       -4.0660   -9.1850    6.0980 N.ar   95  HIS95      -0.2212
     95  N          2.4120  -14.4550    8.4410 N.3   102  LEU102     -0.1231
     96  CA         1.6390  -15.3910    7.6580 C.3   102  LEU102      0.1693
     97  C          1.7180  -15.0310    6.1670 C.2   102  LEU102      0.2591
     98  O          2.1040  -15.8670    5.3190 O.2   102  LEU102     -0.2718
     99  CB         0.1690  -15.3930    8.1360 C.3   102  LEU102      0.0284
    100  CG        -0.0420  -15.7360    9.6320 C.3   102  LEU102      0.0019
    101  CD1       -1.5010  -15.5060   10.0500 C.3   102  LEU102      0.0001
    102  CD2        0.3720  -17.1510    9.9270 C.3   102  LEU102      0.0001
    103  N          1.3580  -13.8070    5.8430 N.am  103  LYS103     -0.1980
    104  CA         1.4550  -13.3450    4.5010 C.3   103  LYS103      0.1596
    105  C          1.4130  -11.8450    4.4550 C.2   103  LYS103      0.2287
    106  O          0.7800  -11.2010    5.2900 O.2   103  LYS103     -0.2864
    107  CB         0.3330  -13.9440    3.6190 C.3   103  LYS103      0.0298
    108  CG         0.5140  -13.6430    2.1270 C.3   103  LYS103      0.0038
    109  CD        -0.0740  -14.7270    1.2330 C.3   103  LYS103      0.0206
    110  CE         0.1020  -14.3860   -0.2400 C.3   103  LYS103      0.1093
    111  NZ        -0.5190  -15.4020   -1.1150 N.3   103  LYS103     -0.1314
    112  N          0.4540   -8.7650    1.7040 N.3   105  PHE105     -0.1241
    113  CA        -0.2590   -8.5000    0.4610 C.3   105  PHE105      0.1605
    114  C          0.0390   -7.0830    0.0080 C.2   105  PHE105      0.2264
    115  O          0.0240   -6.1560    0.8030 O.2   105  PHE105     -0.2867
    116  CB        -1.7810   -8.6500    0.6680 C.3   105  PHE105      0.0534
    117  CG        -2.1920   -9.9960    1.1420 C.ar  105  PHE105     -0.0203
    118  CD1       -2.4770  -11.0060    0.2360 C.ar  105  PHE105     -0.0042
    119  CD2       -2.2840  -10.2710    2.4950 C.ar  105  PHE105     -0.0042
    120  CE1       -2.8510  -12.2560    0.6680 C.ar  105  PHE105     -0.0003
    121  CE2       -2.6600  -11.5270    2.9370 C.ar  105  PHE105     -0.0003
    122  CZ        -2.9380  -12.5220    2.0210 C.ar  105  PHE105     -0.0000
    123  N         -7.3760  -11.6120   -2.1430 N.3   124  TYR124     -0.1241
    124  CA        -6.4380  -12.2450   -1.2130 C.3   124  TYR124      0.1605
    125  C         -6.3570  -13.7660   -1.4740 C.2   124  TYR124      0.2264
    126  O         -7.3350  -14.5140   -1.2190 O.2   124  TYR124     -0.2867
    127  CB        -6.9110  -12.0560    0.2100 C.3   124  TYR124      0.0534
    128  CG        -6.8720  -10.6420    0.7700 C.ar  124  TYR124     -0.0201
    129  CD1       -7.9240   -9.7590    0.5690 C.ar  124  TYR124     -0.0009
    130  CD2       -5.8220  -10.2280    1.5550 C.ar  124  TYR124     -0.0009
    131  CE1       -7.9010   -8.4810    1.1140 C.ar  124  TYR124      0.0417
    132  CE2       -5.7870   -8.9530    2.1020 C.ar  124  TYR124      0.0417
    133  CZ        -6.8190   -8.0920    1.8850 C.ar  124  TYR124      0.1957
    134  OH        -6.7650   -6.8420    2.4520 O.3   124  TYR124     -0.2866
    135  N         -4.9280  -16.9790    0.0710 N.3   126  PHE126     -0.1228
    136  CA        -4.4590  -17.4160    1.3900 C.3   126  PHE126      0.1721
    137  C         -3.1590  -18.1680    1.2640 C.2   126  PHE126      0.2437
    138  O         -2.9720  -18.9320    0.3300 O.2   126  PHE126     -0.2733
    139  CB        -5.4900  -18.3320    2.0500 C.3   126  PHE126      0.0547
    140  CG        -6.6190  -17.5980    2.7180 C.ar  126  PHE126     -0.0202
    141  CD1       -7.2150  -16.5310    2.1070 C.ar  126  PHE126     -0.0042
    142  CD2       -7.0840  -18.0000    3.9550 C.ar  126  PHE126     -0.0042
    143  CE1       -8.2580  -15.8620    2.7170 C.ar  126  PHE126     -0.0003
    144  CE2       -8.1170  -17.3390    4.5660 C.ar  126  PHE126     -0.0003
    145  CZ        -8.7070  -16.2710    3.9450 C.ar  126  PHE126     -0.0000
    146  N         -2.2670  -17.9790    2.2250 N.am  127  PRO127     -0.2729
    147  CA        -1.1140  -18.8380    2.3440 C.3   127  PRO127      0.1401
    148  C         -1.5280  -20.2210    2.7990 C.2   127  PRO127      0.2269
    149  O         -2.5890  -20.3690    3.3960 O.2   127  PRO127     -0.2865
    150  CB        -0.2900  -18.1510    3.4310 C.3   127  PRO127      0.0296
    151  CG        -1.3070  -17.5350    4.3170 C.3   127  PRO127      0.0237
    152  CD        -2.4130  -17.0850    3.3960 C.3   127  PRO127      0.0939
    153  N         -1.6680  -22.9840    5.4070 N.3   129  LEU129     -0.1245
    154  CA        -1.5910  -23.0260    6.8680 C.3   129  LEU129      0.1561
    155  C         -1.5500  -24.4600    7.3160 C.2   129  LEU129      0.2260
    156  O         -2.3660  -25.2620    6.9010 O.2   129  LEU129     -0.2867
    157  CB        -2.7910  -22.3140    7.4840 C.3   129  LEU129      0.0270
    158  CG        -3.0230  -20.8670    7.0430 C.3   129  LEU129      0.0019
    159  CD1       -4.3950  -20.3940    7.4750 C.3   129  LEU129      0.0001
    160  CD2       -1.9530  -19.9490    7.5940 C.3   129  LEU129      0.0001
    161  N         -4.5640  -20.7900   15.9690 N.3   137  MET137     -0.1245
    162  CA        -5.2340  -19.5600   15.6190 C.3   137  MET137      0.1570
    163  C         -6.6850  -19.5660   16.1060 C.2   137  MET137      0.2261
    164  O         -7.2120  -18.5400   16.5300 O.2   137  MET137     -0.2867
    165  CB        -5.1750  -19.3330   14.1060 C.3   137  MET137      0.0387
    166  CG        -3.7800  -18.9310   13.6050 C.3   137  MET137      0.0595
    167  SD        -3.6550  -18.9380   11.7950 S.3   137  MET137     -0.1393
    168  CE        -4.4730  -17.3840   11.4370 C.3   137  MET137      0.0692
    169  N         -3.8700  -13.2420   16.1820 N.3   144  THR144     -0.1218
    170  CA        -3.6910  -12.9040   14.7810 C.3   144  THR144      0.1862
    171  C         -3.9940  -11.4480   14.5570 C.2   144  THR144      0.2287
    172  O         -5.0970  -10.9500   14.9240 O.2   144  THR144     -0.2866
    173  CB        -4.5900  -13.7570   13.8700 C.3   144  THR144      0.1770
    174  OG1       -4.4170  -15.1380   14.1850 O.3   144  THR144     -0.2211
    175  CG2       -4.2410  -13.5240   12.4300 C.3   144  THR144      0.0375
    176  N         -2.9740   -7.7190   11.9850 N.3   146  SER146     -0.1217
    177  CA        -2.4260   -7.1910   10.7550 C.3   146  SER146      0.1889
    178  C         -2.1180   -5.6890   10.8470 C.2   146  SER146      0.2288
    179  O         -2.7590   -4.9480   11.6020 O.2   146  SER146     -0.2866
    180  CB        -3.3640   -7.4920    9.5710 C.3   146  SER146      0.2089
    181  OG        -4.6270   -6.8750    9.7300 O.3   146  SER146     -0.2183
    182  N         -1.9240   -2.5130    8.1540 N.3   148  SER148     -0.1217
    183  CA        -2.1850   -2.0210    6.8290 C.3   148  SER148      0.1889
    184  C         -1.4740   -0.7020    6.6300 C.2   148  SER148      0.2288
    185  O         -1.8110    0.2970    7.2640 O.2   148  SER148     -0.2866
    186  CB        -3.6860   -1.8520    6.6160 C.3   148  SER148      0.2089
    187  OG        -4.3590   -3.0900    6.8110 O.3   148  SER148     -0.2183
    188  N         -0.5250    2.3350    4.1080 N.3   150  TYR150     -0.1241
    189  CA        -0.9930    2.9790    2.8920 C.3   150  TYR150      0.1605
    190  C         -0.0110    4.0510    2.4230 C.2   150  TYR150      0.2264
    191  O          0.3730    4.9350    3.1900 O.2   150  TYR150     -0.2867
    192  CB        -2.3500    3.6030    3.1060 C.3   150  TYR150      0.0534
    193  CG        -3.4260    2.6280    3.5660 C.ar  150  TYR150     -0.0201
    194  CD1       -3.5730    2.3230    4.9120 C.ar  150  TYR150     -0.0009
    195  CD2       -4.2990    2.0370    2.6600 C.ar  150  TYR150     -0.0009
    196  CE1       -4.5470    1.4480    5.3520 C.ar  150  TYR150      0.0417
    197  CE2       -5.2760    1.1520    3.0890 C.ar  150  TYR150      0.0417
    198  CZ        -5.3890    0.8660    4.4560 C.ar  150  TYR150      0.1957
    199  OH        -6.3600    0.0090    4.9210 O.3   150  TYR150     -0.2866
    200  N         -3.4470    1.5400    9.4170 N.3   160  ASN160     -0.1225
    201  CA        -4.5370    0.9620   10.2100 C.3   160  ASN160      0.1785
    202  C         -4.1270   -0.4080   10.7500 C.2   160  ASN160      0.2597
    203  O         -3.3060   -1.0970   10.1470 O.2   160  ASN160     -0.2718
    204  CB        -5.7980    0.8030    9.3550 C.3   160  ASN160      0.1169
    205  CG        -6.4880    2.1230    9.0700 C.2   160  ASN160      0.2627
    206  OD1       -6.1860    3.1450    9.6840 O.2   160  ASN160     -0.2716
    207  ND2       -7.4150    2.1050    8.1230 N.am  160  ASN160     -0.0877
    208  N         -4.7190   -0.7960   11.8840 N.am  161  LYS161     -0.1966
    209  CA        -4.4270   -2.0590   12.5120 C.3   161  LYS161      0.1728
    210  C         -5.7140   -2.8750   12.6550 C.2   161  LYS161      0.2616
    211  O         -6.8060   -2.3140   12.7640 O.2   161  LYS161     -0.2715
    212  CB        -3.7950   -1.8360   13.8990 C.3   161  LYS161      0.0311
    213  CG        -2.3350   -1.4440   13.8460 C.3   161  LYS161      0.0038
    214  CD        -1.7920   -1.0900   15.2290 C.3   161  LYS161      0.0206
    215  CE        -0.2660   -0.9350   15.2150 C.3   161  LYS161      0.1093
    216  NZ         0.4190   -2.2360   15.0280 N.3   161  LYS161     -0.1314
    217  N         -5.5720   -4.1920   12.6540 N.am  162  ALA162     -0.1977
    218  CA        -6.6840   -5.0750   12.8790 C.3   162  ALA162      0.1597
    219  C         -6.2530   -6.2690   13.7140 C.2   162  ALA162      0.2287
    220  O         -5.0680   -6.6240   13.7490 O.2   162  ALA162     -0.2864
    221  CB        -7.2550   -5.5330   11.5600 C.3   162  ALA162      0.0319
    222  N         -8.0110  -10.4350   14.8160 N.3   164  TYR164     -0.1241
    223  CA        -8.8940  -11.4370   14.2440 C.3   164  TYR164      0.1605
    224  C         -9.1920  -12.5300   15.2490 C.2   164  TYR164      0.2264
    225  O         -8.2940  -13.0530   15.8980 O.2   164  TYR164     -0.2867
    226  CB        -8.2530  -12.0550   12.9840 C.3   164  TYR164      0.0534
    227  CG        -7.8720  -11.0370   11.9470 C.ar  164  TYR164     -0.0201
    228  CD1       -6.6650  -10.3630   12.0230 C.ar  164  TYR164     -0.0009
    229  CD2       -8.7160  -10.7460   10.9070 C.ar  164  TYR164     -0.0009
    230  CE1       -6.3140   -9.4240   11.0850 C.ar  164  TYR164      0.0417
    231  CE2       -8.3760   -9.8120    9.9460 C.ar  164  TYR164      0.0417
    232  CZ        -7.1750   -9.1500   10.0390 C.ar  164  TYR164      0.1957
    233  OH        -6.8390   -8.2070    9.0870 O.3   164  TYR164     -0.2866
    234  N        -11.1190  -16.3810   15.2140 N.3   166  TYR166     -0.1241
    235  CA       -11.7010  -17.4220   14.3900 C.3   166  TYR166      0.1605
    236  C        -12.5190  -18.3790   15.2360 C.2   166  TYR166      0.2264
    237  O        -12.6660  -19.5540   14.9010 O.2   166  TYR166     -0.2867
    238  CB       -10.6010  -18.1550   13.6240 C.3   166  TYR166      0.0534
    239  CG        -9.7000  -17.1990   12.8940 C.ar  166  TYR166     -0.0201
    240  CD1      -10.0600  -16.6840   11.6630 C.ar  166  TYR166     -0.0009
    241  CD2       -8.5130  -16.7780   13.4520 C.ar  166  TYR166     -0.0009
    242  CE1       -9.2480  -15.7870   10.9960 C.ar  166  TYR166      0.0417
    243  CE2       -7.6910  -15.8860   12.7940 C.ar  166  TYR166      0.0417
    244  CZ        -8.0650  -15.3920   11.5650 C.ar  166  TYR166      0.1957
    245  OH        -7.2470  -14.4970   10.8980 O.3   166  TYR166     -0.2866
@<TRIPOS>BOND
     1   123   124    1
     2    72    71    2
     3   125   126    2
     4   125   124    1
     5    71    70    1
     6   124   127    1
     7   111   110    1
     8    69    70    1
     9    70    73    1
    10   110   109    1
    11   114   113    1
    12   114   115    2
    13   135   136    1
    14   127   128    1
    15   118   120   ar
    16   118   117   ar
    17   138   137    2
    18   113   116    1
    19   113   112    1
    20   129   128   ar
    21   129   131   ar
    22   120   122   ar
    23   116   117    1
    24   128   130   ar
    25    73    75    1
    26    73    74    1
    27   131   133   ar
    28   117   119   ar
    29   109   108    1
    30   137   136    1
    31   137   146   am
    32   136   139    1
    33   130   132   ar
    34    14    13    1
    35    14    15    2
    36   133   132   ar
    37   133   134    1
    38   122   121   ar
    39   139   140    1
    40    13    12    1
    41    13    16    1
    42   141   143   ar
    43   141   140   ar
    44   108   107    1
    45   146   147    1
    46   146   152    1
    47   147   148    1
    48   147   150    1
    49   190   189    1
    50   190   191    2
    51   119   121   ar
    52     9     7   ar
    53     9    11   ar
    54   195   197   ar
    55   195   193   ar
    56   143   145   ar
    57   140   142   ar
    58     7     6   ar
    59   148   149    2
    60   189   192    1
    61   189   188    1
    62     2     1    1
    63     2     3    1
    64     2     5    1
    65    18    16    1
    66     3     4    2
    67   197   198   ar
    68   192   193    1
    69    76    77    1
    70    16    17    1
    71   152   151    1
    72   150   151    1
    73   193   194   ar
    74    11    10   ar
    75   107   104    1
    76     6     5    1
    77     6     8   ar
    78    17    19    1
    79   145   144   ar
    80   142   144   ar
    81    80    77    1
    82    80    81    1
    83    79    78    2
    84   105   104    1
    85   105   106    2
    86   198   199    1
    87   198   196   ar
    88    77    78    1
    89   104   103    1
    90    83    82   ar
    91    10     8   ar
    92   194   196   ar
    93    82    84   ar
    94    82    81    1
    95    98    97    2
    96   153   154    1
    97   103    97   am
    98    53    52    2
    99    94    92   ar
   100    94    93   ar
   101    97    96    1
   102    92    90   ar
   103    59    60   ar
   104    59    57   ar
   105    60    58   ar
   106    64    63    2
   107   186   187    1
   108   186   183    1
   109   184   183    1
   110   184   185    2
   111    63    62    1
   112   183   182    1
   113   154   155    1
   114   154   157    1
   115   156   155    2
   116    93    91   ar
   117    57    55   ar
   118    58    56   ar
   119   158   159    1
   120   158   157    1
   121   158   160    1
   122    52    51    1
   123    52    61   am
   124    90    91   ar
   125    90    89    1
   126    51    50    1
   127    51    54    1
   128    55    56   ar
   129    55    54    1
   130    96    99    1
   131    96    95    1
   132    85    86    1
   133    62    61    1
   134    62    65    1
   135    89    86    1
   136   207   205   am
   137    99   100    1
   138    38    37    1
   139    49    47   ar
   140    49    48   ar
   141    86    87    1
   142    47    45   ar
   143    88    87    2
   144   205   204    1
   145   205   206    2
   146    37    35   ar
   147    37    36   ar
   148   233   232    1
   149    48    46   ar
   150    65    66    1
   151    35    33   ar
   152   204   201    1
   153   200   201    1
   154    45    44   ar
   155   180   181    1
   156   180   177    1
   157   100   102    1
   158   100   101    1
   159    36    34   ar
   160    46    44   ar
   161   231   232   ar
   162   231   229   ar
   163    68    66    1
   164   232   230   ar
   165    44    43    1
   166    33    32   ar
   167   203   202    2
   168   201   202    1
   169    66    67    1
   170    34    32   ar
   171   202   208   am
   172   177   178    1
   173   177   176    1
   174   178   179    2
   175    43    40    1
   176    32    31    1
   177   245   244    1
   178   229   227   ar
   179   242   244   ar
   180   242   240   ar
   181   230   228   ar
   182    25    24    1
   183   168   167    1
   184   221   218    1
   185   244   243   ar
   186   240   239   ar
   187   167   166    1
   188    40    41    1
   189    40    39    1
   190    31    28    1
   191   208   209    1
   192   227   228   ar
   193   227   226    1
   194    26    24    1
   195    24    21    1
   196    41    42    2
   197   175   173    1
   198   209   210    1
   199   209   212    1
   200   217   210   am
   201   217   218    1
   202   210   211    2
   203   243   241   ar
   204   218   219    1
   205   239   241   ar
   206   239   238    1
   207   226   223    1
   208    28    29    1
   209    28    27    1
   210   166   165    1
   211   238   235    1
   212    21    20    1
   213    21    22    1
   214   219   220    2
   215   213   212    1
   216   213   214    1
   217   173   174    1
   218   173   170    1
   219    29    30    2
   220    23    22    2
   221   165   162    1
   222   223   222    1
   223   223   224    1
   224   235   234    1
   225   235   236    1
   226   171   170    1
   227   171   172    2
   228   170   169    1
   229   237   236    2
   230   216   215    1
   231   215   214    1
   232   224   225    2
   233   162   161    1
   234   162   163    1
   235   163   164    2
