@<TRIPOS>MOLECULE
tmp/6h6rA00.pdb
 135 133 0 0 0
SMALL
GASTEIGER

@<TRIPOS>ATOM
      1  N        -10.7090  -19.4370  -18.5880 N.3     1  MET1       -0.1245
      2  CA       -11.7850  -19.6110  -17.6040 C.3     1  MET1        0.1570
      3  C        -12.8630  -20.5750  -18.1800 C.2     1  MET1        0.2261
      4  O        -13.7670  -20.1380  -18.8990 O.2     1  MET1       -0.2867
      5  CB       -12.3980  -18.2340  -17.2350 C.3     1  MET1        0.0387
      6  CG       -13.6770  -18.3070  -16.3800 C.3     1  MET1        0.0595
      7  SD       -13.5040  -19.3610  -14.9070 S.3     1  MET1       -0.1393
      8  CE       -12.4240  -18.2480  -13.8330 C.3     1  MET1        0.0692
      9  N         -5.2030  -27.9630   -5.5730 N.3    45  LEU45      -0.1245
     10  CA        -4.2320  -27.4880   -6.5700 C.3    45  LEU45       0.1561
     11  C         -2.8170  -27.2930   -6.0120 C.2    45  LEU45       0.2260
     12  O         -1.8710  -27.2880   -6.7870 O.2    45  LEU45      -0.2867
     13  CB        -4.6980  -26.1740   -7.2120 C.3    45  LEU45       0.0270
     14  CG        -5.6990  -26.3070   -8.4020 C.3    45  LEU45       0.0019
     15  CD1       -6.9730  -26.9970   -7.9940 C.3    45  LEU45       0.0001
     16  CD2       -6.0340  -24.9480   -8.9370 C.3    45  LEU45       0.0001
     17  N         -7.0350  -23.3630   -2.7980 N.3    50  LYS50      -0.1231
     18  CA        -7.7370  -23.5760   -4.0610 C.3    50  LYS50       0.1693
     19  C         -7.9760  -25.0690   -4.2510 C.2    50  LYS50       0.2592
     20  O         -7.0560  -25.8590   -4.1030 O.2    50  LYS50      -0.2718
     21  CB        -6.9210  -23.0730   -5.2630 C.3    50  LYS50       0.0285
     22  CG        -6.9250  -21.5530   -5.4440 C.3    50  LYS50       0.0035
     23  CD        -6.2850  -21.2010   -6.7500 C.3    50  LYS50       0.0206
     24  CE        -6.3560  -19.7420   -7.1070 C.3    50  LYS50       0.1093
     25  NZ        -5.8970  -19.5510   -8.5100 N.3    50  LYS50      -0.1314
     26  N         -9.2070  -25.4380   -4.5600 N.am   51  VAL51      -0.1966
     27  CA        -9.5820  -26.7990   -4.9390 C.3    51  VAL51       0.1727
     28  C        -10.4410  -26.8060   -6.2110 C.2    51  VAL51       0.2616
     29  O        -11.0290  -25.7780   -6.5530 O.2    51  VAL51      -0.2715
     30  CB       -10.3520  -27.4950   -3.7980 C.3    51  VAL51       0.0290
     31  CG1       -9.5100  -27.5530   -2.5370 C.3    51  VAL51       0.0023
     32  CG2      -11.7020  -26.8220   -3.5310 C.3    51  VAL51       0.0023
     33  N        -10.5260  -27.9730   -6.8690 N.am   52  LYS52      -0.1977
     34  CA       -11.3460  -28.2020   -8.0550 C.3    52  LYS52       0.1596
     35  C        -12.1030  -29.4720   -7.8870 C.2    52  LYS52       0.2287
     36  O        -11.5570  -30.4360   -7.3350 O.2    52  LYS52      -0.2864
     37  CB       -10.4770  -28.3560   -9.2990 C.3    52  LYS52       0.0298
     38  CG       -10.3160  -27.1180  -10.1200 C.3    52  LYS52       0.0038
     39  CD        -9.4910  -27.4460  -11.3630 C.3    52  LYS52       0.0206
     40  CE        -9.7210  -26.5130  -12.5240 C.3    52  LYS52       0.1093
     41  NZ        -9.0370  -25.2120  -12.3460 N.3    52  LYS52      -0.1314
     42  N        -13.9160  -24.7740   -9.5930 N.3    59  GLY59      -0.1210
     43  CA       -12.9050  -24.3430   -8.6360 C.3    59  GLY59       0.1956
     44  C        -13.4640  -23.3900   -7.6090 C.2    59  GLY59       0.2612
     45  O        -14.3350  -22.5580   -7.9150 O.2    59  GLY59      -0.2717
     46  N        -12.9730  -23.5410   -6.3680 N.am   60  LEU60      -0.1965
     47  CA       -13.3020  -22.7140   -5.2140 C.3    60  LEU60       0.1728
     48  C        -12.0850  -22.4800   -4.3550 C.2    60  LEU60       0.2617
     49  O        -11.1560  -23.2870   -4.3300 O.2    60  LEU60      -0.2715
     50  CB       -14.3280  -23.4100   -4.3450 C.3    60  LEU60       0.0311
     51  CG       -15.6760  -23.6920   -4.9990 C.3    60  LEU60       0.0022
     52  CD1      -16.5020  -24.6240   -4.1140 C.3    60  LEU60       0.0001
     53  CD2      -16.4270  -22.4110   -5.2660 C.3    60  LEU60       0.0001
     54  N        -12.1130  -21.3770   -3.6390 N.am   61  THR61      -0.1937
     55  CA       -11.0390  -21.0070   -2.7560 C.3    61  THR61       0.2028
     56  C        -11.5320  -20.2350   -1.5720 C.2    61  THR61       0.2642
     57  O        -12.7320  -19.9950   -1.4360 O.2    61  THR61      -0.2714
     58  CB        -9.9920  -20.2660   -3.5810 C.3    61  THR61       0.1808
     59  OG1       -8.8060  -20.2810   -2.8330 O.3    61  THR61      -0.2208
     60  CG2      -10.4090  -18.8340   -3.9650 C.3    61  THR61       0.0379
     61  N        -10.6110  -19.8590   -0.7000 N.am   62  ASP62      -0.1957
     62  CA       -10.8630  -18.9700    0.4720 C.3    62  ASP62       0.1840
     63  C        -11.9630  -19.4980    1.3770 C.2    62  ASP62       0.2622
     64  O        -13.0130  -18.8740    1.5780 O.2    62  ASP62      -0.2715
     65  CB       -11.1370  -17.5160    0.0250 C.3    62  ASP62       0.1450
     66  CG        -9.9830  -16.8800   -0.7080 C.2    62  ASP62       0.3671
     67  OD1      -10.2120  -15.8500   -1.4080 O.co2  62  ASP62      -0.2456
     68  OD2       -8.8520  -17.4200   -0.6210 O.co2  62  ASP62      -0.2456
     69  N        -11.6930  -20.6840    1.9030 N.am   63  TRP63      -0.1960
     70  CA       -12.6120  -21.4410    2.7130 C.3    63  TRP63       0.1771
     71  C        -12.6720  -20.8640    4.0990 C.2    63  TRP63       0.2619
     72  O        -11.6730  -20.8680    4.8050 O.2    63  TRP63      -0.2715
     73  CB       -12.1840  -22.9230    2.7550 C.3    63  TRP63       0.0590
     74  CG       -12.3810  -23.6030    1.4510 C.ar   63  TRP63       0.0006
     75  CD1      -11.4880  -23.6860    0.4220 C.ar   63  TRP63       0.0946
     76  CD2      -13.5770  -24.2420    0.9990 C.ar   63  TRP63       0.0152
     77  NE1      -12.0520  -24.3260   -0.6470 N.ar   63  TRP63      -0.2442
     78  CE2      -13.3330  -24.6990   -0.3170 C.ar   63  TRP63       0.0810
     79  CE3      -14.8410  -24.4790    1.5770 C.ar   63  TRP63       0.0012
     80  CZ2      -14.2730  -25.4140   -1.0380 C.ar   63  TRP63       0.0191
     81  CZ3      -15.7690  -25.1830    0.8520 C.ar   63  TRP63       0.0001
     82  CH2      -15.4820  -25.6440   -0.4420 C.ar   63  TRP63       0.0015
     83  N        -13.8510  -20.3690    4.4860 N.am   64  LYS64      -0.1977
     84  CA       -14.1310  -19.9560    5.8580 C.3    64  LYS64       0.1596
     85  C        -14.5770  -21.1920    6.6440 C.2    64  LYS64       0.2287
     86  O        -15.1010  -22.1270    6.0440 O.2    64  LYS64      -0.2864
     87  CB       -15.1530  -18.8160    5.8820 C.3    64  LYS64       0.0298
     88  CG       -14.5420  -17.4790    5.4650 C.3    64  LYS64       0.0038
     89  CD       -14.7450  -17.1310    4.0030 C.3    64  LYS64       0.0206
     90  CE       -13.6810  -16.1940    3.4390 C.3    64  LYS64       0.1093
     91  NZ       -13.7480  -16.0940    1.9460 N.3    64  LYS64      -0.1314
     92  N        -18.0660  -22.4330    5.9530 N.3    67  GLU67      -0.1245
     93  CA       -18.4750  -22.8580    4.6160 C.3    67  GLU67       0.1567
     94  C        -18.3660  -24.3650    4.4900 C.2    67  GLU67       0.2260
     95  O        -17.3360  -24.9290    4.8270 O.2    67  GLU67      -0.2867
     96  CB       -17.6540  -22.1470    3.5620 C.3    67  GLU67       0.0388
     97  CG       -18.0360  -20.6900    3.4930 C.3    67  GLU67       0.1160
     98  CD       -17.1580  -19.8140    2.6480 C.2    67  GLU67       0.3649
     99  OE1      -15.9590  -20.1420    2.4660 O.co2  67  GLU67      -0.2457
    100  OE2      -17.6600  -18.7470    2.2290 O.co2  67  GLU67      -0.2457
    101  N        -21.1450  -25.3930   -0.9050 N.3    72  GLN72      -0.1245
    102  CA       -20.4820  -24.5160   -1.8360 C.3    72  GLN72       0.1566
    103  C        -20.4440  -25.0910   -3.2220 C.2    72  GLN72       0.2260
    104  O        -20.5040  -24.3530   -4.2130 O.2    72  GLN72      -0.2867
    105  CB       -19.0730  -24.1910   -1.3200 C.3    72  GLN72       0.0367
    106  CG       -19.0990  -23.3350   -0.0570 C.3    72  GLN72       0.0905
    107  CD       -19.5670  -21.9030   -0.2490 C.2    72  GLN72       0.2608
    108  OE1      -19.1480  -21.1870   -1.1500 O.2    72  GLN72      -0.2717
    109  NE2      -20.4380  -21.4500    0.5900 N.am   72  GLN72      -0.0878
    110  N        -22.1270  -22.8690   -6.3710 N.3    76  TRP76      -0.1227
    111  CA       -21.3530  -22.3730   -7.4900 C.3    76  TRP76       0.1737
    112  C        -21.3690  -23.2400   -8.6990 C.2    76  TRP76       0.2595
    113  O        -21.1950  -22.7160   -9.8280 O.2    76  TRP76      -0.2718
    114  CB       -19.8850  -22.1290   -7.0170 C.3    76  TRP76       0.0564
    115  CG       -19.8290  -21.0720   -5.9490 C.ar   76  TRP76       0.0003
    116  CD1      -19.7380  -21.2710   -4.5960 C.ar   76  TRP76       0.0946
    117  CD2      -19.9860  -19.6630   -6.1360 C.ar   76  TRP76       0.0152
    118  NE1      -19.7920  -20.0690   -3.9390 N.ar   76  TRP76      -0.2442
    119  CE2      -19.9430  -19.0630   -4.8650 C.ar   76  TRP76       0.0810
    120  CE3      -20.1080  -18.8430   -7.2640 C.ar   76  TRP76       0.0012
    121  CZ2      -20.0300  -17.6750   -4.6900 C.ar   76  TRP76       0.0191
    122  CZ3      -20.2030  -17.4720   -7.0920 C.ar   76  TRP76       0.0001
    123  CH2      -20.1410  -16.8990   -5.8200 C.ar   76  TRP76       0.0015
    124  N        -21.5550  -24.5920   -8.5050 N.am   77  TYR77      -0.1976
    125  CA       -21.5450  -25.5580   -9.6330 C.3    77  TYR77       0.1639
    126  C        -22.7830  -26.3940   -9.6210 C.2    77  TYR77       0.2290
    127  O        -22.7390  -27.6130   -9.5220 O.2    77  TYR77      -0.2864
    128  CB       -20.2790  -26.4190   -9.6450 C.3    77  TYR77       0.0560
    129  CG       -19.1090  -25.4880   -9.7310 C.ar   77  TYR77      -0.0198
    130  CD1      -18.3910  -25.1420   -8.5980 C.ar   77  TYR77      -0.0009
    131  CD2      -18.7950  -24.8430  -10.9290 C.ar   77  TYR77      -0.0009
    132  CE1      -17.3510  -24.2230   -8.6600 C.ar   77  TYR77       0.0417
    133  CE2      -17.7630  -23.9260  -11.0060 C.ar   77  TYR77       0.0417
    134  CZ       -17.0510  -23.6060   -9.8680 C.ar   77  TYR77       0.1957
    135  OH       -16.0510  -22.6930   -9.9790 O.3    77  TYR77      -0.2866
@<TRIPOS>BOND
     1     4     3    2
     2     1     2    1
     3     3     2    1
     4     2     5    1
     5     5     6    1
     6     6     7    1
     7     7     8    1
     8    40    41    1
     9    40    39    1
    10    39    38    1
    11   133   131   ar
    12   133   134   ar
    13   131   129   ar
    14    38    37    1
    15   135   134    1
    16   134   132   ar
    17   113   112    2
    18   129   128    1
    19   129   130   ar
    20   128   125    1
    21   125   126    1
    22   125   124    1
    23   126   127    2
    24    42    43    1
    25    37    34    1
    26    16    14    1
    27   112   124   am
    28   112   111    1
    29   132   130   ar
    30    43    44    1
    31    25    24    1
    32    14    15    1
    33    14    13    1
    34    34    35    1
    35    34    33    1
    36    45    44    2
    37    35    36    2
    38    44    46   am
    39   111   114    1
    40   111   110    1
    41   120   122   ar
    42   120   117   ar
    43    13    10    1
    44    24    23    1
    45   122   123   ar
    46   114   115    1
    47    33    28   am
    48    12    11    2
    49    23    22    1
    50    10    11    1
    51    10     9    1
    52    29    28    2
    53    46    47    1
    54    28    27    1
    55   117   115   ar
    56   117   119   ar
    57   115   116   ar
    58   123   121   ar
    59    22    21    1
    60    53    51    1
    61    21    18    1
    62    47    48    1
    63    47    50    1
    64    51    50    1
    65    51    52    1
    66    27    26    1
    67    27    30    1
    68   119   121   ar
    69   119   118   ar
    70   116   118   ar
    71    26    19   am
    72    48    49    2
    73    48    54   am
    74    19    20    2
    75    19    18    1
    76   104   103    2
    77    18    17    1
    78    60    58    1
    79    30    32    1
    80    30    31    1
    81    54    55    1
    82    58    59    1
    83    58    55    1
    84   103   102    1
    85    55    56    1
    86   102   105    1
    87   102   101    1
    88    56    57    2
    89    56    61   am
    90    67    66   ar
    91   105   106    1
    92   108   107    2
    93    80    82   ar
    94    80    78   ar
    95    66    68   ar
    96    66    65    1
    97    61    62    1
    98    77    78   ar
    99    77    75   ar
   100    82    81   ar
   101    78    76   ar
   102   107   106    1
   103   107   109   am
   104    65    62    1
   105    75    74   ar
   106    62    63    1
   107    81    79   ar
   108    76    74   ar
   109    76    79   ar
   110    63    64    2
   111    63    69   am
   112    74    73    1
   113    69    70    1
   114    91    90    1
   115   100    98   ar
   116    99    98   ar
   117    98    97    1
   118    70    73    1
   119    70    71    1
   120    90    89    1
   121    97    96    1
   122    96    93    1
   123    89    88    1
   124    71    83   am
   125    71    72    2
   126    83    84    1
   127    94    93    1
   128    94    95    2
   129    93    92    1
   130    88    87    1
   131    84    87    1
   132    84    85    1
   133    86    85    2
