@<TRIPOS>MOLECULE
tmp/6h6vF00.pdb
 206 196 0 0 0
SMALL
GASTEIGER

@<TRIPOS>ATOM
      1  N          4.1600   29.8240   75.3810 N.3   127  THR127     -0.1218
      2  CA         5.0490   29.7880   74.2220 C.3   127  THR127      0.1862
      3  C          6.5210   29.9710   74.5280 C.2   127  THR127      0.2287
      4  O          7.3480   29.6380   73.6750 O.2   127  THR127     -0.2866
      5  CB         4.6480   30.8600   73.1840 C.3   127  THR127      0.1770
      6  OG1        4.6110   32.1570   73.7930 O.3   127  THR127     -0.2211
      7  CG2        3.2840   30.5530   72.6160 C.3   127  THR127      0.0375
      8  N         18.4880   17.8440   80.0040 N.3   142  ASN142     -0.1225
      9  CA        18.2600   18.4260   78.6890 C.3   142  ASN142      0.1785
     10  C         17.3380   19.6250   78.8610 C.2   142  ASN142      0.2597
     11  O         16.5460   19.6840   79.8080 O.2   142  ASN142     -0.2718
     12  CB        17.6010   17.3940   77.7670 C.3   142  ASN142      0.1169
     13  CG        17.5310   17.8460   76.3190 C.2   142  ASN142      0.2627
     14  OD1       18.4910   17.7160   75.5570 O.2   142  ASN142     -0.2716
     15  ND2       16.3680   18.3530   75.9220 N.am  142  ASN142     -0.0877
     16  N         17.4650   20.5800   77.9460 N.am  143  VAL143     -0.1966
     17  CA        16.5900   21.7370   77.8770 C.3   143  VAL143      0.1727
     18  C         16.1000   21.8710   76.4370 C.2   143  VAL143      0.2617
     19  O         16.8890   21.7350   75.4850 O.2   143  VAL143     -0.2715
     20  CB        17.3120   23.0380   78.2840 C.3   143  VAL143      0.0290
     21  CG1       16.3230   24.1880   78.4370 C.3   143  VAL143      0.0023
     22  CG2       18.0670   22.8450   79.5870 C.3   143  VAL143      0.0023
     23  N         14.8020   22.1260   76.2870 N.am  144  SER144     -0.1936
     24  CA        14.1960   22.4280   74.9930 C.3   144  SER144      0.2055
     25  C         12.9610   23.2640   75.2420 C.2   144  SER144      0.2643
     26  O         12.4870   23.3280   76.3660 O.2   144  SER144     -0.2714
     27  CB        13.8080   21.1350   74.2640 C.3   144  SER144      0.2130
     28  OG        13.1780   20.1850   75.1080 O.3   144  SER144     -0.2179
     29  N         12.4430   23.9030   74.2000 N.am  145  ILE145     -0.1963
     30  CA        11.2330   24.7050   74.3170 C.3   145  ILE145      0.1727
     31  C         10.0990   23.9900   73.5950 C.2   145  ILE145      0.2616
     32  O         10.2920   23.5030   72.4880 O.2   145  ILE145     -0.2715
     33  CB        11.4270   26.1040   73.6970 C.3   145  ILE145      0.0290
     34  CG1       12.5440   26.8590   74.4250 C.3   145  ILE145      0.0022
     35  CG2       10.1230   26.8960   73.7690 C.3   145  ILE145      0.0023
     36  CD1       12.8840   28.2050   73.8280 C.3   145  ILE145      0.0001
     37  N          8.9260   23.9290   74.2190 N.am  146  HIS146     -0.1959
     38  CA         7.7720   23.2380   73.6470 C.3   146  HIS146      0.1787
     39  C          6.5170   24.0170   73.8910 C.2   146  HIS146      0.2620
     40  O          6.3340   24.5500   74.9820 O.2   146  HIS146     -0.2715
     41  CB         7.6000   21.8600   74.2700 C.3   146  HIS146      0.0785
     42  CG         8.8040   20.9960   74.1400 C.ar  146  HIS146      0.0821
     43  ND1        8.9010   20.0190   73.1840 N.ar  146  HIS146     -0.2267
     44  CD2        9.9780   20.9890   74.8100 C.ar  146  HIS146      0.1154
     45  CE1       10.0870   19.4380   73.2700 C.ar  146  HIS146      0.1986
     46  NE2       10.7600   20.0070   74.2550 N.ar  146  HIS146     -0.2212
     47  N          5.6560   24.0850   72.8830 N.am  147  ARG147     -0.1977
     48  CA         4.3700   24.7500   73.0420 C.3   147  ARG147      0.1597
     49  C          3.4880   23.9540   74.0110 C.2   147  ARG147      0.2287
     50  O          3.5090   22.7150   74.0190 O.2   147  ARG147     -0.2864
     51  CB         3.6770   24.9500   71.6970 C.3   147  ARG147      0.0334
     52  CG         3.0670   23.7090   71.0700 C.3   147  ARG147      0.0492
     53  CD         2.4170   24.0750   69.7560 C.3   147  ARG147      0.2205
     54  NE         1.7000   22.9440   69.1900 N.pl3 147  ARG147     -0.0865
     55  CZ         1.7070   22.5740   67.9110 C.cat 147  ARG147      0.5346
     56  NH1        2.4350   23.2080   66.9890 N.pl3 147  ARG147      0.1354
     57  NH2        0.9990   21.5090   67.5590 N.pl3 147  ARG147      0.1354
     58  N          3.4710   19.4100   72.5520 N.3   159  LEU159     -0.1245
     59  CA         4.0450   18.8550   71.3230 C.3   159  LEU159      0.1561
     60  C          5.4860   18.4900   71.5990 C.2   159  LEU159      0.2260
     61  O          6.3010   19.3590   71.9200 O.2   159  LEU159     -0.2867
     62  CB         3.9920   19.8610   70.1770 C.3   159  LEU159      0.0270
     63  CG         4.6380   19.4020   68.8650 C.3   159  LEU159      0.0019
     64  CD1        3.8070   18.3090   68.2110 C.3   159  LEU159      0.0001
     65  CD2        4.8400   20.5760   67.9150 C.3   159  LEU159      0.0001
     66  N          8.3470   16.8770   69.4720 N.3   161  LEU161     -0.1245
     67  CA         8.9630   16.3320   68.2620 C.3   161  LEU161      0.1561
     68  C         10.0560   15.3490   68.6780 C.2   161  LEU161      0.2260
     69  O         10.5860   15.4420   69.8030 O.2   161  LEU161     -0.2867
     70  CB         9.5520   17.4420   67.3770 C.3   161  LEU161      0.0270
     71  CG         8.5600   18.4740   66.8080 C.3   161  LEU161      0.0019
     72  CD1        9.3500   19.6870   66.2740 C.3   161  LEU161      0.0001
     73  CD2        7.6420   17.8700   65.7430 C.3   161  LEU161      0.0001
     74  N         13.2000   14.4300   69.2990 N.3   163  ARG163     -0.1231
     75  CA        14.6110   14.7050   69.5910 C.3   163  ARG163      0.1694
     76  C         14.8600   14.2550   71.0410 C.2   163  ARG163      0.2592
     77  O         14.4440   13.1660   71.3780 O.2   163  ARG163     -0.2718
     78  CB        15.0230   16.1670   69.3090 C.3   163  ARG163      0.0321
     79  CG        15.2480   16.5360   67.8500 C.3   163  ARG163      0.0489
     80  CD        13.9380   16.9630   67.1480 C.3   163  ARG163      0.2205
     81  NE        13.5280   18.3570   67.4030 N.pl3 163  ARG163     -0.0865
     82  CZ        13.4530   19.3500   66.5100 C.cat 163  ARG163      0.5346
     83  NH1       13.7350   19.1850   65.2240 N.pl3 163  ARG163      0.1354
     84  NH2       13.0770   20.5500   66.9210 N.pl3 163  ARG163      0.1354
     85  N         15.5060   15.0550   71.8930 N.am  164  HIS164     -0.1962
     86  CA        16.0070   14.5500   73.1680 C.3   164  HIS164      0.1787
     87  C         14.9160   14.3590   74.2230 C.2   164  HIS164      0.2620
     88  O         14.9540   13.3910   74.9720 O.2   164  HIS164     -0.2715
     89  CB        17.1160   15.4530   73.7150 C.3   164  HIS164      0.0785
     90  CG        18.3560   15.4580   72.8770 C.ar  164  HIS164      0.0821
     91  ND1       19.3130   16.4450   72.9730 N.ar  164  HIS164     -0.2267
     92  CD2       18.8020   14.5910   71.9340 C.ar  164  HIS164      0.1154
     93  CE1       20.2980   16.1840   72.1300 C.ar  164  HIS164      0.1986
     94  NE2       20.0140   15.0660   71.4880 N.ar  164  HIS164     -0.2212
     95  N         13.9540   15.2670   74.3040 N.am  165  LEU165     -0.1977
     96  CA        12.8900   15.0840   75.2780 C.3   165  LEU165      0.1596
     97  C         12.0970   13.8240   74.9580 C.2   165  LEU165      0.2287
     98  O         11.6960   13.1150   75.8670 O.2   165  LEU165     -0.2864
     99  CB        11.9480   16.2840   75.3630 C.3   165  LEU165      0.0297
    100  CG        10.8960   16.2070   76.4810 C.3   165  LEU165      0.0022
    101  CD1       11.5240   16.0320   77.8580 C.3   165  LEU165      0.0001
    102  CD2       10.0130   17.4460   76.4570 C.3   165  LEU165      0.0001
    103  N         18.7910   26.7380   74.7970 N.3   195  SER195     -0.1202
    104  CA        17.8200   25.6460   74.7020 C.3   195  SER195      0.2020
    105  C         17.6870   25.1360   73.2790 C.2   195  SER195      0.2619
    106  O         17.3290   23.9730   73.0780 O.2   195  SER195     -0.2717
    107  CB        16.4410   26.0650   75.2060 C.3   195  SER195      0.2103
    108  OG        15.8540   27.0090   74.3400 O.3   195  SER195     -0.2182
    109  N         17.9720   26.0020   72.3080 N.am  196  GLN196     -0.1965
    110  CA        17.9640   25.6480   70.8860 C.3   196  GLN196      0.1733
    111  C         19.2650   25.0920   70.3550 C.2   196  GLN196      0.2616
    112  O         19.3270   24.7240   69.2030 O.2   196  GLN196     -0.2715
    113  CB        17.6290   26.8920   70.0570 C.3   196  GLN196      0.0408
    114  CG        16.3180   27.5220   70.4050 C.3   196  GLN196      0.0908
    115  CD        15.2140   26.5110   70.3160 C.2   196  GLN196      0.2608
    116  OE1       14.6560   26.0830   71.3450 O.2   196  GLN196     -0.2717
    117  NE2       14.9120   26.0830   69.0770 N.am  196  GLN196     -0.0878
    118  N         20.3160   25.0610   71.1650 N.am  197  ALA197     -0.1963
    119  CA        21.5950   24.5200   70.7090 C.3   197  ALA197      0.1728
    120  C         21.3770   23.0540   70.3960 C.2   197  ALA197      0.2617
    121  O         20.6500   22.3240   71.1190 O.2   197  ALA197     -0.2715
    122  CB        22.6810   24.6820   71.7570 C.3   197  ALA197      0.0334
    123  N         21.9830   22.6310   69.3040 N.am  198  THR198     -0.1937
    124  CA        21.6800   21.3330   68.7480 C.3   198  THR198      0.2028
    125  C         22.9820   20.5250   68.8090 C.2   198  THR198      0.2642
    126  O         23.9800   20.9040   68.1990 O.2   198  THR198     -0.2714
    127  CB        20.9820   21.4970   67.3760 C.3   198  THR198      0.1808
    128  OG1       20.4930   20.2350   66.9470 O.3   198  THR198     -0.2208
    129  CG2       21.8740   22.1450   66.3060 C.3   198  THR198      0.0379
    130  N         22.9730   19.4690   69.6320 N.am  199  THR199     -0.1950
    131  CA        24.2020   18.8320   70.1380 C.3   199  THR199      0.1897
    132  C         24.1080   17.3140   70.2530 C.2   199  THR199      0.2313
    133  O         23.0500   16.7130   70.0600 O.2   199  THR199     -0.2863
    134  CB        24.5680   19.3320   71.5650 C.3   199  THR199      0.1794
    135  OG1       23.6530   18.7890   72.5330 O.3   199  THR199     -0.2208
    136  CG2       24.5520   20.8280   71.6500 C.3   199  THR199      0.0378
    137  N         22.2130   21.8100   78.1910 N.3   205  GLU205     -0.1245
    138  CA        22.1050   23.1500   77.6150 C.3   205  GLU205      0.1567
    139  C         22.1380   24.2820   78.6390 C.2   205  GLU205      0.2260
    140  O         22.4650   25.4160   78.2800 O.2   205  GLU205     -0.2867
    141  CB        20.8500   23.2660   76.7540 C.3   205  GLU205      0.0388
    142  CG        20.9310   22.4260   75.4860 C.3   205  GLU205      0.1160
    143  CD        20.2660   21.0630   75.5840 C.2   205  GLU205      0.3649
    144  OE1       20.0290   20.5810   76.7060 O.co2 205  GLU205     -0.2457
    145  OE2       19.9550   20.4710   74.5210 O.co2 205  GLU205     -0.2457
    146  N          1.9470   28.2650   63.7590 N.3   254  GLU254     -0.1245
    147  CA         3.3520   27.9180   63.9370 C.3   254  GLU254      0.1567
    148  C          4.3260   28.8220   63.1570 C.2   254  GLU254      0.2260
    149  O          3.9150   29.7400   62.4490 O.2   254  GLU254     -0.2867
    150  CB         3.5620   26.4350   63.5820 C.3   254  GLU254      0.0388
    151  CG         3.5080   25.4850   64.7780 C.3   254  GLU254      0.1160
    152  CD         4.5550   25.7730   65.8760 C.2   254  GLU254      0.3649
    153  OE1        4.4070   25.1750   66.9810 O.co2 254  GLU254     -0.2457
    154  OE2        5.5120   26.5790   65.6580 O.co2 254  GLU254     -0.2457
    155  N          6.2870   34.4970   73.6520 N.3   284  ILE284     -0.1245
    156  CA         6.8490   34.6160   72.3110 C.3   284  ILE284      0.1561
    157  C          5.6800   34.4700   71.3410 C.2   284  ILE284      0.2260
    158  O          4.9900   33.4490   71.3250 O.2   284  ILE284     -0.2867
    159  CB         7.9230   33.5360   72.0270 C.3   284  ILE284      0.0252
    160  CG1        9.1430   33.7350   72.9260 C.3   284  ILE284      0.0019
    161  CG2        8.3730   33.6070   70.5720 C.3   284  ILE284      0.0019
    162  CD1       10.1070   32.5680   72.9230 C.3   284  ILE284      0.0001
    163  N         10.7620   34.5810   67.8020 N.3   291  HIS291     -0.1241
    164  CA        10.5470   33.1640   67.5300 C.3   291  HIS291      0.1621
    165  C         11.4990   32.6250   66.4780 C.2   291  HIS291      0.2264
    166  O         12.1560   31.6060   66.6840 O.2   291  HIS291     -0.2867
    167  CB         9.1090   32.9210   67.0790 C.3   291  HIS291      0.0745
    168  CG         8.7410   31.4740   66.9540 C.ar  291  HIS291      0.0817
    169  ND1        7.5210   31.0660   66.4730 N.ar  291  HIS291     -0.2268
    170  CD2        9.4370   30.3380   67.1980 C.ar  291  HIS291      0.1154
    171  CE1        7.4640   29.7480   66.4480 C.ar  291  HIS291      0.1986
    172  NE2        8.6110   29.2800   66.8930 N.ar  291  HIS291     -0.2212
    173  N         15.4910   32.7010   67.3480 N.3   294  LEU294     -0.1231
    174  CA        15.9470   31.7540   68.3840 C.3   294  LEU294      0.1693
    175  C         16.4590   30.4800   67.7410 C.2   294  LEU294      0.2592
    176  O         17.5750   30.0620   67.9890 O.2   294  LEU294     -0.2718
    177  CB        14.8410   31.4150   69.3860 C.3   294  LEU294      0.0284
    178  CG        14.6690   32.3990   70.5360 C.3   294  LEU294      0.0019
    179  CD1       13.4370   31.9970   71.3430 C.3   294  LEU294      0.0001
    180  CD2       15.9020   32.3870   71.4360 C.3   294  LEU294      0.0001
    181  N         15.6150   29.8880   66.8980 N.am  295  GLY295     -0.1957
    182  CA        15.9930   28.7360   66.1010 C.3   295  GLY295      0.1869
    183  C         16.9700   29.0850   64.9910 C.2   295  GLY295      0.2309
    184  O         17.8630   28.3050   64.6910 O.2   295  GLY295     -0.2863
    185  N         20.6370   27.3210   64.2180 N.3   299  ARG299     -0.1245
    186  CA        20.8340   26.6380   62.9280 C.3   299  ARG299      0.1563
    187  C         21.9690   27.2460   62.1130 C.2   299  ARG299      0.2260
    188  O         22.7100   26.5190   61.4700 O.2   299  ARG299     -0.2867
    189  CB        19.5710   26.6910   62.0850 C.3   299  ARG299      0.0307
    190  CG        18.4370   25.8800   62.6260 C.3   299  ARG299      0.0489
    191  CD        17.1740   26.1110   61.8150 C.3   299  ARG299      0.2205
    192  NE        16.2220   25.0900   62.2210 N.pl3 299  ARG299     -0.0865
    193  CZ        15.4030   25.1760   63.2710 C.cat 299  ARG299      0.5346
    194  NH1       15.3370   26.2800   64.0270 N.pl3 299  ARG299      0.1354
    195  NH2       14.6090   24.1470   63.5580 N.pl3 299  ARG299      0.1354
    196  N         15.0410   29.0010   58.2900 N.3   326  ARG326     -0.1245
    197  CA        14.9650   27.5390   58.1750 C.3   326  ARG326      0.1563
    198  C         15.1230   27.0740   56.7350 C.2   326  ARG326      0.2260
    199  O         15.9990   26.2630   56.4240 O.2   326  ARG326     -0.2867
    200  CB        13.5780   27.0560   58.6220 C.3   326  ARG326      0.0307
    201  CG        13.5180   26.3570   59.9460 C.3   326  ARG326      0.0489
    202  CD        12.0760   26.0130   60.2450 C.3   326  ARG326      0.2205
    203  NE        11.8500   25.6590   61.6470 N.pl3 326  ARG326     -0.0865
    204  CZ        11.8620   26.5290   62.6640 C.cat 326  ARG326      0.5346
    205  NH1       12.1200   27.8340   62.4780 N.pl3 326  ARG326      0.1354
    206  NH2       11.6200   26.0890   63.8930 N.pl3 326  ARG326      0.1354
@<TRIPOS>BOND
     1   199   198    2
     2   198   197    1
     3   197   196    1
     4   197   200    1
     5   200   201    1
     6   201   202    1
     7   202   203    1
     8   188   187    2
     9   203   204    2
    10   191   192    1
    11   191   190    1
    12   189   190    1
    13   189   186    1
    14   187   186    1
    15   192   193    2
    16   149   148    2
    17   205   204    1
    18   204   206    1
    19   186   185    1
    20   148   147    1
    21   193   195    1
    22   193   194    1
    23   150   147    1
    24   150   151    1
    25   146   147    1
    26   184   183    2
    27   151   152    1
    28   183   182    1
    29    83    82    1
    30   154   152   ar
    31    73    71    1
    32   152   153   ar
    33   182   181    1
    34    72    71    1
    35   129   127    1
    36   171   169   ar
    37   171   172   ar
    38   169   168   ar
    39   165   166    2
    40   165   164    1
    41    82    84    1
    42    82    81    2
    43    71    70    1
    44   172   170   ar
    45   181   175   am
    46   128   127    1
    47   168   167    1
    48   168   170   ar
    49    56    55    1
    50   167   164    1
    51    80    81    1
    52    80    79    1
    53   173   174    1
    54   127   124    1
    55    70    67    1
    56   164   163    1
    57    57    55    1
    58   175   176    2
    59   175   174    1
    60    79    78    1
    61    55    54    2
    62    65    63    1
    63   126   125    2
    64    64    63    1
    65    67    68    1
    66    67    66    1
    67   174   177    1
    68    68    69    2
    69   124   125    1
    70   124   123    1
    71   125   130   am
    72    63    62    1
    73   117   115   am
    74    54    53    1
    75   112   111    2
    76    74    75    1
    77   123   120   am
    78    78    75    1
    79   177   178    1
    80    75    76    1
    81   130   131    1
    82    53    52    1
    83   113   114    1
    84   113   110    1
    85   133   132    2
    86   131   132    1
    87   131   134    1
    88    62    59    1
    89   115   114    1
    90   115   116    2
    91   111   110    1
    92   111   118   am
    93   120   119    1
    94   120   121    2
    95   178   179    1
    96   178   180    1
    97   161   159    1
    98   119   118    1
    99   119   122    1
   100   110   109    1
   101    76    77    2
   102    76    85   am
   103    52    51    1
   104    59    60    1
   105    59    58    1
   106   158   157    2
   107   157   156    1
   108    94    92   ar
   109    94    93   ar
   110   134   136    1
   111   134   135    1
   112    60    61    2
   113    51    48    1
   114    85    86    1
   115    92    90   ar
   116   159   156    1
   117   159   160    1
   118    93    91   ar
   119   109   105   am
   120   156   155    1
   121    32    31    2
   122     7     5    1
   123    90    91   ar
   124    90    89    1
   125    47    48    1
   126    47    39   am
   127   162   160    1
   128    48    49    1
   129   106   105    2
   130    86    89    1
   131    86    87    1
   132     5     6    1
   133     5     2    1
   134    43    45   ar
   135    43    42   ar
   136    45    46   ar
   137   105   104    1
   138    31    37   am
   139    31    30    1
   140    38    39    1
   141    38    37    1
   142    38    41    1
   143     4     3    2
   144    33    35    1
   145    33    30    1
   146    33    34    1
   147    36    34    1
   148    39    40    2
   149    49    50    2
   150    42    41    1
   151    42    44   ar
   152    29    30    1
   153    29    25   am
   154     2     3    1
   155     2     1    1
   156    87    95   am
   157    87    88    2
   158    46    44   ar
   159    27    24    1
   160    27    28    1
   161    95    96    1
   162   108   107    1
   163   145   143   ar
   164   104   103    1
   165   104   107    1
   166    97    96    1
   167    97    98    2
   168    24    25    1
   169    24    23    1
   170    25    26    2
   171    96    99    1
   172    99   100    1
   173    19    18    2
   174   142   143    1
   175   142   141    1
   176    14    13    2
   177   143   144   ar
   178    15    13   am
   179    23    18   am
   180    13    12    1
   181    18    17    1
   182   102   100    1
   183   100   101    1
   184   141   138    1
   185   138   137    1
   186   138   139    1
   187    12     9    1
   188    17    16    1
   189    17    20    1
   190    16    10   am
   191   140   139    2
   192    20    21    1
   193    20    22    1
   194     9    10    1
   195     9     8    1
   196    10    11    2
