@<TRIPOS>MOLECULE
tmp/6h6wA00.pdb
 181 173 0 0 0
SMALL
GASTEIGER

@<TRIPOS>ATOM
      1  N         50.5910   11.8240   12.3850 N.3    40  LYS40      -0.1245
      2  CA        51.2940   11.5640   13.6340 C.3    40  LYS40       0.1561
      3  C         52.4200   10.5930   13.3280 C.2    40  LYS40       0.2260
      4  O         52.1790    9.5400   12.7230 O.2    40  LYS40      -0.2867
      5  CB        50.3960   10.9690   14.7080 C.3    40  LYS40       0.0271
      6  CG        51.2290   10.8110   16.0070 C.3    40  LYS40       0.0035
      7  CD        50.6820    9.8080   16.9410 C.3    40  LYS40       0.0206
      8  CE        51.8070    9.2560   17.8150 C.3    40  LYS40       0.1093
      9  NZ        51.2780    8.2490   18.7760 N.3    40  LYS40      -0.1314
     10  N         54.9020    8.0800   14.9410 N.3    42  GLY42      -0.1210
     11  CA        54.9160    7.3840   16.2250 C.3    42  GLY42       0.1956
     12  C         56.2490    7.5320   16.9490 C.2    42  GLY42       0.2612
     13  O         57.3200    7.5830   16.3360 O.2    42  GLY42      -0.2717
     14  N         56.1870    7.5960   18.2770 N.am   43  GLY43      -0.1942
     15  CA        57.4270    7.6830   19.0150 C.3    43  GLY43       0.2014
     16  C         58.0570    6.3090   19.1190 C.2    43  GLY43       0.2639
     17  O         59.1620    6.0840   18.6450 O.2    43  GLY43      -0.2714
     18  N         57.3550    5.3590   19.7290 N.am   44  GLN44      -0.1963
     19  CA        57.9200    4.0230   19.8310 C.3    44  GLN44       0.1733
     20  C         58.0150    3.3670   18.4650 C.2    44  GLN44       0.2617
     21  O         58.9710    2.6420   18.1730 O.2    44  GLN44      -0.2715
     22  CB        57.0700    3.1720   20.7700 C.3    44  GLN44       0.0408
     23  CG        57.6610    1.7990   20.9890 C.3    44  GLN44       0.0908
     24  CD        57.2970    1.2480   22.3510 C.2    44  GLN44       0.2608
     25  OE1       56.1130    1.2100   22.7100 O.2    44  GLN44      -0.2717
     26  NE2       58.3210    0.8660   23.1470 N.am   44  GLN44      -0.0878
     27  N         57.0590    3.6290   17.5990 N.am   45  SER45      -0.1950
     28  CA        57.0350    2.8570   16.3700 C.3    45  SER45       0.1924
     29  C         57.9550    3.4320   15.2950 C.2    45  SER45       0.2314
     30  O         58.3860    2.6810   14.4150 O.2    45  SER45      -0.2863
     31  CB        55.5810    2.7360   15.8610 C.3    45  SER45       0.2116
     32  OG        55.0320    3.9980   15.6850 O.3    45  SER45      -0.2180
     33  N         54.9520   11.3620   18.4200 N.3    75  GLY75      -0.1210
     34  CA        54.6900   10.5600   19.5950 C.3    75  GLY75       0.1956
     35  C         55.8400   10.6550   20.5730 C.2    75  GLY75       0.2612
     36  O         56.7780   11.4450   20.4150 O.2    75  GLY75      -0.2717
     37  N         55.7570    9.8490   21.6380 N.am   76  ALA76      -0.1965
     38  CA        56.7030    9.9590   22.7460 C.3    76  ALA76       0.1728
     39  C         57.5970    8.7230   22.7790 C.2    76  ALA76       0.2616
     40  O         58.7740    8.8110   22.4530 O.2    76  ALA76      -0.2715
     41  CB        55.9710   10.1620   24.0850 C.3    76  ALA76       0.0334
     42  N         57.0850    7.5610   23.1560 N.am   77  GLY77      -0.1955
     43  CA        57.8740    6.3590   23.0000 C.3    77  GLY77       0.1869
     44  C         58.5000    5.8870   24.2910 C.2    77  GLY77       0.2309
     45  O         57.9970    6.1320   25.3830 O.2    77  GLY77      -0.2863
     46  N         47.0790   10.4600   25.1550 N.3   166  ARG166     -0.1231
     47  CA        48.4710   10.7740   24.8830 C.3   166  ARG166      0.1694
     48  C         48.6000   11.2890   23.4470 C.2   166  ARG166      0.2592
     49  O         47.7440   12.0600   22.9940 O.2   166  ARG166     -0.2718
     50  CB        49.3390    9.5470   25.1950 C.3   166  ARG166      0.0321
     51  CG        49.0840    9.1220   26.6990 C.3   166  ARG166      0.0489
     52  CD        49.8960    7.9180   27.1360 C.3   166  ARG166      0.2205
     53  NE        49.7850    6.7470   26.2620 N.pl3 166  ARG166     -0.0865
     54  CZ        48.8260    5.8410   26.3530 C.cat 166  ARG166      0.5346
     55  NH1       47.8530    5.9660   27.2600 N.pl3 166  ARG166      0.1354
     56  NH2       48.8330    4.8000   25.5370 N.pl3 166  ARG166      0.1354
     57  N         49.6500   10.9020   22.7230 N.am  167  THR167     -0.1953
     58  CA        49.9350   11.6270   21.4930 C.3   167  THR167      0.1897
     59  C         49.0150   11.2430   20.3370 C.2   167  THR167      0.2313
     60  O         48.8580   12.0670   19.4250 O.2   167  THR167     -0.2863
     61  CB        51.4040   11.4480   21.0730 C.3   167  THR167      0.1794
     62  OG1       51.7250   10.0680   20.9160 O.3   167  THR167     -0.2208
     63  CG2       52.3180   12.0130   22.1720 C.3   167  THR167      0.0378
     64  N         52.5990    4.4270   12.0030 N.3   187  LYS187     -0.1231
     65  CA        53.1070    3.4870   12.9990 C.3   187  LYS187      0.1693
     66  C         54.0920    2.5240   12.3600 C.2   187  LYS187      0.2592
     67  O         54.6670    2.8310   11.3100 O.2   187  LYS187     -0.2718
     68  CB        51.9530    2.7140   13.6580 C.3   187  LYS187      0.0285
     69  CG        50.7890    3.6030   14.1400 C.3   187  LYS187      0.0035
     70  CD        50.8380    3.8340   15.6440 C.3   187  LYS187      0.0206
     71  CE        49.7710    4.8520   16.1120 C.3   187  LYS187      0.1093
     72  NZ        49.5820    4.6850   17.5580 N.3   187  LYS187     -0.1314
     73  N         54.2920    1.3590   12.9820 N.am  188  ASP188     -0.1960
     74  CA        55.2680    0.3890   12.5130 C.3   188  ASP188      0.1840
     75  C         54.6050   -0.9200   12.1070 C.2   188  ASP188      0.2621
     76  O         55.2650   -1.9520   12.1030 O.2   188  ASP188     -0.2715
     77  CB        56.3400    0.1140   13.5700 C.3   188  ASP188      0.1450
     78  CG        55.7550   -0.3860   14.8830 C.2   188  ASP188      0.3671
     79  OD1       54.5200   -0.4890   14.9910 O.co2 188  ASP188     -0.2456
     80  OD2       56.5420   -0.6330   15.8110 O.co2 188  ASP188     -0.2456
     81  N         53.3140   -0.8950   11.7930 N.am  189  GLU189     -0.1977
     82  CA        52.6150   -2.0610   11.2590 C.3   189  GLU189      0.1602
     83  C         51.7910   -1.6040   10.0740 C.2   189  GLU189      0.2287
     84  O         51.4360   -0.4340    9.9690 O.2   189  GLU189     -0.2864
     85  CB        51.6810   -2.7030   12.2880 C.3   189  GLU189      0.0415
     86  CG        52.3810   -3.2580   13.4960 C.3   189  GLU189      0.1163
     87  CD        53.2370   -4.4710   13.1690 C.2   189  GLU189      0.3649
     88  OE1       53.0240   -5.0980   12.1000 O.co2 189  GLU189     -0.2457
     89  OE2       54.1240   -4.8020   13.9930 O.co2 189  GLU189     -0.2457
     90  N         48.8120   -1.9310    9.4570 N.3   191  GLY191     -0.1210
     91  CA        47.5190   -1.3820    9.8180 C.3   191  GLY191      0.1956
     92  C         46.9610   -2.1840   10.9580 C.2   191  GLY191      0.2612
     93  O         47.7070   -2.8070   11.7160 O.2   191  GLY191     -0.2717
     94  N         45.6420   -2.2020   11.0510 N.am  192  LEU192     -0.1965
     95  CA        44.9970   -3.0000   12.0840 C.3   192  LEU192      0.1728
     96  C         44.9340   -4.4650   11.6740 C.2   192  LEU192      0.2616
     97  O         44.6470   -4.7920   10.5140 O.2   192  LEU192     -0.2715
     98  CB        43.5890   -2.4620   12.3470 C.3   192  LEU192      0.0311
     99  CG        42.7380   -3.1210   13.4220 C.3   192  LEU192      0.0022
    100  CD1       43.2320   -2.7630   14.8290 C.3   192  LEU192      0.0001
    101  CD2       41.3040   -2.6900   13.2340 C.3   192  LEU192      0.0001
    102  N         45.2140   -5.3520   12.6320 N.am  193  TYR193     -0.1974
    103  CA        44.9970   -6.7790   12.4710 C.3   193  TYR193      0.1639
    104  C         43.9800   -7.2600   13.5000 C.2   193  TYR193      0.2290
    105  O         43.6810   -6.5710   14.4800 O.2   193  TYR193     -0.2864
    106  CB        46.2980   -7.5770   12.6260 C.3   193  TYR193      0.0560
    107  CG        47.3220   -7.3220   11.5390 C.ar  193  TYR193     -0.0198
    108  CD1       48.0760   -6.1580   11.5440 C.ar  193  TYR193     -0.0009
    109  CD2       47.5290   -8.2460   10.5150 C.ar  193  TYR193     -0.0009
    110  CE1       49.0210   -5.9100   10.5570 C.ar  193  TYR193      0.0417
    111  CE2       48.4720   -8.0120    9.5180 C.ar  193  TYR193      0.0417
    112  CZ        49.2130   -6.8400    9.5620 C.ar  193  TYR193      0.1957
    113  OH        50.1630   -6.5640    8.6110 O.3   193  TYR193     -0.2866
    114  N         44.5150   -9.3560   15.6570 N.3   195  ALA195     -0.1231
    115  CA        45.2340   -9.5130   16.9180 C.3   195  ALA195      0.1694
    116  C         46.5660   -8.7950   16.7690 C.2   195  ALA195      0.2592
    117  O         46.9610   -8.4310   15.6610 O.2   195  ALA195     -0.2718
    118  CB        45.4360  -10.9870   17.2700 C.3   195  ALA195      0.0304
    119  N         47.2720   -8.5940   17.8930 N.am  196  ASN196     -0.1961
    120  CA        48.5670   -7.9090   17.8450 C.3   196  ASN196      0.1804
    121  C         49.5330   -8.6900   16.9630 C.2   196  ASN196      0.2463
    122  O         49.9360   -9.7980   17.3310 O.2   196  ASN196     -0.2730
    123  CB        49.1680   -7.7400   19.2490 C.3   196  ASN196      0.1195
    124  CG        50.3480   -6.7560   19.2750 C.2   196  ASN196      0.2630
    125  OD1       50.8990   -6.3860   18.2320 O.2   196  ASN196     -0.2716
    126  ND2       50.7250   -6.3190   20.4720 N.am  196  ASN196     -0.0877
    127  N         49.9240   -8.1590   15.7980 N.am  197  PRO197     -0.2716
    128  CA        50.7800   -8.9440   14.8930 C.3   197  PRO197      0.1536
    129  C         52.1630   -9.2300   15.4610 C.2   197  PRO197      0.2598
    130  O         52.8190  -10.1680   14.9900 O.2   197  PRO197     -0.2715
    131  CB        50.8560   -8.0750   13.6250 C.3   197  PRO197      0.0310
    132  CG        50.5830   -6.7000   14.0850 C.3   197  PRO197      0.0237
    133  CD        49.6740   -6.7960   15.2850 C.3   197  PRO197      0.0939
    134  N         52.6190   -8.4710   16.4660 N.am  198  LYS198     -0.1978
    135  CA        53.9260   -8.7330   17.0630 C.3   198  LYS198      0.1596
    136  C         53.8940   -9.9240   18.0070 C.2   198  LYS198      0.2287
    137  O         54.9240  -10.5830   18.1980 O.2   198  LYS198     -0.2864
    138  CB        54.4300   -7.5010   17.8150 C.3   198  LYS198      0.0298
    139  CG        54.9370   -6.3710   16.9200 C.3   198  LYS198      0.0038
    140  CD        55.4390   -5.2060   17.7760 C.3   198  LYS198      0.0206
    141  CE        56.0310   -4.0870   16.9210 C.3   198  LYS198      0.1093
    142  NZ        55.0110   -3.0850   16.5330 N.3   198  LYS198     -0.1314
    143  N         38.9610   -5.1390   19.7580 N.3   219  LEU219     -0.1245
    144  CA        40.1050   -4.3360   19.3410 C.3   219  LEU219      0.1561
    145  C         40.0420   -2.8990   19.8610 C.2   219  LEU219      0.2260
    146  O         40.6970   -2.0150   19.2930 O.2   219  LEU219     -0.2867
    147  CB        40.2190   -4.3310   17.8120 C.3   219  LEU219      0.0270
    148  CG        40.3520   -5.7120   17.1760 C.3   219  LEU219      0.0019
    149  CD1       40.2790   -5.6260   15.6530 C.3   219  LEU219      0.0001
    150  CD2       41.6540   -6.3580   17.6330 C.3   219  LEU219      0.0001
    151  N         41.4030   -1.4710   22.3720 N.3   221  ASP221     -0.1225
    152  CA        42.7490   -1.0250   22.7310 C.3   221  ASP221      0.1805
    153  C         43.7530   -1.8430   21.9180 C.2   221  ASP221      0.2598
    154  O         44.2790   -2.8570   22.3870 O.2   221  ASP221     -0.2718
    155  CB        42.9950   -1.1720   24.2570 C.3   221  ASP221      0.1424
    156  CG        43.9800   -0.1400   24.7960 C.2   221  ASP221      0.3668
    157  OD1       44.4980    0.6910   24.0080 O.co2 221  ASP221     -0.2456
    158  OD2       44.2410   -0.1590   26.0190 O.co2 221  ASP221     -0.2456
    159  N         44.0160   -1.3970   20.6880 N.am  222  SER222     -0.1938
    160  CA        44.9480   -2.1050   19.8200 C.3   222  SER222      0.2055
    161  C         45.9500   -1.1230   19.2190 C.2   222  SER222      0.2642
    162  O         46.8710   -0.6780   19.9090 O.2   222  SER222     -0.2714
    163  CB        44.1880   -2.8650   18.7340 C.3   222  SER222      0.2130
    164  OG        43.2840   -1.9980   18.0590 O.3   222  SER222     -0.2179
    165  N         45.7940   -0.7630   17.9440 N.am  223  ILE223     -0.1977
    166  CA        46.8370    0.0450   17.3070 C.3   223  ILE223      0.1596
    167  C         46.7150    1.5370   17.6050 C.2   223  ILE223      0.2287
    168  O         47.6930    2.2750   17.3980 O.2   223  ILE223     -0.2864
    169  CB        46.8690   -0.2600   15.7940 C.3   223  ILE223      0.0276
    170  CG1       48.1470    0.3200   15.1610 C.3   223  ILE223      0.0022
    171  CG2       45.6310    0.2710   15.0910 C.3   223  ILE223      0.0022
    172  CD1       48.4540   -0.2230   13.7470 C.3   223  ILE223      0.0001
    173  N         45.5000    4.5350   20.7260 N.3   225  GLU225     -0.1245
    174  CA        44.9850    4.7760   22.0770 C.3   225  GLU225      0.1567
    175  C         43.4600    4.6030   22.0790 C.2   225  GLU225      0.2260
    176  O         42.7630    5.1880   21.2450 O.2   225  GLU225     -0.2867
    177  CB        45.3750    6.1880   22.5350 C.3   225  GLU225      0.0388
    178  CG        46.8860    6.3430   22.7910 C.3   225  GLU225      0.1160
    179  CD        47.3650    7.7880   22.6510 C.2   225  GLU225      0.3649
    180  OE1       48.5480    7.9830   22.2230 O.co2 225  GLU225     -0.2457
    181  OE2       46.5370    8.7040   22.9480 O.co2 225  GLU225     -0.2457
@<TRIPOS>BOND
     1   113   112    1
     2    90    91    1
     3   111   112   ar
     4   111   109   ar
     5   112   110   ar
     6    91    92    1
     7    84    83    2
     8    83    82    1
     9    97    96    2
    10   109   107   ar
    11   110   108   ar
    12    92    94   am
    13    92    93    2
    14    94    95    1
    15    82    81    1
    16    82    85    1
    17    67    66    2
    18   107   108   ar
    19   107   106    1
    20    96    95    1
    21    96   102   am
    22    81    75   am
    23    64    65    1
    24    95    98    1
    25    88    87   ar
    26    76    75    2
    27    75    74    1
    28    85    86    1
    29    98    99    1
    30    66    73   am
    31    66    65    1
    32     1     2    1
    33   103   106    1
    34   103   102    1
    35   103   104    1
    36    74    73    1
    37    74    77    1
    38     4     3    2
    39    65    68    1
    40    87    86    1
    41    87    89   ar
    42   101    99    1
    43     3     2    1
    44    99   100    1
    45   104   105    2
    46    77    78    1
    47   131   132    1
    48   131   128    1
    49     2     5    1
    50    68    69    1
    51   172   170    1
    52   132   133    1
    53    69    70    1
    54    30    29    2
    55     5     6    1
    56    78    79   ar
    57    78    80   ar
    58   128   129    1
    59   128   127    1
    60    10    11    1
    61   130   129    2
    62   171   169    1
    63   170   169    1
    64   133   127    1
    65    29    28    1
    66   129   134   am
    67    70    71    1
    68   149   148    1
    69   114   115    1
    70   117   116    2
    71    32    31    1
    72   169   166    1
    73   127   121   am
    74    31    28    1
    75     6     7    1
    76    71    72    1
    77    11    12    1
    78    13    12    2
    79    28    27    1
    80   134   135    1
    81   142   141    1
    82   116   115    1
    83   116   119   am
    84   115   118    1
    85   139   140    1
    86   139   138    1
    87   141   140    1
    88     7     8    1
    89    12    14   am
    90   121   122    2
    91   121   120    1
    92   135   138    1
    93   135   136    1
    94   148   150    1
    95   148   147    1
    96   166   167    1
    97   166   165    1
    98   168   167    2
    99    27    20   am
   100   147   144    1
   101     8     9    1
   102   120   119    1
   103   120   123    1
   104   165   161   am
   105   136   137    2
   106   164   163    1
   107    21    20    2
   108   125   124    2
   109    14    15    1
   110    33    34    1
   111    20    19    1
   112    17    16    2
   113   163   160    1
   114    15    16    1
   115    16    18   am
   116   161   160    1
   117   161   162    2
   118   123   124    1
   119   124   126   am
   120   146   145    2
   121   144   143    1
   122   144   145    1
   123    60    59    2
   124    34    35    1
   125    18    19    1
   126   160   159    1
   127    19    22    1
   128    59    58    1
   129    36    35    2
   130    35    37   am
   131   159   153   am
   132   173   174    1
   133    22    23    1
   134    62    61    1
   135    23    24    1
   136    61    58    1
   137    61    63    1
   138   176   175    2
   139    58    57    1
   140    37    38    1
   141   153   154    2
   142   153   152    1
   143   174   175    1
   144   174   177    1
   145   180   179   ar
   146    24    25    2
   147    24    26   am
   148   151   152    1
   149    40    39    2
   150   177   178    1
   151   179   178    1
   152   179   181   ar
   153    57    48   am
   154   152   155    1
   155    38    39    1
   156    38    41    1
   157    39    42   am
   158    49    48    2
   159    43    42    1
   160    43    44    1
   161    48    47    1
   162   157   156   ar
   163   155   156    1
   164    44    45    2
   165   156   158   ar
   166    47    46    1
   167    47    50    1
   168    50    51    1
   169    56    54    1
   170    53    54    2
   171    53    52    1
   172    54    55    1
   173    51    52    1
