@<TRIPOS>MOLECULE
tmp/6h6xA00.pdb
 229 220 0 0 0
SMALL
GASTEIGER

@<TRIPOS>ATOM
      1  N         20.3180   -1.5580  -17.8520 N.3   131  THR131     -0.1218
      2  CA        20.1550   -2.8270  -18.5420 C.3   131  THR131      0.1862
      3  C         21.2730   -3.8180  -18.3300 C.2   131  THR131      0.2287
      4  O         21.1440   -4.9550  -18.7810 O.2   131  THR131     -0.2866
      5  CB        20.0490   -2.6140  -20.0540 C.3   131  THR131      0.1770
      6  OG1       21.1930   -1.8650  -20.5050 O.3   131  THR131     -0.2211
      7  CG2       18.7780   -1.8510  -20.3860 C.3   131  THR131      0.0375
      8  N         21.1460  -15.6600   -4.9710 N.3   146  ASN146     -0.1225
      9  CA        20.8500  -15.7090   -6.4160 C.3   146  ASN146      0.1785
     10  C         21.3450  -14.4390   -7.1120 C.2   146  ASN146      0.2597
     11  O         21.3880  -13.3570   -6.5120 O.2   146  ASN146     -0.2718
     12  CB        19.3530  -15.8180   -6.5810 C.3   146  ASN146      0.1169
     13  CG        18.9470  -16.3150   -7.9190 C.2   146  ASN146      0.2627
     14  OD1       19.0400  -17.5420   -8.1690 O.2   146  ASN146     -0.2716
     15  ND2       18.4630  -15.3870   -8.8160 N.am  146  ASN146     -0.0877
     16  N         21.6720  -14.5750   -8.3840 N.am  147  VAL147     -0.1966
     17  CA        22.0170  -13.4800   -9.2530 C.3   147  VAL147      0.1727
     18  C         21.1620  -13.5950  -10.5200 C.2   147  VAL147      0.2617
     19  O         21.0330  -14.6670  -11.0680 O.2   147  VAL147     -0.2715
     20  CB        23.4930  -13.5390   -9.6370 C.3   147  VAL147      0.0290
     21  CG1       23.9240  -12.2930  -10.3800 C.3   147  VAL147      0.0023
     22  CG2       24.3410  -13.7010   -8.3840 C.3   147  VAL147      0.0023
     23  N         20.6280  -12.4790  -11.0020 N.am  148  SER148     -0.1936
     24  CA        19.9020  -12.3610  -12.2620 C.3   148  SER148      0.2055
     25  C         19.9910  -10.9230  -12.7820 C.2   148  SER148      0.2643
     26  O         20.3960  -10.0040  -12.0580 O.2   148  SER148     -0.2714
     27  CB        18.4170  -12.7590  -12.0630 C.3   148  SER148      0.2130
     28  OG        17.8850  -12.2410  -10.8420 O.3   148  SER148     -0.2179
     29  N         19.6160  -10.7070  -14.0330 N.am  149  ILE149     -0.1963
     30  CA        19.6410   -9.3850  -14.6330 C.3   149  ILE149      0.1727
     31  C         18.1910   -8.9870  -14.9240 C.2   149  ILE149      0.2616
     32  O         17.4570   -9.7360  -15.6030 O.2   149  ILE149     -0.2715
     33  CB        20.4680   -9.3520  -15.9280 C.3   149  ILE149      0.0290
     34  CG1       21.9390   -9.5980  -15.5940 C.3   149  ILE149      0.0022
     35  CG2       20.3120   -8.0140  -16.6440 C.3   149  ILE149      0.0023
     36  CD1       22.8840   -9.5520  -16.8010 C.3   149  ILE149      0.0001
     37  N         17.8160   -7.8090  -14.4380 N.am  150  HIS150     -0.1959
     38  CA        16.4650   -7.2390  -14.6220 C.3   150  HIS150      0.1787
     39  C         16.5760   -5.8240  -15.1450 C.2   150  HIS150      0.2620
     40  O         17.4860   -5.0800  -14.7520 O.2   150  HIS150     -0.2715
     41  CB        15.7070   -7.2250  -13.2690 C.3   150  HIS150      0.0785
     42  CG        15.6150   -8.5750  -12.6520 C.ar  150  HIS150      0.0821
     43  ND1       14.5460   -9.4190  -12.8580 N.ar  150  HIS150     -0.2267
     44  CD2       16.5460   -9.2990  -11.9620 C.ar  150  HIS150      0.1154
     45  CE1       14.8060  -10.5890  -12.2880 C.ar  150  HIS150      0.1986
     46  NE2       16.0120  -10.5340  -11.7330 N.ar  150  HIS150     -0.2212
     47  N         15.7120   -5.4620  -16.0850 N.am  151  ARG151     -0.1977
     48  CA        15.6510   -4.0600  -16.5030 C.3   151  ARG151      0.1597
     49  C         15.1280   -3.2010  -15.3580 C.2   151  ARG151      0.2287
     50  O         14.2630   -3.6150  -14.6140 O.2   151  ARG151     -0.2864
     51  CB        14.8150   -3.9110  -17.7790 C.3   151  ARG151      0.0334
     52  CG        13.3390   -4.0420  -17.5620 C.3   151  ARG151      0.0492
     53  CD        12.5690   -4.0250  -18.8590 C.3   151  ARG151      0.2205
     54  NE        11.1290   -3.9040  -18.6210 N.pl3 151  ARG151     -0.0865
     55  CZ        10.1410   -4.4550  -19.3270 C.cat 151  ARG151      0.5346
     56  NH1       10.3470   -5.2460  -20.3550 N.pl3 151  ARG151      0.1354
     57  NH2        8.8980   -4.2340  -18.9540 N.pl3 151  ARG151      0.1354
     58  N         11.1020   -5.0760  -13.6370 N.3   163  LEU163     -0.1245
     59  CA        10.3950   -6.2060  -14.1720 C.3   163  LEU163      0.1561
     60  C         11.0010   -7.4600  -13.5490 C.2   163  LEU163      0.2260
     61  O         12.1860   -7.7330  -13.7520 O.2   163  LEU163     -0.2867
     62  CB        10.5530   -6.2590  -15.6950 C.3   163  LEU163      0.0270
     63  CG        10.0740   -7.6220  -16.3110 C.3   163  LEU163      0.0019
     64  CD1        8.5700   -7.8140  -16.0570 C.3   163  LEU163      0.0001
     65  CD2       10.4100   -7.6860  -17.7810 C.3   163  LEU163      0.0001
     66  N         10.2850  -11.4200  -13.7510 N.3   165  LEU165     -0.1245
     67  CA         9.6150  -12.6180  -14.2530 C.3   165  LEU165      0.1561
     68  C          9.5280  -13.7040  -13.1710 C.2   165  LEU165      0.2260
     69  O         10.2750  -13.6550  -12.2010 O.2   165  LEU165     -0.2867
     70  CB        10.3200  -13.1010  -15.5220 C.3   165  LEU165      0.0270
     71  CG        10.2100  -12.0740  -16.6840 C.3   165  LEU165      0.0019
     72  CD1       11.0240  -12.4650  -17.9180 C.3   165  LEU165      0.0001
     73  CD2        8.7320  -11.8380  -17.0770 C.3   165  LEU165      0.0001
     74  N         10.5760  -16.4000  -11.6170 N.3   167  ARG167     -0.1231
     75  CA        11.7800  -17.2470  -11.5530 C.3   167  ARG167      0.1694
     76  C         12.3530  -17.0780  -10.1160 C.2   167  ARG167      0.2592
     77  O         11.5600  -16.8910   -9.1910 O.2   167  ARG167     -0.2718
     78  CB        12.7920  -16.8470  -12.6500 C.3   167  ARG167      0.0321
     79  CG        12.4140  -17.1150  -14.1230 C.3   167  ARG167      0.0489
     80  CD        12.6280  -18.5830  -14.5440 C.3   167  ARG167      0.2205
     81  NE        13.9430  -19.1360  -14.1340 N.pl3 167  ARG167     -0.0865
     82  CZ        14.1810  -20.3540  -13.6220 C.cat 167  ARG167      0.5346
     83  NH1       13.2090  -21.2430  -13.4410 N.pl3 167  ARG167      0.1354
     84  NH2       15.4230  -20.6890  -13.2830 N.pl3 167  ARG167      0.1354
     85  N         13.6790  -17.0890   -9.8910 N.am  168  HIS168     -0.1962
     86  CA        14.1630  -17.1010   -8.5060 C.3   168  HIS168      0.1787
     87  C         13.9540  -15.8280   -7.6930 C.2   168  HIS168      0.2620
     88  O         13.5350  -15.8930   -6.5480 O.2   168  HIS168     -0.2715
     89  CB        15.6110  -17.5780   -8.4300 C.3   168  HIS168      0.0785
     90  CG        15.7820  -18.9740   -8.9410 C.ar  168  HIS168      0.0821
     91  ND1       16.9880  -19.4580   -9.3900 N.ar  168  HIS168     -0.2267
     92  CD2       14.8790  -19.9710   -9.1310 C.ar  168  HIS168      0.1154
     93  CE1       16.8340  -20.7070   -9.8050 C.ar  168  HIS168      0.1986
     94  NE2       15.5650  -21.0410   -9.6590 N.ar  168  HIS168     -0.2212
     95  N         14.2430  -14.6640   -8.2620 N.am  169  LEU169     -0.1977
     96  CA        14.0650  -13.4500   -7.5050 C.3   169  LEU169      0.1596
     97  C         12.5810  -13.2580   -7.0700 C.2   169  LEU169      0.2287
     98  O         12.2970  -12.8100   -5.9870 O.2   169  LEU169     -0.2864
     99  CB        14.5030  -12.2710   -8.3420 C.3   169  LEU169      0.0297
    100  CG        14.4070  -10.9430   -7.6250 C.3   169  LEU169      0.0022
    101  CD1       15.2710  -10.9360   -6.3970 C.3   169  LEU169      0.0001
    102  CD2       14.8190   -9.8580   -8.5760 C.3   169  LEU169      0.0001
    103  N         25.3830  -15.0180  -14.5480 N.3   199  SER199     -0.1202
    104  CA        24.0740  -14.5500  -14.0570 C.3   199  SER199      0.2020
    105  C         22.8850  -15.0820  -14.8520 C.2   199  SER199      0.2619
    106  O         21.7330  -14.9690  -14.3940 O.2   199  SER199     -0.2717
    107  CB        24.0130  -13.0420  -14.0710 C.3   199  SER199      0.2103
    108  OG        23.8780  -12.5580  -15.4080 O.3   199  SER199     -0.2182
    109  N         23.1420  -15.6000  -16.0480 N.am  200  GLN200     -0.1965
    110  CA        22.1250  -16.1710  -16.9160 C.3   200  GLN200      0.1733
    111  C         21.9470  -17.6860  -16.7820 C.2   200  GLN200      0.2616
    112  O         21.0710  -18.2300  -17.4170 O.2   200  GLN200     -0.2715
    113  CB        22.4370  -15.7840  -18.3780 C.3   200  GLN200      0.0408
    114  CG        22.4840  -14.2780  -18.5640 C.3   200  GLN200      0.0908
    115  CD        21.1560  -13.6520  -18.1130 C.2   200  GLN200      0.2608
    116  OE1       21.0690  -12.9860  -17.0590 O.2   200  GLN200     -0.2717
    117  NE2       20.1110  -13.9230  -18.8590 N.am  200  GLN200     -0.0878
    118  N         22.7270  -18.3480  -15.9470 N.am  201  ALA201     -0.1963
    119  CA        22.4550  -19.7550  -15.6360 C.3   201  ALA201      0.1728
    120  C         21.0600  -19.9820  -15.0380 C.2   201  ALA201      0.2616
    121  O         20.5980  -19.2840  -14.1070 O.2   201  ALA201     -0.2715
    122  CB        23.5100  -20.3370  -14.7010 C.3   201  ALA201      0.0334
    123  N         20.4040  -20.9700  -15.6170 N.am  202  THR202     -0.1951
    124  CA        19.1310  -21.4770  -15.1900 C.3   202  THR202      0.1897
    125  C         19.4900  -22.7490  -14.4470 C.2   202  THR202      0.2313
    126  O         20.0420  -23.7100  -15.0080 O.2   202  THR202     -0.2863
    127  CB        18.2220  -21.7660  -16.4090 C.3   202  THR202      0.1794
    128  OG1       18.1130  -20.5580  -17.1780 O.3   202  THR202     -0.2208
    129  CG2       16.7980  -22.2390  -15.9890 C.3   202  THR202      0.0378
    130  N         24.7420  -18.1980   -8.3760 N.3   209  GLU209     -0.1245
    131  CA        25.4250  -17.8720   -9.6150 C.3   209  GLU209      0.1567
    132  C         26.7610  -17.1520   -9.4230 C.2   209  GLU209      0.2260
    133  O         27.6070  -17.2030  -10.3200 O.2   209  GLU209     -0.2867
    134  CB        24.5350  -17.1040  -10.5610 C.3   209  GLU209      0.0388
    135  CG        23.4070  -17.9570  -11.0690 C.3   209  GLU209      0.1160
    136  CD        22.1130  -17.8140  -10.2430 C.2   209  GLU209      0.3649
    137  OE1       22.1350  -17.4020   -9.0910 O.co2 209  GLU209     -0.2457
    138  OE2       21.0620  -18.0730  -10.7920 O.co2 209  GLU209     -0.2457
    139  N          8.9200   -0.9530  -22.7120 N.3   256  PHE256     -0.1241
    140  CA        10.3680   -1.0570  -22.9960 C.3   256  PHE256      0.1605
    141  C         10.6100   -1.9120  -24.2370 C.2   256  PHE256      0.2264
    142  O         10.0300   -2.9930  -24.3660 O.2   256  PHE256     -0.2867
    143  CB        10.9980   -1.6900  -21.7490 C.3   256  PHE256      0.0534
    144  CG        12.4800   -1.9110  -21.8130 C.ar  256  PHE256     -0.0203
    145  CD1       13.3570   -0.8950  -21.6450 C.ar  256  PHE256     -0.0042
    146  CD2       12.9820   -3.1890  -22.0070 C.ar  256  PHE256     -0.0042
    147  CE1       14.7330   -1.1240  -21.6570 C.ar  256  PHE256     -0.0003
    148  CE2       14.3560   -3.4390  -21.9960 C.ar  256  PHE256     -0.0003
    149  CZ        15.2230   -2.4000  -21.7830 C.ar  256  PHE256     -0.0000
    150  N         12.3250   -4.8080  -26.0700 N.3   258  GLU258     -0.1231
    151  CA        12.8550   -6.0630  -25.4970 C.3   258  GLU258      0.1699
    152  C         13.5920   -6.9690  -26.5280 C.2   258  GLU258      0.2592
    153  O         13.6290   -6.6470  -27.6980 O.2   258  GLU258     -0.2718
    154  CB        11.6970   -6.8320  -24.8160 C.3   258  GLU258      0.0402
    155  CG        11.5980   -6.7050  -23.3050 C.3   258  GLU258      0.1161
    156  CD        12.8140   -7.2440  -22.4950 C.2   258  GLU258      0.3649
    157  OE1       12.6680   -7.2380  -21.2520 O.co2 258  GLU258     -0.2457
    158  OE2       13.8990   -7.6600  -23.0620 O.co2 258  GLU258     -0.2457
    159  N         14.1350   -8.1110  -26.0500 N.am  259  TYR259     -0.1976
    160  CA        14.8690   -9.1690  -26.8560 C.3   259  TYR259      0.1639
    161  C         14.2290   -9.6540  -28.1860 C.2   259  TYR259      0.2290
    162  O         14.9730   -9.8100  -29.1910 O.2   259  TYR259     -0.2864
    163  CB        15.2360  -10.4380  -26.0050 C.3   259  TYR259      0.0560
    164  CG        14.0500  -11.1760  -25.4070 C.ar  259  TYR259     -0.0198
    165  CD1       13.3410  -12.1610  -26.1520 C.ar  259  TYR259     -0.0009
    166  CD2       13.6030  -10.8810  -24.1170 C.ar  259  TYR259     -0.0009
    167  CE1       12.2200  -12.8150  -25.6040 C.ar  259  TYR259      0.0417
    168  CE2       12.4850  -11.5160  -23.5630 C.ar  259  TYR259      0.0417
    169  CZ        11.8050  -12.4820  -24.2920 C.ar  259  TYR259      0.1957
    170  OH        10.7290  -13.0860  -23.6890 O.3   259  TYR259     -0.2866
    171  N         23.8040   -2.5230  -21.9190 N.3   288  ILE288     -0.1245
    172  CA        23.5440   -3.5340  -22.9220 C.3   288  ILE288      0.1561
    173  C         22.3810   -3.0330  -23.7390 C.2   288  ILE288      0.2260
    174  O         21.3450   -2.6900  -23.1860 O.2   288  ILE288     -0.2867
    175  CB        23.2260   -4.8800  -22.2620 C.3   288  ILE288      0.0252
    176  CG1       24.4960   -5.5240  -21.7070 C.3   288  ILE288      0.0019
    177  CG2       22.5070   -5.8470  -23.2310 C.3   288  ILE288      0.0019
    178  CD1       24.1840   -6.6080  -20.6770 C.3   288  ILE288      0.0001
    179  N         19.2280   -3.4140  -25.8580 N.3   290  PRO290     -0.2116
    180  CA        18.3670   -4.5970  -25.9850 C.3   290  PRO290      0.1372
    181  C         18.2480   -5.1150  -27.3860 C.2   290  PRO290      0.2244
    182  O         18.2740   -4.3420  -28.3260 O.2   290  PRO290     -0.2868
    183  CB        17.0150   -4.0920  -25.4790 C.3   290  PRO290      0.0268
    184  CG        17.3930   -3.1300  -24.4570 C.3   290  PRO290      0.0207
    185  CD        18.5440   -2.3790  -25.0800 C.3   290  PRO290      0.0892
    186  N         23.1930   -8.8420  -25.9700 N.3   295  HIS295     -0.1241
    187  CA        22.0230   -9.2450  -25.2190 C.3   295  HIS295      0.1621
    188  C         21.6380  -10.6670  -25.5520 C.2   295  HIS295      0.2264
    189  O         21.4930  -11.4870  -24.6590 O.2   295  HIS295     -0.2867
    190  CB        20.8750   -8.2850  -25.4790 C.3   295  HIS295      0.0745
    191  CG        19.6360   -8.6040  -24.7220 C.ar  295  HIS295      0.0817
    192  ND1       18.4090   -8.0850  -25.0800 N.ar  295  HIS295     -0.2268
    193  CD2       19.4180   -9.3750  -23.6230 C.ar  295  HIS295      0.1154
    194  CE1       17.4880   -8.5320  -24.2460 C.ar  295  HIS295      0.1986
    195  NE2       18.0680   -9.3310  -23.3610 N.ar  295  HIS295     -0.2212
    196  N         24.3520  -13.4260  -24.4180 N.3   298  LEU298     -0.1231
    197  CA        24.4960  -13.6420  -22.9710 C.3   298  LEU298      0.1693
    198  C         23.5250  -14.6940  -22.5200 C.2   298  LEU298      0.2592
    199  O         23.9300  -15.6560  -21.9240 O.2   298  LEU298     -0.2718
    200  CB        24.2500  -12.3810  -22.1180 C.3   298  LEU298      0.0284
    201  CG        25.4300  -11.5430  -21.7250 C.3   298  LEU298      0.0019
    202  CD1       24.9650  -10.2930  -20.9960 C.3   298  LEU298      0.0001
    203  CD2       26.3380  -12.3540  -20.8190 C.3   298  LEU298      0.0001
    204  N         22.2460  -14.4760  -22.7810 N.am  299  GLY299     -0.1957
    205  CA        21.2160  -15.4450  -22.4660 C.3   299  GLY299      0.1869
    206  C         21.2930  -16.7240  -23.2860 C.2   299  GLY299      0.2309
    207  O         21.1370  -17.8220  -22.7400 O.2   299  GLY299     -0.2863
    208  N         21.5460  -20.6090  -22.1040 N.3   303  ARG303     -0.1245
    209  CA        20.4560  -21.5590  -22.3830 C.3   303  ARG303      0.1563
    210  C         20.9730  -22.7300  -23.2420 C.2   303  ARG303      0.2260
    211  O         20.5560  -23.8310  -23.0440 O.2   303  ARG303     -0.2867
    212  CB        19.2580  -20.8770  -23.0540 C.3   303  ARG303      0.0307
    213  CG        18.5170  -19.8630  -22.1380 C.3   303  ARG303      0.0489
    214  CD        17.2890  -19.2140  -22.7940 C.3   303  ARG303      0.2205
    215  NE        17.6140  -18.1950  -23.8070 N.pl3 303  ARG303     -0.0865
    216  CZ        17.9140  -16.9230  -23.5650 C.cat 303  ARG303      0.5346
    217  NH1       17.9410  -16.4890  -22.3080 N.pl3 303  ARG303      0.1354
    218  NH2       18.1840  -16.0680  -24.5780 N.pl3 303  ARG303      0.1354
    219  N         16.5640  -18.3630  -28.2290 N.3   330  ARG330     -0.1245
    220  CA        15.5750  -18.7630  -27.2480 C.3   330  ARG330      0.1563
    221  C         14.4810  -19.6750  -27.8080 C.2   330  ARG330      0.2260
    222  O         14.1650  -20.6600  -27.2050 O.2   330  ARG330     -0.2867
    223  CB        14.9250  -17.4710  -26.7740 C.3   330  ARG330      0.0307
    224  CG        14.0480  -17.6050  -25.5780 C.3   330  ARG330      0.0489
    225  CD        13.3350  -16.2920  -25.3670 C.3   330  ARG330      0.2205
    226  NE        14.2750  -15.2260  -25.0380 N.pl3 330  ARG330     -0.0865
    227  CZ        14.6000  -14.8400  -23.8000 C.cat 330  ARG330      0.5346
    228  NH1       14.0950  -15.4360  -22.7190 N.pl3 330  ARG330      0.1354
    229  NH2       15.4560  -13.8410  -23.6420 N.pl3 330  ARG330      0.1354
@<TRIPOS>BOND
     1   162   161    2
     2   182   181    2
     3   219   220    1
     4   161   160    1
     5   221   220    1
     6   221   222    2
     7   153   152    2
     8   181   180    1
     9   220   223    1
    10   160   159    1
    11   160   163    1
    12   223   224    1
    13   152   159   am
    14   152   151    1
    15   165   167   ar
    16   165   164   ar
    17   150   151    1
    18   163   164    1
    19   180   179    1
    20   180   183    1
    21   186   187    1
    22   179   185    1
    23   167   169   ar
    24   224   225    1
    25   188   187    1
    26   188   189    2
    27   151   154    1
    28   183   184    1
    29   190   187    1
    30   190   191    1
    31   164   166   ar
    32   225   226    1
    33   185   184    1
    34   192   191   ar
    35   192   194   ar
    36   226   227    2
    37   154   155    1
    38   191   193   ar
    39   218   216    1
    40   196   197    1
    41   142   141    2
    42   169   170    1
    43   169   168   ar
    44   194   195   ar
    45   141   140    1
    46   166   168   ar
    47   215   216    2
    48   215   214    1
    49   227   229    1
    50   227   228    1
    51   173   174    2
    52   173   172    1
    53   193   195   ar
    54   216   217    1
    55   155   156    1
    56   206   207    2
    57   206   205    1
    58   210   211    2
    59   210   209    1
    60   177   175    1
    61   158   156   ar
    62   212   209    1
    63   212   213    1
    64   140   139    1
    65   140   143    1
    66   197   198    1
    67   197   200    1
    68   172   175    1
    69   172   171    1
    70   214   213    1
    71   204   198   am
    72   204   205    1
    73   198   199    2
    74   156   157   ar
    75   209   208    1
    76   175   176    1
    77   200   201    1
    78   146   148   ar
    79   146   144   ar
    80   148   149   ar
    81   144   143    1
    82   144   145   ar
    83   149   147   ar
    84   201   202    1
    85   201   203    1
    86   176   178    1
    87   147   145   ar
    88     6     5    1
    89     7     5    1
    90    56    55    1
    91     5     2    1
    92    55    57    1
    93    55    54    2
    94   117   115   am
    95    53    54    1
    96    53    52    1
    97     4     3    2
    98   114   113    1
    99   114   115    1
   100     2     3    1
   101     2     1    1
   102   113   110    1
   103   115   116    2
   104    72    71    1
   105    65    63    1
   106    51    52    1
   107    51    48    1
   108   112   111    2
   109   128   127    1
   110    73    71    1
   111   110   111    1
   112   110   109    1
   113    36    34    1
   114   111   118   am
   115    71    70    1
   116    35    33    1
   117    48    47    1
   118    48    49    1
   119   127   129    1
   120   127   124    1
   121    63    64    1
   122    63    62    1
   123    47    39   am
   124   109   105   am
   125   118   119    1
   126    33    34    1
   127    33    30    1
   128    62    59    1
   129   119   120    1
   130   119   122    1
   131   123   124    1
   132   123   120   am
   133    32    31    2
   134    70    67    1
   135   108   107    1
   136    49    50    2
   137   124   125    1
   138    39    40    2
   139    39    38    1
   140   120   121    2
   141   126   125    2
   142    31    30    1
   143    31    37   am
   144   105   106    2
   145   105   104    1
   146    30    29    1
   147    38    37    1
   148    38    41    1
   149   103   104    1
   150    80    81    1
   151    80    79    1
   152    67    66    1
   153    67    68    1
   154    59    58    1
   155    59    60    1
   156    81    82    2
   157    79    78    1
   158   107   104    1
   159    29    25   am
   160    61    60    2
   161    82    83    1
   162    82    84    1
   163    41    42    1
   164    68    69    2
   165    43    42   ar
   166    43    45   ar
   167    25    24    1
   168    25    26    2
   169    42    44   ar
   170    78    75    1
   171    45    46   ar
   172    24    27    1
   173    24    23    1
   174    27    28    1
   175    44    46   ar
   176    74    75    1
   177    75    76    1
   178   135   134    1
   179   135   136    1
   180    19    18    2
   181    23    18   am
   182   138   136   ar
   183   134   131    1
   184    18    17    1
   185    21    20    1
   186   133   132    2
   187   136   137   ar
   188    76    85   am
   189    76    77    2
   190    85    86    1
   191    93    94   ar
   192    93    91   ar
   193    94    92   ar
   194    20    17    1
   195    20    22    1
   196   131   132    1
   197   131   130    1
   198    91    90   ar
   199    17    16    1
   200    92    90   ar
   201    90    89    1
   202    15    13   am
   203   102   100    1
   204    86    89    1
   205    86    87    1
   206    16    10   am
   207    99   100    1
   208    99    96    1
   209    95    87   am
   210    95    96    1
   211    14    13    2
   212    13    12    1
   213    87    88    2
   214   100   101    1
   215    96    97    1
   216    10    11    2
   217    10     9    1
   218    97    98    2
   219    12     9    1
   220     9     8    1
