@<TRIPOS>MOLECULE
tmp/6h77D01.pdb
 83 77 0 0 0
SMALL
GASTEIGER

@<TRIPOS>ATOM
      1  N         15.6710    1.8920   73.1120 N.3    47  GLY47      -0.1210
      2  CA        16.1580    3.2240   72.8030 C.3    47  GLY47       0.1956
      3  C         17.6370    3.1550   72.4260 C.2    47  GLY47       0.2612
      4  O         18.0680    2.2120   71.7720 O.2    47  GLY47      -0.2717
      5  N         18.3990    4.1440   72.8860 N.am   48  GLY48      -0.1942
      6  CA        19.8110    4.2920   72.5810 C.3    48  GLY48       0.2014
      7  C         20.6160    2.9990   72.7420 C.2    48  GLY48       0.2638
      8  O         21.2010    2.5090   71.7820 O.2    48  GLY48      -0.2714
      9  N         20.6000    2.4330   73.9450 N.am   49  VAL49      -0.1977
     10  CA        21.3390    1.2160   74.2110 C.3    49  VAL49       0.1596
     11  C         20.5820   -0.0040   73.7020 C.2    49  VAL49       0.2287
     12  O         21.1940   -0.8920   73.1190 O.2    49  VAL49      -0.2864
     13  CB        21.6820    1.0760   75.7050 C.3    49  VAL49       0.0276
     14  CG1       22.2840   -0.2960   76.0070 C.3    49  VAL49       0.0022
     15  CG2       22.6370    2.1810   76.1220 C.3    49  VAL49       0.0022
     16  N         21.3450    8.9970   67.8850 N.3    80  ARG80      -0.1245
     17  CA        21.7290    7.6610   68.3110 C.3    80  ARG80       0.1563
     18  C         21.5930    6.6720   67.1580 C.2    80  ARG80       0.2260
     19  O         20.9750    6.9680   66.1430 O.2    80  ARG80      -0.2867
     20  CB        20.8470    7.2370   69.4790 C.3    80  ARG80       0.0307
     21  CG        21.2840    7.8850   70.7850 C.3    80  ARG80       0.0489
     22  CD        20.1350    7.9600   71.7650 C.3    80  ARG80       0.2205
     23  NE        19.3930    9.1760   71.5090 N.pl3  80  ARG80      -0.0865
     24  CZ        18.4140    9.6320   72.2710 C.cat  80  ARG80       0.5346
     25  NH1       17.7940   10.7500   71.9300 N.pl3  80  ARG80       0.1354
     26  NH2       18.0590    8.9690   73.3540 N.pl3  80  ARG80       0.1354
     27  N         17.4000   -1.8870   79.4900 N.3   146  CYS146     -0.1221
     28  CA        17.9820   -0.7620   78.7870 C.3   146  CYS146      0.1808
     29  C         17.0380    0.4470   78.8820 C.2   146  CYS146      0.2601
     30  O         16.8020    1.1590   77.9060 O.2   146  CYS146     -0.2717
     31  CB        18.2900   -1.1580   77.3430 C.3   146  CYS146      0.0970
     32  SG        19.2870   -2.6670   77.1610 S.3   146  CYS146     -0.0800
     33  N         16.4860    0.6840   80.0780 N.am  147  VAL147     -0.1965
     34  CA        15.5310    1.7670   80.2660 C.3   147  VAL147      0.1727
     35  C         16.2720    2.9940   80.7880 C.2   147  VAL147      0.2616
     36  O         17.4610    2.9010   81.0740 O.2   147  VAL147     -0.2715
     37  CB        14.3980    1.3480   81.2160 C.3   147  VAL147      0.0290
     38  CG1       13.5890    0.2140   80.6250 C.3   147  VAL147      0.0023
     39  CG2       14.9150    1.0080   82.6120 C.3   147  VAL147      0.0023
     40  N         15.5640    4.1250   80.9240 N.am  148  ASP148     -0.1971
     41  CA        16.2020    5.4010   81.2360 C.3   148  ASP148      0.1709
     42  C         15.6660    6.0150   82.5410 C.2   148  ASP148      0.2293
     43  O         15.8040    7.2130   82.7430 O.2   148  ASP148     -0.2864
     44  CB        15.9970    6.3840   80.0750 C.3   148  ASP148      0.1436
     45  CG        14.5200    6.6450   79.7560 C.2   148  ASP148      0.3671
     46  OD1       13.6490    5.9840   80.3260 O.co2 148  ASP148     -0.2456
     47  OD2       14.2340    7.4680   78.8940 O.co2 148  ASP148     -0.2456
     48  N         13.4880    0.3270   86.1990 N.3   153  ARG153     -0.1245
     49  CA        14.5150   -0.5510   86.7580 C.3   153  ARG153      0.1563
     50  C         14.0000   -1.2710   88.0060 C.2   153  ARG153      0.2260
     51  O         14.1550   -2.4900   88.1280 O.2   153  ARG153     -0.2867
     52  CB        15.8300    0.1860   87.0470 C.3   153  ARG153      0.0307
     53  CG        16.6710    0.4420   85.8070 C.3   153  ARG153      0.0489
     54  CD        17.8390    1.3860   86.0240 C.3   153  ARG153      0.2205
     55  NE        18.4530    1.9390   84.8190 N.pl3 153  ARG153     -0.0865
     56  CZ        18.5650    3.2490   84.5610 C.cat 153  ARG153      0.5346
     57  NH1       19.1830    3.6440   83.4670 N.pl3 153  ARG153      0.1354
     58  NH2       18.0830    4.1560   85.3970 N.pl3 153  ARG153      0.1354
     59  N         21.7810   -1.9660   82.2140 N.3   170  SER170     -0.1202
     60  CA        22.6900   -1.0270   81.5960 C.3   170  SER170      0.2020
     61  C         22.1820    0.3830   81.8630 C.2   170  SER170      0.2619
     62  O         20.9840    0.6040   82.0130 O.2   170  SER170     -0.2717
     63  CB        22.7960   -1.2740   80.1140 C.3   170  SER170      0.2103
     64  OG        21.5640   -0.9870   79.4710 O.3   170  SER170     -0.2182
     65  N         23.0980    1.3360   81.8710 N.am  171  GLY171     -0.1942
     66  CA        22.6890    2.7130   82.0100 C.3   171  GLY171      0.2014
     67  C         23.7460    3.6070   81.4040 C.2   171  GLY171      0.2638
     68  O         24.8990    3.2000   81.2540 O.2   171  GLY171     -0.2714
     69  N         23.2970    4.7910   81.0040 N.am  172  VAL172     -0.1977
     70  CA        24.1690    5.8210   80.4870 C.3   172  VAL172      0.1596
     71  C         23.8240    7.1060   81.2300 C.2   172  VAL172      0.2287
     72  O         22.6600    7.3530   81.5020 O.2   172  VAL172     -0.2864
     73  CB        23.9830    5.9600   78.9640 C.3   172  VAL172      0.0276
     74  CG1       24.8290    7.0980   78.4290 C.3   172  VAL172      0.0022
     75  CG2       24.3530    4.6750   78.2420 C.3   172  VAL172      0.0022
     76  N         26.5740    4.9540   73.3730 N.3   223  MET223     -0.1245
     77  CA        25.5390    3.9490   73.1420 C.3   223  MET223      0.1570
     78  C         26.1880    2.6820   72.6000 C.2   223  MET223      0.2261
     79  O         25.9270    1.5930   73.1040 O.2   223  MET223     -0.2867
     80  CB        24.5010    4.4080   72.1050 C.3   223  MET223      0.0387
     81  CG        23.5750    5.5660   72.5250 C.3   223  MET223      0.0595
     82  SD        23.1070    5.5910   74.2550 S.3   223  MET223     -0.1393
     83  CE        21.8580    6.8740   74.3650 C.3   223  MET223      0.0692
@<TRIPOS>BOND
     1    19    18    2
     2    18    17    1
     3    16    17    1
     4    17    20    1
     5    20    21    1
     6    21    22    1
     7    23    22    1
     8    23    24    2
     9     4     3    2
    10     8     7    2
    11    25    24    1
    12    80    81    1
    13    80    77    1
    14    24    26    1
    15     3     2    1
    16     3     5   am
    17    81    82    1
    18     6     7    1
    19     6     5    1
    20    78    79    2
    21    78    77    1
    22     7     9   am
    23     2     1    1
    24    12    11    2
    25    77    76    1
    26    11    10    1
    27     9    10    1
    28    10    13    1
    29    82    83    1
    30    13    14    1
    31    13    15    1
    32    32    31    1
    33    31    28    1
    34    30    29    2
    35    75    73    1
    36    74    73    1
    37    28    29    1
    38    28    27    1
    39    29    33   am
    40    47    45   ar
    41    73    70    1
    42    64    63    1
    43    45    44    1
    44    45    46   ar
    45    44    41    1
    46    33    34    1
    47    63    60    1
    48    34    35    1
    49    34    37    1
    50    70    69    1
    51    70    71    1
    52    38    37    1
    53    35    40   am
    54    35    36    2
    55    40    41    1
    56    69    67   am
    57    37    39    1
    58    71    72    2
    59    41    42    1
    60    68    67    2
    61    67    66    1
    62    60    61    1
    63    60    59    1
    64    61    65   am
    65    61    62    2
    66    65    66    1
    67    42    43    2
    68    57    56    1
    69    56    55    2
    70    56    58    1
    71    55    54    1
    72    53    54    1
    73    53    52    1
    74    48    49    1
    75    49    52    1
    76    49    50    1
    77    50    51    2
