@<TRIPOS>MOLECULE
tmp/6h77B00.pdb
 192 183 0 0 0
SMALL
GASTEIGER

@<TRIPOS>ATOM
      1  N         -6.5620    6.2190   45.9630 N.3    44  VAL44      -0.1231
      2  CA        -7.0880    5.2780   46.9180 C.3    44  VAL44       0.1692
      3  C         -6.7400    3.8970   46.4030 C.2    44  VAL44       0.2592
      4  O         -7.1920    3.4930   45.3360 O.2    44  VAL44      -0.2718
      5  CB        -8.6110    5.4450   47.1110 C.3    44  VAL44       0.0266
      6  CG1       -9.1070    4.5090   48.2030 C.3    44  VAL44       0.0020
      7  CG2       -8.9970    6.9060   47.3950 C.3    44  VAL44       0.0020
      8  N         -5.9580    3.1780   47.2050 N.am   45  GLY45      -0.1957
      9  CA        -5.4660    1.8500   46.8760 C.3    45  GLY45       0.1869
     10  C         -4.0780    1.9730   46.2460 C.2    45  GLY45       0.2309
     11  O         -3.9440    2.4700   45.1250 O.2    45  GLY45      -0.2863
     12  N         -1.9330   -0.5930   45.6250 N.3    47  GLY47      -0.1210
     13  CA        -1.5700   -1.9730   45.3360 C.3    47  GLY47       0.1956
     14  C         -1.0130   -2.0710   43.9210 C.2    47  GLY47       0.2612
     15  O         -0.2810   -1.1830   43.4800 O.2    47  GLY47      -0.2717
     16  N         -1.4170   -3.1280   43.2100 N.am   48  GLY48      -0.1942
     17  CA        -0.9460   -3.4270   41.8640 C.3    48  GLY48       0.2014
     18  C         -0.9740   -2.2120   40.9310 C.2    48  GLY48       0.2638
     19  O          0.0560   -1.7870   40.4180 O.2    48  GLY48      -0.2714
     20  N         -2.1630   -1.6350   40.7420 N.am   49  VAL49      -0.1977
     21  CA        -2.3000   -0.4940   39.8510 C.3    49  VAL49       0.1596
     22  C         -1.8740    0.7920   40.5460 C.2    49  VAL49       0.2287
     23  O         -1.1910    1.6050   39.9340 O.2    49  VAL49      -0.2864
     24  CB        -3.7200   -0.3880   39.2820 C.3    49  VAL49       0.0276
     25  CG1       -3.9350    0.9270   38.5380 C.3    49  VAL49       0.0022
     26  CG2       -3.9990   -1.5590   38.3650 C.3    49  VAL49       0.0022
     27  N         -4.1220    6.6670   50.0850 N.3    68  PHE68      -0.1227
     28  CA        -4.9670    5.9980   51.0570 C.3    68  PHE68       0.1736
     29  C         -4.8850    4.4980   50.8270 C.2    68  PHE68       0.2595
     30  O         -5.1750    4.0270   49.7450 O.2    68  PHE68      -0.2718
     31  CB        -6.4270    6.4330   50.8660 C.3    68  PHE68       0.0547
     32  CG        -6.6800    7.8960   51.1290 C.ar   68  PHE68      -0.0202
     33  CD1       -6.4480    8.8430   50.1450 C.ar   68  PHE68      -0.0042
     34  CD2       -7.1380    8.3290   52.3700 C.ar   68  PHE68      -0.0042
     35  CE1       -6.6720   10.1890   50.3910 C.ar   68  PHE68      -0.0003
     36  CE2       -7.3490    9.6780   52.6190 C.ar   68  PHE68      -0.0003
     37  CZ        -7.1310   10.6030   51.6300 C.ar   68  PHE68      -0.0000
     38  N         -4.5180    3.7530   51.8580 N.am   69  ASP69      -0.1960
     39  CA        -4.5160    2.2930   51.8300 C.3    69  ASP69       0.1840
     40  C         -4.3540    1.8920   53.2990 C.2    69  ASP69       0.2622
     41  O         -3.7320    2.6160   54.0830 O.2    69  ASP69      -0.2715
     42  CB        -3.3690    1.7260   50.9530 C.3    69  ASP69       0.1450
     43  CG        -3.5710    0.2950   50.4520 C.2    69  ASP69       0.3671
     44  OD1       -3.9400   -0.5680   51.2690 O.co2  69  ASP69      -0.2456
     45  OD2       -3.4420    0.0570   49.2200 O.co2  69  ASP69      -0.2456
     46  N         -4.9120    0.7480   53.6740 N.am   70  TYR70      -0.1960
     47  CA        -4.8180    0.3080   55.0570 C.3    70  TYR70       0.1771
     48  C         -4.0320   -1.0000   55.1120 C.2    70  TYR70       0.2619
     49  O         -3.7860   -1.5050   56.1900 O.2    70  TYR70      -0.2715
     50  CB        -6.2050    0.1080   55.6710 C.3    70  TYR70       0.0574
     51  CG        -6.9970   -0.9880   55.0120 C.ar   70  TYR70      -0.0198
     52  CD1       -6.8660   -2.3060   55.4240 C.ar   70  TYR70      -0.0009
     53  CD2       -7.8390   -0.7180   53.9460 C.ar   70  TYR70      -0.0009
     54  CE1       -7.5860   -3.3290   54.8290 C.ar   70  TYR70       0.0417
     55  CE2       -8.5370   -1.7350   53.3180 C.ar   70  TYR70       0.0417
     56  CZ        -8.4290   -3.0370   53.7710 C.ar   70  TYR70       0.1957
     57  OH        -9.1380   -4.0170   53.1440 O.3    70  TYR70      -0.2866
     58  N         -3.6230   -1.5250   53.9480 N.am   71  ASP71      -0.1971
     59  CA        -2.9790   -2.8260   53.8300 C.3    71  ASP71       0.1709
     60  C         -1.4630   -2.7320   54.0170 C.2    71  ASP71       0.2293
     61  O         -0.8620   -1.6440   53.9660 O.2    71  ASP71      -0.2864
     62  CB        -3.3200   -3.4590   52.4800 C.3    71  ASP71       0.1436
     63  CG        -3.1140   -4.9650   52.4420 C.2    71  ASP71       0.3671
     64  OD1       -2.9600   -5.5640   53.4970 O.co2  71  ASP71      -0.2456
     65  OD2       -3.0730   -5.5110   51.3550 O.co2  71  ASP71      -0.2456
     66  N          3.4220  -11.9890   48.6590 N.3    76  ALA76      -0.1231
     67  CA         2.4500  -12.4340   47.6760 C.3    76  ALA76       0.1694
     68  C          2.1780  -11.3120   46.6690 C.2    76  ALA76       0.2592
     69  O          1.6750  -11.5750   45.5840 O.2    76  ALA76      -0.2718
     70  CB         1.1910  -12.8780   48.3870 C.3    76  ALA76       0.0304
     71  N          2.5360  -10.0680   47.0320 N.am   77  ASN77      -0.1974
     72  CA         2.4480   -8.9140   46.1540 C.3    77  ASN77       0.1688
     73  C          3.6690   -8.7590   45.2460 C.2    77  ASN77       0.2292
     74  O          3.6820   -7.8360   44.4400 O.2    77  ASN77      -0.2864
     75  CB         2.3150   -7.6300   46.9660 C.3    77  ASN77       0.1181
     76  CG         1.0770   -7.6580   47.8350 C.2    77  ASN77       0.2629
     77  OD1        1.1490   -7.4280   49.0400 O.2    77  ASN77      -0.2716
     78  ND2       -0.0540   -8.0050   47.2480 N.am   77  ASN77      -0.0877
     79  N          3.8630   -8.2650   41.3900 N.3    80  ARG80      -0.1245
     80  CA         3.5230   -6.9690   40.8230 C.3    80  ARG80       0.1563
     81  C          4.6820   -5.9900   41.0220 C.2    80  ARG80       0.2260
     82  O          5.5800   -6.2320   41.8120 O.2    80  ARG80      -0.2867
     83  CB         2.2540   -6.4440   41.4960 C.3    80  ARG80       0.0307
     84  CG         0.9980   -7.1200   40.9690 C.3    80  ARG80       0.0489
     85  CD        -0.1260   -7.0910   41.9820 C.3    80  ARG80       0.2205
     86  NE         0.0050   -8.2290   42.8550 N.pl3  80  ARG80      -0.0865
     87  CZ        -0.8910   -8.5870   43.7620 C.cat  80  ARG80       0.5346
     88  NH1       -0.6610   -9.6430   44.5290 N.pl3  80  ARG80       0.1354
     89  NH2       -2.0070   -7.8920   43.9000 N.pl3  80  ARG80       0.1354
     90  N          1.6220   -0.2340   53.0480 N.3    92  LYS92      -0.1245
     91  CA         1.7930    0.1350   51.6490 C.3    92  LYS92       0.1561
     92  C          2.0520    1.6370   51.5250 C.2    92  LYS92       0.2260
     93  O          2.9260    2.0230   50.7650 O.2    92  LYS92      -0.2867
     94  CB         0.6130   -0.3490   50.8050 C.3    92  LYS92       0.0271
     95  CG         0.5960   -1.8540   50.5950 C.3    92  LYS92       0.0035
     96  CD        -0.3950   -2.2990   49.5660 C.3    92  LYS92       0.0206
     97  CE        -0.4710   -3.7960   49.4960 C.3    92  LYS92       0.1093
     98  NZ        -1.5280   -4.2520   48.5750 N.3    92  LYS92      -0.1314
     99  N         -5.4680    3.9330   56.5040 N.3   114  TYR114     -0.1227
    100  CA        -6.7680    3.5470   57.0330 C.3   114  TYR114      0.1736
    101  C         -7.7170    3.1050   55.9280 C.2   114  TYR114      0.2595
    102  O         -7.4910    3.3490   54.7460 O.2   114  TYR114     -0.2718
    103  CB        -7.3960    4.6500   57.8870 C.3   114  TYR114      0.0548
    104  CG        -7.7640    5.9600   57.2260 C.ar  114  TYR114     -0.0200
    105  CD1       -8.7030    6.0380   56.2140 C.ar  114  TYR114     -0.0009
    106  CD2       -7.2400    7.1530   57.6920 C.ar  114  TYR114     -0.0009
    107  CE1       -9.0970    7.2560   55.6720 C.ar  114  TYR114      0.0417
    108  CE2       -7.5970    8.3820   57.1480 C.ar  114  TYR114      0.0417
    109  CZ        -8.5350    8.4390   56.1350 C.ar  114  TYR114      0.1957
    110  OH        -8.8660    9.6500   55.5890 O.3   114  TYR114     -0.2866
    111  N         -8.7840    2.4400   56.3570 N.am  115  ASN115     -0.1960
    112  CA        -9.8550    1.9630   55.5020 C.3   115  ASN115      0.1819
    113  C        -10.8730    3.0880   55.3250 C.2   115  ASN115      0.2621
    114  O        -11.4760    3.5110   56.2980 O.2   115  ASN115     -0.2715
    115  CB       -10.5220    0.7590   56.1530 C.3   115  ASN115      0.1195
    116  CG       -11.6230    0.1530   55.3190 C.2   115  ASN115      0.2630
    117  OD1      -12.2850    0.8200   54.5090 O.2   115  ASN115     -0.2716
    118  ND2      -11.7960   -1.1410   55.5050 N.am  115  ASN115     -0.0877
    119  N        -11.0610    3.5580   54.0880 N.am  116  ILE116     -0.1963
    120  CA       -11.8150    4.7820   53.8140 C.3   116  ILE116      0.1727
    121  C        -13.3190    4.5580   53.9940 C.2   116  ILE116      0.2616
    122  O        -14.0650    5.5420   54.0280 O.2   116  ILE116     -0.2715
    123  CB       -11.5350    5.3690   52.4100 C.3   116  ILE116      0.0290
    124  CG1      -12.0360    4.4170   51.3190 C.3   116  ILE116      0.0022
    125  CG2      -10.0570    5.7100   52.2250 C.3   116  ILE116      0.0023
    126  CD1      -12.4030    5.0770   50.0200 C.3   116  ILE116      0.0001
    127  N        -13.7540    3.2890   54.0980 N.am  117  THR117     -0.1951
    128  CA       -15.1720    2.9790   54.0510 C.3   117  THR117      0.1897
    129  C        -15.8130    3.0150   55.4390 C.2   117  THR117      0.2313
    130  O        -17.0300    3.0570   55.5280 O.2   117  THR117     -0.2863
    131  CB       -15.4710    1.6030   53.4350 C.3   117  THR117      0.1794
    132  OG1      -14.9190    0.6200   54.3010 O.3   117  THR117     -0.2208
    133  CG2      -14.9310    1.4180   52.0370 C.3   117  THR117      0.0378
    134  N         -7.9680    3.0730   42.7350 N.3   146  CYS146     -0.1221
    135  CA        -7.2190    1.8850   42.3550 C.3   146  CYS146      0.1808
    136  C         -7.4590    0.7810   43.3930 C.2   146  CYS146      0.2601
    137  O         -6.5390    0.0900   43.8140 O.2   146  CYS146     -0.2717
    138  CB        -5.7410    2.2190   42.1790 C.3   146  CYS146      0.0970
    139  SG        -5.4060    3.6370   41.0950 S.3   146  CYS146     -0.0800
    140  N         -8.7160    0.6120   43.8060 N.am  147  VAL147     -0.1965
    141  CA        -9.0540   -0.3790   44.8210 C.3   147  VAL147      0.1727
    142  C         -9.5080   -1.6600   44.1300 C.2   147  VAL147      0.2616
    143  O         -9.6610   -1.6750   42.9150 O.2   147  VAL147     -0.2715
    144  CB       -10.1270    0.1500   45.7870 C.3   147  VAL147      0.0290
    145  CG1       -9.6070    1.3430   46.5670 C.3   147  VAL147      0.0023
    146  CG2      -11.4300    0.4840   45.0390 C.3   147  VAL147      0.0023
    147  N         -9.7600   -2.7090   44.9220 N.am  148  ASP148     -0.1957
    148  CA       -10.0530   -4.0300   44.3870 C.3   148  ASP148      0.1840
    149  C        -11.4190   -4.5590   44.8640 C.2   148  ASP148      0.2622
    150  O        -11.6360   -5.7690   44.8520 O.2   148  ASP148     -0.2715
    151  CB        -8.9490   -5.0130   44.8080 C.3   148  ASP148      0.1450
    152  CG        -8.7780   -5.1200   46.3390 C.2   148  ASP148      0.3671
    153  OD1       -9.4000   -4.3350   47.0890 O.co2 148  ASP148     -0.2456
    154  OD2       -8.0010   -5.9610   46.7830 O.co2 148  ASP148     -0.2456
    155  N        -12.3400   -3.6820   45.2860 N.am  149  ASN149     -0.1972
    156  CA       -13.6670   -4.0790   45.7680 C.3   149  ASN149      0.1688
    157  C        -14.6860   -2.9600   45.5240 C.2   149  ASN149      0.2292
    158  O        -14.3450   -1.7800   45.5560 O.2   149  ASN149     -0.2864
    159  CB       -13.6530   -4.4750   47.2630 C.3   149  ASN149      0.1181
    160  CG       -13.2340   -3.3440   48.1720 C.2   149  ASN149      0.2629
    161  OD1      -14.0900   -2.5920   48.6410 O.2   149  ASN149     -0.2716
    162  ND2      -11.9300   -3.1790   48.3740 N.am  149  ASN149     -0.0877
    163  N        -15.4260   -0.0870   48.3730 N.3   152  ALA152     -0.1245
    164  CA       -14.5320    1.0640   48.3430 C.3   152  ALA152      0.1562
    165  C        -14.8550    1.9870   47.1630 C.2   152  ALA152      0.2260
    166  O        -14.8650    3.2180   47.3150 O.2   152  ALA152     -0.2867
    167  CB       -13.0830    0.6210   48.3990 C.3   152  ALA152      0.0290
    168  N         -7.0710  -16.6800   45.7220 N.3   215  CYS215     -0.1221
    169  CA        -6.7700  -15.2820   45.4590 C.3   215  CYS215      0.1808
    170  C         -7.1050  -14.9980   43.9980 C.2   215  CYS215      0.2601
    171  O         -7.2390  -15.9290   43.2040 O.2   215  CYS215     -0.2717
    172  CB        -5.2880  -15.0070   45.7000 C.3   215  CYS215      0.0970
    173  SG        -4.1850  -16.1340   44.7980 S.3   215  CYS215     -0.0800
    174  N         -7.2380  -13.7120   43.6520 N.am  216  ALA216     -0.1979
    175  CA        -7.3170  -13.3070   42.2530 C.3   216  ALA216      0.1597
    176  C         -5.9500  -13.5390   41.6080 C.2   216  ALA216      0.2287
    177  O         -4.9280  -13.3910   42.2660 O.2   216  ALA216     -0.2864
    178  CB        -7.7130  -11.8520   42.1860 C.3   216  ALA216      0.0319
    179  N         -2.9770  -12.1780   39.1690 N.3   218  SER218     -0.1217
    180  CA        -2.5090  -10.8660   38.7400 C.3   218  SER218      0.1889
    181  C         -1.1770  -10.9910   38.0090 C.2   218  SER218      0.2288
    182  O         -0.3950  -11.9030   38.2770 O.2   218  SER218     -0.2866
    183  CB        -2.4680   -9.8570   39.8690 C.3   218  SER218      0.2089
    184  OG        -1.8940  -10.4140   41.0450 O.3   218  SER218     -0.2183
    185  N         -0.8600   -4.7710   35.1200 N.3   223  MET223     -0.1245
    186  CA        -0.7520   -3.6670   36.0670 C.3   223  MET223      0.1570
    187  C         -0.1020   -2.4800   35.3710 C.2   223  MET223      0.2261
    188  O         -0.6060   -1.3630   35.4610 O.2   223  MET223     -0.2867
    189  CB         0.1230   -4.0040   37.2900 C.3   223  MET223      0.0387
    190  CG        -0.4480   -5.0460   38.2660 C.3   223  MET223      0.0595
    191  SD        -2.2410   -5.0270   38.5020 S.3   223  MET223     -0.1393
    192  CE        -2.5020   -6.1850   39.8490 C.3   223  MET223      0.0692
@<TRIPOS>BOND
     1   185   186    1
     2   187   188    2
     3   187   186    1
     4   186   189    1
     5   189   190    1
     6   181   182    2
     7   181   180    1
     8   190   191    1
     9    26    24    1
    10   191   192    1
    11    25    24    1
    12   180   179    1
    13   180   183    1
    14    24    21    1
    15    21    22    1
    16    21    20    1
    17   183   184    1
    18    23    22    2
    19    19    18    2
    20    20    18   am
    21    80    81    1
    22    80    79    1
    23    80    83    1
    24    18    17    1
    25    84    83    1
    26    84    85    1
    27    81    82    2
    28   139   138    1
    29   176   175    1
    30   176   177    2
    31    17    16    1
    32    85    86    1
    33   138   135    1
    34   178   175    1
    35   175   174    1
    36   135   134    1
    37   135   136    1
    38    86    87    2
    39   143   142    2
    40   171   170    2
    41    16    14   am
    42   136   140   am
    43   136   137    2
    44    15    14    2
    45   174   170   am
    46    87    89    1
    47    87    88    1
    48   140   141    1
    49    14    13    1
    50   170   169    1
    51   142   141    1
    52   142   147   am
    53   148   151    1
    54   148   149    1
    55   148   147    1
    56    74    73    2
    57   173   172    1
    58   151   152    1
    59   141   144    1
    60   150   149    2
    61   149   155   am
    62   146   144    1
    63    11    10    2
    64    73    72    1
    65   155   156    1
    66    13    12    1
    67     4     3    2
    68   169   172    1
    69   169   168    1
    70   157   158    2
    71   157   156    1
    72    69    68    2
    73   156   159    1
    74   144   145    1
    75     1     2    1
    76    72    75    1
    77    72    71    1
    78    10     9    1
    79   152   154   ar
    80   152   153   ar
    81     3     2    1
    82     3     8   am
    83    68    71   am
    84    68    67    1
    85     9     8    1
    86     2     5    1
    87    75    76    1
    88     5     7    1
    89     5     6    1
    90   165   166    2
    91   165   164    1
    92    78    76   am
    93   159   160    1
    94    67    70    1
    95    67    66    1
    96    76    77    2
    97   160   162   am
    98   160   161    2
    99   164   163    1
   100   164   167    1
   101    98    97    1
   102    45    43   ar
   103    97    96    1
   104    96    95    1
   105    30    29    2
   106   126   124    1
   107    27    28    1
   108    33    35   ar
   109    33    32   ar
   110    35    37   ar
   111    43    42    1
   112    43    44   ar
   113    95    94    1
   114    93    92    2
   115    94    91    1
   116    29    28    1
   117    29    38   am
   118    31    28    1
   119    31    32    1
   120    42    39    1
   121    32    34   ar
   122   124   123    1
   123    65    63   ar
   124    92    91    1
   125    37    36   ar
   126    91    90    1
   127    39    38    1
   128    39    40    1
   129   133   131    1
   130   125   123    1
   131    34    36   ar
   132   123   120    1
   133    63    62    1
   134    63    64   ar
   135    62    59    1
   136    57    56    1
   137    40    46   am
   138    40    41    2
   139    55    56   ar
   140    55    53   ar
   141   131   128    1
   142   131   132    1
   143    46    47    1
   144    56    54   ar
   145   120   121    1
   146   120   119    1
   147    59    58    1
   148    59    60    1
   149    53    51   ar
   150    58    48   am
   151    61    60    2
   152   121   122    2
   153   121   127   am
   154   128   127    1
   155   128   129    1
   156   119   113   am
   157   117   116    2
   158   102   101    2
   159    54    52   ar
   160    51    52   ar
   161    51    50    1
   162    47    48    1
   163    47    50    1
   164    48    49    2
   165   116   118   am
   166   116   115    1
   167   113   112    1
   168   113   114    2
   169   129   130    2
   170   112   115    1
   171   112   111    1
   172   110   109    1
   173   107   109   ar
   174   107   105   ar
   175   101   111   am
   176   101   100    1
   177   109   108   ar
   178   105   104   ar
   179    99   100    1
   180   100   103    1
   181   108   106   ar
   182   104   106   ar
   183   104   103    1
