@<TRIPOS>MOLECULE
tmp/6h7dA01.pdb
 181 172 0 0 0
SMALL
GASTEIGER

@<TRIPOS>ATOM
      1  N        -22.1260  -13.1670    3.2620 N.3    23  LEU23      -0.1245
      2  CA       -21.7830  -11.8830    3.8690 C.3    23  LEU23       0.1561
      3  C        -22.7310  -11.5410    5.0160 C.2    23  LEU23       0.2260
      4  O        -22.2990  -11.0410    6.0590 O.2    23  LEU23      -0.2867
      5  CB       -21.8140  -10.7700    2.8210 C.3    23  LEU23       0.0270
      6  CG       -20.7230  -10.7260    1.7410 C.3    23  LEU23       0.0019
      7  CD1      -21.1720   -9.9110    0.5280 C.3    23  LEU23       0.0001
      8  CD2      -19.4000  -10.1850    2.2590 C.3    23  LEU23       0.0001
      9  N        -22.5580  -14.5110    8.4560 N.3    26  SER26      -0.1202
     10  CA       -21.4440  -14.9360    9.2860 C.3    26  SER26       0.2020
     11  C        -21.2750  -14.0440   10.5190 C.2    26  SER26       0.2619
     12  O        -20.7450  -14.5110   11.5300 O.2    26  SER26      -0.2717
     13  CB       -20.1740  -15.0210    8.4360 C.3    26  SER26       0.2103
     14  OG       -19.4040  -13.8480    8.5410 O.3    26  SER26      -0.2182
     15  N        -21.7720  -12.8020   10.4880 N.am   27  GLY27      -0.1956
     16  CA       -21.6860  -11.9450   11.6670 C.3    27  GLY27       0.1869
     17  C        -22.5960  -12.3990   12.7970 C.2    27  GLY27       0.2309
     18  O        -22.2020  -12.4240   13.9690 O.2    27  GLY27      -0.2863
     19  N        -23.9280  -15.5560   13.1890 N.3    29  VAL29      -0.1231
     20  CA       -23.5140  -16.8730   13.6730 C.3    29  VAL29       0.1692
     21  C        -22.3690  -16.7400   14.6700 C.2    29  VAL29       0.2592
     22  O        -22.3820  -17.3550   15.7480 O.2    29  VAL29      -0.2718
     23  CB       -23.1260  -17.7970   12.5030 C.3    29  VAL29       0.0266
     24  CG1      -22.1560  -18.8450   12.9880 C.3    29  VAL29       0.0020
     25  CG2      -24.3400  -18.4920   11.9080 C.3    29  VAL29       0.0020
     26  N        -21.3750  -15.9090   14.3350 N.am   30  THR30      -0.1953
     27  CA       -20.1850  -15.7730   15.1730 C.3    30  THR30       0.1897
     28  C        -20.5000  -15.1970   16.5520 C.2    30  THR30       0.2313
     29  O        -19.7190  -15.4010   17.4870 O.2    30  THR30      -0.2863
     30  CB       -19.1370  -14.9030   14.4680 C.3    30  THR30       0.1794
     31  OG1      -19.0790  -15.2440   13.0750 O.3    30  THR30      -0.2208
     32  CG2      -17.7640  -15.1370   15.0650 C.3    30  THR30       0.0378
     33  N        -22.7030  -21.6330   19.2270 N.3    35  PHE35      -0.1241
     34  CA       -21.7590  -21.9090   18.1520 C.3    35  PHE35       0.1605
     35  C        -20.3160  -21.6400   18.5760 C.2    35  PHE35       0.2264
     36  O        -19.4030  -22.3770   18.1830 O.2    35  PHE35      -0.2867
     37  CB       -22.1570  -21.0880   16.9290 C.3    35  PHE35       0.0534
     38  CG       -21.1400  -21.0670   15.8380 C.ar   35  PHE35      -0.0203
     39  CD1      -20.1520  -20.0820   15.8060 C.ar   35  PHE35      -0.0042
     40  CD2      -21.1990  -21.9850   14.8100 C.ar   35  PHE35      -0.0042
     41  CE1      -19.2170  -20.0420   14.7870 C.ar   35  PHE35      -0.0003
     42  CE2      -20.2660  -21.9530   13.7870 C.ar   35  PHE35      -0.0003
     43  CZ       -19.2720  -20.9810   13.7770 C.ar   35  PHE35      -0.0000
     44  N        -16.7520  -11.5070   16.8910 N.3    56  TYR56      -0.1241
     45  CA       -15.8560  -11.4710   15.7280 C.3    56  TYR56       0.1605
     46  C        -14.6950  -10.4880   15.9010 C.2    56  TYR56       0.2264
     47  O        -13.7290  -10.5550   15.1340 O.2    56  TYR56      -0.2867
     48  CB       -16.6240  -11.1830   14.4140 C.3    56  TYR56       0.0534
     49  CG       -17.5310   -9.9690   14.3850 C.ar   56  TYR56      -0.0201
     50  CD1      -17.0120   -8.6890   14.5090 C.ar   56  TYR56      -0.0009
     51  CD2      -18.9010  -10.1020   14.1630 C.ar   56  TYR56      -0.0009
     52  CE1      -17.8370   -7.5680   14.4620 C.ar   56  TYR56       0.0417
     53  CE2      -19.7350   -8.9820   14.1030 C.ar   56  TYR56       0.0417
     54  CZ       -19.1930   -7.7140   14.2600 C.ar   56  TYR56       0.1957
     55  OH       -19.9980   -6.5880   14.2350 O.3    56  TYR56      -0.2866
     56  N        -11.5360  -12.4800   16.6840 N.3    59  PHE59      -0.1241
     57  CA       -10.9480  -13.2990   15.6300 C.3    59  PHE59       0.1605
     58  C         -9.6830  -12.6180   15.1130 C.2    59  PHE59       0.2264
     59  O         -9.4450  -12.5510   13.9060 O.2    59  PHE59      -0.2867
     60  CB       -11.9670  -13.5430   14.5150 C.3    59  PHE59       0.0534
     61  CG       -12.8390  -14.7600   14.7440 C.ar   59  PHE59      -0.0203
     62  CD1      -13.7550  -14.7910   15.7820 C.ar   59  PHE59      -0.0042
     63  CD2      -12.7410  -15.8650   13.9150 C.ar   59  PHE59      -0.0042
     64  CE1      -14.5450  -15.8990   15.9900 C.ar   59  PHE59      -0.0003
     65  CE2      -13.5360  -16.9720   14.1150 C.ar   59  PHE59      -0.0003
     66  CZ       -14.4380  -16.9890   15.1620 C.ar   59  PHE59      -0.0000
     67  N         -8.6310  -19.0850    9.6270 N.3    67  PHE67      -0.1227
     68  CA        -9.9620  -19.6200    9.3690 C.3    67  PHE67       0.1736
     69  C        -10.8040  -18.6280    8.5760 C.2    67  PHE67       0.2596
     70  O        -11.5370  -19.0220    7.6580 O.2    67  PHE67      -0.2718
     71  CB       -10.6440  -19.9910   10.6920 C.3    67  PHE67       0.0547
     72  CG       -12.0940  -20.3330   10.5440 C.ar   67  PHE67      -0.0202
     73  CD1      -12.4880  -21.6370   10.3260 C.ar   67  PHE67      -0.0042
     74  CD2      -13.0660  -19.3470   10.6130 C.ar   67  PHE67      -0.0042
     75  CE1      -13.8260  -21.9550   10.1780 C.ar   67  PHE67      -0.0003
     76  CE2      -14.4040  -19.6530   10.4620 C.ar   67  PHE67      -0.0003
     77  CZ       -14.7870  -20.9570   10.2450 C.ar   67  PHE67      -0.0000
     78  N        -10.6990  -17.3330    8.9100 N.am   68  THR68      -0.1953
     79  CA       -11.4550  -16.2940    8.2030 C.3    68  THR68       0.1897
     80  C        -10.9990  -16.1410    6.7540 C.2    68  THR68       0.2313
     81  O        -11.8280  -16.0290    5.8440 O.2    68  THR68      -0.2863
     82  CB       -11.3180  -14.9550    8.9280 C.3    68  THR68       0.1794
     83  OG1      -11.7280  -15.1070   10.2950 O.3    68  THR68      -0.2208
     84  CG2      -12.1760  -13.9030    8.2580 C.3    68  THR68       0.0378
     85  N        -11.7590  -16.4600    1.4490 N.3    72  TYR72      -0.1241
     86  CA       -11.2950  -15.5490    0.4110 C.3    72  TYR72       0.1605
     87  C        -10.1380  -16.1470   -0.3800 C.2    72  TYR72       0.2264
     88  O        -10.0110  -15.8800   -1.5830 O.2    72  TYR72      -0.2867
     89  CB       -10.9360  -14.1980    1.0420 C.3    72  TYR72       0.0534
     90  CG       -12.1480  -13.6520    1.7650 C.ar   72  TYR72      -0.0201
     91  CD1      -13.1560  -13.0000    1.0680 C.ar   72  TYR72      -0.0009
     92  CD2      -12.3360  -13.8890    3.1220 C.ar   72  TYR72      -0.0009
     93  CE1      -14.2860  -12.5530    1.7050 C.ar   72  TYR72       0.0417
     94  CE2      -13.4580  -13.4390    3.7700 C.ar   72  TYR72       0.0417
     95  CZ       -14.4300  -12.7730    3.0650 C.ar   72  TYR72       0.1957
     96  OH       -15.5470  -12.3340    3.7290 O.3    72  TYR72      -0.2866
     97  N        -16.0810  -24.1890    4.6200 N.3   122  ARG122     -0.1245
     98  CA       -15.6890  -22.8190    4.3270 C.3   122  ARG122      0.1563
     99  C        -14.8380  -22.7410    3.0660 C.2   122  ARG122      0.2260
    100  O        -15.0130  -21.8190    2.2550 O.2   122  ARG122     -0.2867
    101  CB       -14.9430  -22.2310    5.5180 C.3   122  ARG122      0.0307
    102  CG       -14.5710  -20.8070    5.3200 C.3   122  ARG122      0.0489
    103  CD       -14.2440  -20.1300    6.6120 C.3   122  ARG122      0.2205
    104  NE       -14.1550  -18.7010    6.3740 N.pl3 122  ARG122     -0.0865
    105  CZ       -15.1460  -17.8430    6.5870 C.cat 122  ARG122      0.5346
    106  NH1      -16.3060  -18.2590    7.0820 N.pl3 122  ARG122      0.1354
    107  NH2      -14.9660  -16.5610    6.3190 N.pl3 122  ARG122      0.1354
    108  N        -26.3610  -21.4870    8.9730 N.3   186  LEU186     -0.1245
    109  CA       -25.4780  -22.0120    7.9400 C.3   186  LEU186      0.1561
    110  C        -26.2410  -22.8700    6.9410 C.2   186  LEU186      0.2260
    111  O        -26.0360  -22.7480    5.7290 O.2   186  LEU186     -0.2867
    112  CB       -24.3470  -22.8040    8.5870 C.3   186  LEU186      0.0270
    113  CG       -23.6110  -21.9470    9.6140 C.3   186  LEU186      0.0019
    114  CD1      -22.3450  -22.6180   10.0790 C.3   186  LEU186      0.0001
    115  CD2      -23.3010  -20.5880    9.0570 C.3   186  LEU186      0.0001
    116  N        -17.2510   -2.6970    4.1010 N.3   281  ASN281     -0.1240
    117  CA       -17.3320   -3.8770    4.9560 C.3   281  ASN281      0.1653
    118  C        -16.7380   -3.6380    6.3270 C.2   281  ASN281      0.2266
    119  O        -16.8660   -4.5100    7.1930 O.2   281  ASN281     -0.2867
    120  CB       -16.6300   -5.0860    4.3220 C.3   281  ASN281      0.1155
    121  CG       -17.3400   -5.5920    3.0860 C.2   281  ASN281      0.2627
    122  OD1      -16.7010   -5.8770    2.0730 O.2   281  ASN281     -0.2716
    123  ND2      -18.6680   -5.6790    3.1510 N.am  281  ASN281     -0.0877
    124  N        -20.3870   -2.4790    9.9520 N.3   285  PHE285     -0.1241
    125  CA       -20.4140   -3.0620   11.2800 C.3   285  PHE285      0.1605
    126  C        -20.0340   -2.0850   12.3880 C.2   285  PHE285      0.2264
    127  O        -19.9320   -2.5100   13.5460 O.2   285  PHE285     -0.2867
    128  CB       -19.4990   -4.2910   11.3250 C.3   285  PHE285      0.0534
    129  CG       -19.8730   -5.3360   10.3240 C.ar  285  PHE285     -0.0203
    130  CD1      -19.4140   -5.2540    9.0190 C.ar  285  PHE285     -0.0042
    131  CD2      -20.7150   -6.3820   10.6740 C.ar  285  PHE285     -0.0042
    132  CE1      -19.7700   -6.2080    8.0830 C.ar  285  PHE285     -0.0003
    133  CE2      -21.0840   -7.3260    9.7480 C.ar  285  PHE285     -0.0003
    134  CZ       -20.6080   -7.2470    8.4430 C.ar  285  PHE285     -0.0000
    135  N        -11.1850   -7.4140    0.1520 N.3   417  THR417     -0.1203
    136  CA       -12.2080   -7.7080    1.1420 C.3   417  THR417      0.1994
    137  C        -11.5680   -8.2600    2.4040 C.2   417  THR417      0.2617
    138  O        -11.7810   -7.7350    3.4990 O.2   417  THR417     -0.2717
    139  CB       -13.2270   -8.7080    0.5930 C.3   417  THR417      0.1784
    140  OG1      -13.8790   -8.1710   -0.5700 O.3   417  THR417     -0.2211
    141  CG2      -14.2790   -9.0410    1.6720 C.3   417  THR417      0.0376
    142  N        -10.7620   -9.3120    2.2770 N.am  418  PHE418     -0.1975
    143  CA       -10.1800   -9.8680    3.4940 C.3   418  PHE418      0.1639
    144  C         -9.1790   -8.9000    4.1120 C.2   418  PHE418      0.2290
    145  O         -9.1730   -8.6960    5.3310 O.2   418  PHE418     -0.2864
    146  CB        -9.4940  -11.2190    3.2560 C.3   418  PHE418      0.0560
    147  CG        -8.6670  -11.6510    4.4380 C.ar  418  PHE418     -0.0200
    148  CD1       -9.2910  -12.0780    5.6150 C.ar  418  PHE418     -0.0042
    149  CD2       -7.2850  -11.5220    4.4280 C.ar  418  PHE418     -0.0042
    150  CE1       -8.5530  -12.4280    6.7340 C.ar  418  PHE418     -0.0003
    151  CE2       -6.5300  -11.8780    5.5530 C.ar  418  PHE418     -0.0003
    152  CZ        -7.1720  -12.3310    6.7070 C.ar  418  PHE418     -0.0000
    153  N        -10.8100   -5.4600    5.6550 N.3   421  GLY421     -0.1210
    154  CA       -11.6680   -5.8060    6.7830 C.3   421  GLY421      0.1956
    155  C        -10.9560   -6.4600    7.9530 C.2   421  GLY421      0.2611
    156  O        -11.4570   -6.4000    9.0780 O.2   421  GLY421     -0.2717
    157  N         -9.8050   -7.0820    7.7230 N.am  422  GLN422     -0.1979
    158  CA        -9.0330   -7.6100    8.8390 C.3   422  GLN422      0.1601
    159  C         -8.0880   -6.5640    9.4170 C.2   422  GLN422      0.2287
    160  O         -7.8530   -6.5290   10.6300 O.2   422  GLN422     -0.2864
    161  CB        -8.2360   -8.8350    8.3930 C.3   422  GLN422      0.0394
    162  CG        -7.4150   -9.4520    9.5010 C.3   422  GLN422      0.0908
    163  CD        -8.2630  -10.3200   10.4050 C.2   422  GLN422      0.2608
    164  OE1       -9.0750  -11.1170    9.9330 O.2   422  GLN422     -0.2717
    165  NE2       -8.0920  -10.1600   11.7120 N.am  422  GLN422     -0.0878
    166  N        -10.0410   -4.2810   11.5830 N.3   425  LEU425     -0.1245
    167  CA       -10.8370   -4.9540   12.6020 C.3   425  LEU425      0.1561
    168  C        -10.6240   -4.3250   13.9790 C.2   425  LEU425      0.2260
    169  O        -11.5920   -4.0850   14.7060 O.2   425  LEU425     -0.2867
    170  CB       -10.5020   -6.4420   12.6190 C.3   425  LEU425      0.0270
    171  CG       -11.2890   -7.2760   13.6210 C.3   425  LEU425      0.0019
    172  CD1      -12.7570   -7.3560   13.1970 C.3   425  LEU425      0.0001
    173  CD2      -10.6740   -8.6640   13.7650 C.3   425  LEU425      0.0001
    174  N        -12.2780   -0.7120   14.2170 N.3   428  LEU428     -0.1245
    175  CA       -13.7210   -0.8850   14.2590 C.3   428  LEU428      0.1561
    176  C        -14.1680   -1.3430   15.6380 C.2   428  LEU428      0.2260
    177  O        -15.2000   -0.8940   16.1510 O.2   428  LEU428     -0.2867
    178  CB       -14.1450   -1.8940   13.1920 C.3   428  LEU428      0.0270
    179  CG       -15.4910   -2.5810   13.4030 C.3   428  LEU428      0.0019
    180  CD1      -16.6070   -1.6150   13.0230 C.3   428  LEU428      0.0001
    181  CD2      -15.5820   -3.8800   12.6010 C.3   428  LEU428      0.0001
@<TRIPOS>BOND
     1    88    87    2
     2   140   139    1
     3    87    86    1
     4   135   136    1
     5    86    89    1
     6    86    85    1
     7     7     6    1
     8   139   136    1
     9   139   141    1
    10    89    90    1
    11    91    93   ar
    12    91    90   ar
    13   136   137    1
    14    93    95   ar
    15     6     8    1
    16     6     5    1
    17    90    92   ar
    18   122   121    2
    19   100    99    2
    20   142   137   am
    21   142   143    1
    22   137   138    2
    23     5     2    1
    24    95    96    1
    25    95    94   ar
    26    99    98    1
    27   121   123   am
    28   121   120    1
    29    92    94   ar
    30   146   143    1
    31   146   147    1
    32     1     2    1
    33   143   144    1
    34     2     3    1
    35   116   117    1
    36   144   145    2
    37   120   117    1
    38    98    97    1
    39    98   101    1
    40   149   147   ar
    41   149   151   ar
    42   147   148   ar
    43   117   118    1
    44     3     4    2
    45   102   101    1
    46   102   103    1
    47   151   152   ar
    48   148   150   ar
    49   153   154    1
    50   111   110    2
    51    81    80    2
    52   107   105    1
    53   118   119    2
    54   104   105    2
    55   104   103    1
    56   105   106    1
    57   152   150   ar
    58    80    79    1
    59   154   155    1
    60   110   109    1
    61    70    69    2
    62   157   155   am
    63   157   158    1
    64   109   112    1
    65   109   108    1
    66   155   156    2
    67   132   134   ar
    68   132   130   ar
    69    79    78    1
    70    79    82    1
    71    84    82    1
    72   161   158    1
    73   161   162    1
    74    13    14    1
    75    13    10    1
    76   134   133   ar
    77     9    10    1
    78    69    78   am
    79    69    68    1
    80   112   113    1
    81   158   159    1
    82    82    83    1
    83   130   129   ar
    84   115   113    1
    85    10    11    1
    86    68    67    1
    87    68    71    1
    88   159   160    2
    89   162   163    1
    90   113   114    1
    91   133   131   ar
    92   164   163    2
    93   124   125    1
    94    75    77   ar
    95    75    73   ar
    96    77    76   ar
    97   129   131   ar
    98   129   128    1
    99    73    72   ar
   100   163   165   am
   101    76    74   ar
   102    15    11   am
   103    15    16    1
   104    11    12    2
   105    72    74   ar
   106    72    71    1
   107   125   128    1
   108   125   126    1
   109   166   167    1
   110    16    17    1
   111    25    23    1
   112   126   127    2
   113    23    24    1
   114    23    20    1
   115   181   179    1
   116   167   170    1
   117   167   168    1
   118   170   171    1
   119    17    18    2
   120   180   179    1
   121    31    30    1
   122    19    20    1
   123   178   179    1
   124   178   175    1
   125   172   171    1
   126   171   173    1
   127    20    21    1
   128    43    42   ar
   129    43    41   ar
   130    42    40   ar
   131    59    58    2
   132    63    65   ar
   133    63    61   ar
   134   168   169    2
   135    53    51   ar
   136    53    54   ar
   137    65    66   ar
   138    51    49   ar
   139   174   175    1
   140    55    54    1
   141   175   176    1
   142    54    52   ar
   143    26    21   am
   144    26    27    1
   145    49    48    1
   146    49    50   ar
   147    48    45    1
   148    52    50   ar
   149    30    32    1
   150    30    27    1
   151    60    61    1
   152    60    57    1
   153    21    22    2
   154    61    62   ar
   155    41    39   ar
   156    40    38   ar
   157    58    57    1
   158    47    46    2
   159    66    64   ar
   160    27    28    1
   161    57    56    1
   162   176   177    2
   163    45    46    1
   164    45    44    1
   165    62    64   ar
   166    39    38   ar
   167    38    37    1
   168    28    29    2
   169    37    34    1
   170    34    35    1
   171    34    33    1
   172    36    35    2
