@<TRIPOS>MOLECULE
tmp/6h7dA03.pdb
 131 124 0 0 0
SMALL
GASTEIGER

@<TRIPOS>ATOM
      1  N        -23.3740   -0.0730   19.2210 N.3   291  PHE291     -0.1241
      2  CA       -24.5890   -0.3270   19.9890 C.3   291  PHE291      0.1605
      3  C        -24.3280   -1.3280   21.1080 C.2   291  PHE291      0.2264
      4  O        -24.6730   -1.0800   22.2670 O.2   291  PHE291     -0.2867
      5  CB       -25.7100   -0.8180   19.0620 C.3   291  PHE291      0.0534
      6  CG       -26.2980    0.2640   18.1740 C.ar  291  PHE291     -0.0203
      7  CD1      -25.5990    1.4420   17.9090 C.ar  291  PHE291     -0.0042
      8  CD2      -27.5480    0.1050   17.5970 C.ar  291  PHE291     -0.0042
      9  CE1      -26.1420    2.4340   17.0940 C.ar  291  PHE291     -0.0003
     10  CE2      -28.0920    1.1030   16.7670 C.ar  291  PHE291     -0.0003
     11  CZ       -27.3890    2.2560   16.5240 C.ar  291  PHE291     -0.0000
     12  N        -30.6310   -5.7540   15.0690 N.3   303  MET303     -0.1245
     13  CA       -31.6860   -4.9510   14.4660 C.3   303  MET303      0.1570
     14  C        -31.1220   -3.8860   13.5380 C.2   303  MET303      0.2261
     15  O        -31.7660   -3.5220   12.5490 O.2   303  MET303     -0.2867
     16  CB       -32.5360   -4.3000   15.5480 C.3   303  MET303      0.0387
     17  CG       -33.7980   -3.6340   15.0130 C.3   303  MET303      0.0595
     18  SD       -34.5580   -4.5910   13.6860 S.3   303  MET303     -0.1393
     19  CE       -35.9680   -5.3400   14.4980 C.3   303  MET303      0.0692
     20  N        -31.7450   -3.0200    9.4980 N.3   307  ILE307     -0.1245
     21  CA       -32.0840   -1.6970    8.9710 C.3   307  ILE307      0.1561
     22  C        -31.1250   -1.3040    7.8510 C.2   307  ILE307      0.2260
     23  O        -31.5460   -0.8740    6.7690 O.2   307  ILE307     -0.2867
     24  CB       -32.0760   -0.6550   10.1030 C.3   307  ILE307      0.0252
     25  CG1      -33.2760   -0.8600   11.0250 C.3   307  ILE307      0.0019
     26  CG2      -32.0740    0.7800    9.5450 C.3   307  ILE307      0.0019
     27  CD1      -33.1640   -0.0900   12.3010 C.3   307  ILE307      0.0001
     28  N        -31.7730   -0.9250    3.8400 N.3   311  VAL311     -0.1245
     29  CA       -31.3840    0.2740    3.1190 C.3   311  VAL311      0.1561
     30  C        -30.4120   -0.0810    2.0100 C.2   311  VAL311      0.2260
     31  O        -30.4080    0.5590    0.9530 O.2   311  VAL311     -0.2867
     32  CB       -30.7770    1.2820    4.1050 C.3   311  VAL311      0.0252
     33  CG1      -29.9730    2.3920    3.3570 C.3   311  VAL311      0.0019
     34  CG2      -31.8780    1.8310    5.0210 C.3   311  VAL311      0.0019
     35  N        -32.7970   -2.1280   -1.9540 N.3   314  LEU314     -0.1231
     36  CA       -33.7240   -1.0030   -2.1230 C.3   314  LEU314      0.1693
     37  C        -33.0060    0.1960   -2.7310 C.2   314  LEU314      0.2592
     38  O        -33.4430    0.7040   -3.7640 O.2   314  LEU314     -0.2718
     39  CB       -34.3790   -0.6080   -0.7960 C.3   314  LEU314      0.0284
     40  CG       -35.8440   -0.2290   -0.6850 C.3   314  LEU314      0.0019
     41  CD1      -36.6840   -1.1100   -1.5660 C.3   314  LEU314      0.0001
     42  CD2      -36.2590   -0.3770    0.7640 C.3   314  LEU314      0.0001
     43  N        -31.9160    0.6580   -2.0970 N.am  315  SER315     -0.1952
     44  CA       -31.0470    1.6650   -2.7130 C.3   315  SER315      0.1924
     45  C        -30.5620    1.1980   -4.0750 C.2   315  SER315      0.2314
     46  O        -30.4700    1.9830   -5.0250 O.2   315  SER315     -0.2863
     47  CB       -29.8380    1.9410   -1.8240 C.3   315  SER315      0.2116
     48  OG       -30.1650    2.7220   -0.7080 O.3   315  SER315     -0.2180
     49  N        -32.1690   -0.2030   -6.2050 N.3   317  PHE317     -0.1227
     50  CA       -33.1230    0.1290   -7.2640 C.3   317  PHE317      0.1736
     51  C        -32.7230    1.4020   -7.9880 C.2   317  PHE317      0.2595
     52  O        -32.9430    1.5170   -9.1990 O.2   317  PHE317     -0.2718
     53  CB       -34.5410    0.2770   -6.7080 C.3   317  PHE317      0.0547
     54  CG       -35.2100   -1.0290   -6.3980 C.ar  317  PHE317     -0.0202
     55  CD1      -35.5490   -1.9050   -7.4120 C.ar  317  PHE317     -0.0042
     56  CD2      -35.5010   -1.3830   -5.0880 C.ar  317  PHE317     -0.0042
     57  CE1      -36.1610   -3.1260   -7.1250 C.ar  317  PHE317     -0.0003
     58  CE2      -36.1110   -2.5990   -4.7950 C.ar  317  PHE317     -0.0003
     59  CZ       -36.4440   -3.4690   -5.8180 C.ar  317  PHE317     -0.0000
     60  N        -32.1210    2.3560   -7.2630 N.am  318  VAL318     -0.1980
     61  CA       -31.7000    3.6230   -7.8600 C.3   318  VAL318      0.1595
     62  C        -30.7430    3.3650   -9.0150 C.2   318  VAL318      0.2287
     63  O        -30.9320    3.8690  -10.1280 O.2   318  VAL318     -0.2864
     64  CB       -31.0600    4.5360   -6.7950 C.3   318  VAL318      0.0276
     65  CG1      -30.3640    5.7330   -7.4340 C.3   318  VAL318      0.0022
     66  CG2      -32.0940    4.9770   -5.7580 C.3   318  VAL318      0.0022
     67  N        -32.5040    1.8260  -12.1840 N.3   321  TYR321     -0.1241
     68  CA       -33.2280    2.7920  -13.0090 C.3   321  TYR321      0.1605
     69  C        -32.2960    3.7790  -13.7070 C.2   321  TYR321      0.2264
     70  O        -32.6070    4.2470  -14.8050 O.2   321  TYR321     -0.2867
     71  CB       -34.2310    3.5560  -12.1460 C.3   321  TYR321      0.0534
     72  CG       -35.2820    4.3160  -12.9190 C.ar  321  TYR321     -0.0201
     73  CD1      -36.4710    3.7010  -13.3060 C.ar  321  TYR321     -0.0009
     74  CD2      -35.1030    5.6650  -13.2340 C.ar  321  TYR321     -0.0009
     75  CE1      -37.4490    4.4090  -14.0080 C.ar  321  TYR321      0.0417
     76  CE2      -36.0750    6.3830  -13.9330 C.ar  321  TYR321      0.0417
     77  CZ       -37.2440    5.7510  -14.3180 C.ar  321  TYR321      0.1957
     78  OH       -38.2030    6.4610  -15.0140 O.3   321  TYR321     -0.2866
     79  N        -28.7970    6.6690   17.1850 N.3   368  ASP368     -0.1239
     80  CA       -29.6430    6.5840   15.9990 C.3   368  ASP368      0.1674
     81  C        -29.1910    7.5310   14.8950 C.2   368  ASP368      0.2266
     82  O        -29.4280    7.2560   13.7140 O.2   368  ASP368     -0.2867
     83  CB       -31.0950    6.8560   16.3760 C.3   368  ASP368      0.1410
     84  CG       -31.6730    5.7500   17.2160 C.2   368  ASP368      0.3668
     85  OD1      -31.0430    4.6700   17.2550 O.co2 368  ASP368     -0.2456
     86  OD2      -32.7350    5.9490   17.8320 O.co2 368  ASP368     -0.2456
     87  N        -26.4610    5.8590   13.0050 N.3   371  LEU371     -0.1231
     88  CA       -26.9740    4.8230   12.1180 C.3   371  LEU371      0.1693
     89  C        -27.6220    5.4390   10.8900 C.2   371  LEU371      0.2591
     90  O        -27.4790    4.9180    9.7800 O.2   371  LEU371     -0.2718
     91  CB       -27.9580    3.9280   12.8720 C.3   371  LEU371      0.0284
     92  CG       -28.6370    2.8050   12.0880 C.3   371  LEU371      0.0019
     93  CD1      -27.6600    1.6790   11.7510 C.3   371  LEU371      0.0001
     94  CD2      -29.7780    2.2760   12.9140 C.3   371  LEU371      0.0001
     95  N        -28.3100    6.5690   11.0610 N.am  372  ALA372     -0.1980
     96  CA       -28.8680    7.2710    9.9060 C.3   372  ALA372      0.1597
     97  C        -27.7660    7.7540    8.9720 C.2   372  ALA372      0.2287
     98  O        -27.8950    7.6590    7.7440 O.2   372  ALA372     -0.2864
     99  CB       -29.7380    8.4490   10.3610 C.3   372  ALA372      0.0319
    100  N        -26.3710    4.8160    7.1530 N.3   375  CYS375     -0.1221
    101  CA       -27.3440    4.3340    6.1760 C.3   375  CYS375      0.1808
    102  C        -27.3390    5.1680    4.9080 C.2   375  CYS375      0.2601
    103  O        -27.5530    4.6530    3.8050 O.2   375  CYS375     -0.2717
    104  CB       -28.7290    4.3300    6.8010 C.3   375  CYS375      0.0970
    105  SG       -28.9150    2.9410    7.9130 S.3   375  CYS375     -0.0800
    106  N        -27.1330    6.4670    5.0420 N.am  376  VAL376     -0.1979
    107  CA       -27.0540    7.2630    3.8310 C.3   376  VAL376      0.1595
    108  C        -25.7520    6.9700    3.0910 C.2   376  VAL376      0.2287
    109  O        -25.7170    6.9560    1.8570 O.2   376  VAL376     -0.2864
    110  CB       -27.2290    8.7390    4.2090 C.3   376  VAL376      0.0276
    111  CG1      -27.1430    9.6290    2.9940 C.3   376  VAL376      0.0022
    112  CG2      -28.5540    8.8930    4.8520 C.3   376  VAL376      0.0022
    113  N        -26.3040    3.8310    1.3790 N.3   379  ALA379     -0.1245
    114  CA       -27.1370    4.0280    0.1960 C.3   379  ALA379      0.1562
    115  C        -26.3030    4.5190   -0.9820 C.2   379  ALA379      0.2260
    116  O        -26.4700    4.0470   -2.1180 O.2   379  ALA379     -0.2867
    117  CB       -28.2730    5.0070    0.4940 C.3   379  ALA379      0.0290
    118  N        -25.8380    2.3550   -4.7320 N.3   383  TRP383     -0.1241
    119  CA       -26.1510    2.6470   -6.1260 C.3   383  TRP383      0.1605
    120  C        -24.9530    3.1690   -6.9080 C.2   383  TRP383      0.2264
    121  O        -25.1220    3.5750   -8.0530 O.2   383  TRP383     -0.2867
    122  CB       -27.3530    3.5920   -6.2620 C.3   383  TRP383      0.0550
    123  CG       -27.2640    4.9300   -5.5880 C.ar  383  TRP383      0.0003
    124  CD1      -26.3620    5.9340   -5.8440 C.ar  383  TRP383      0.0946
    125  CD2      -28.1470    5.4340   -4.5750 C.ar  383  TRP383      0.0152
    126  NE1      -26.6180    7.0150   -5.0310 N.ar  383  TRP383     -0.2442
    127  CE2      -27.7080    6.7340   -4.2460 C.ar  383  TRP383      0.0810
    128  CE3      -29.2510    4.9030   -3.8990 C.ar  383  TRP383      0.0012
    129  CZ2      -28.3410    7.5080   -3.2790 C.ar  383  TRP383      0.0191
    130  CZ3      -29.8780    5.6710   -2.9530 C.ar  383  TRP383      0.0001
    131  CH2      -29.4220    6.9610   -2.6460 C.ar  383  TRP383      0.0015
@<TRIPOS>BOND
     1    78    77    1
     2    70    69    2
     3    77    75   ar
     4    77    76   ar
     5    75    73   ar
     6    76    74   ar
     7    69    68    1
     8    73    72   ar
     9    74    72   ar
    10    68    67    1
    11    68    71    1
    12    72    71    1
    13    63    62    2
    14    52    51    2
    15    62    61    1
    16   121   120    2
    17    51    50    1
    18    51    60   am
    19    61    60    1
    20    61    64    1
    21    65    64    1
    22    55    57   ar
    23    55    54   ar
    24    50    53    1
    25    50    49    1
    26    57    59   ar
    27   120   119    1
    28    64    66    1
    29    53    54    1
    30    54    56   ar
    31   122   119    1
    32   122   123    1
    33   119   118    1
    34   124   123   ar
    35   124   126   ar
    36    59    58   ar
    37   123   125   ar
    38    56    58   ar
    39   126   127   ar
    40    46    45    2
    41   125   127   ar
    42   125   128   ar
    43   127   129   ar
    44    45    44    1
    45   128   130   ar
    46    38    37    2
    47   129   131   ar
    48   130   131   ar
    49    37    36    1
    50    37    43   am
    51    44    43    1
    52    44    47    1
    53    36    35    1
    54    36    39    1
    55   116   115    2
    56    47    48    1
    57    41    40    1
    58   115   114    1
    59    39    40    1
    60    40    42    1
    61   114   117    1
    62   114   113    1
    63    31    30    2
    64   109   108    2
    65    30    29    1
    66   111   110    1
    67   108   107    1
    68    29    28    1
    69    29    32    1
    70    33    32    1
    71   103   102    2
    72   107   110    1
    73   107   106    1
    74    32    34    1
    75   110   112    1
    76   102   106   am
    77   102   101    1
    78   101   104    1
    79   101   100    1
    80    23    22    2
    81   104   105    1
    82    98    97    2
    83    22    21    1
    84    21    20    1
    85    21    24    1
    86    97    96    1
    87    26    24    1
    88    90    89    2
    89    96    99    1
    90    96    95    1
    91    24    25    1
    92    89    95   am
    93    89    88    1
    94    25    27    1
    95    93    92    1
    96    92    91    1
    97    92    94    1
    98    88    91    1
    99    88    87    1
   100    15    14    2
   101    14    13    1
   102    18    19    1
   103    18    17    1
   104    82    81    2
   105    13    12    1
   106    13    16    1
   107    81    80    1
   108    17    16    1
   109    80    83    1
   110    80    79    1
   111    83    84    1
   112    11    10   ar
   113    11     9   ar
   114    10     8   ar
   115     9     7   ar
   116    84    85   ar
   117    84    86   ar
   118     8     6   ar
   119     7     6   ar
   120     6     5    1
   121     5     2    1
   122     1     2    1
   123     2     3    1
   124     3     4    2
