@<TRIPOS>MOLECULE
tmp/6h7dA00.pdb
 145 135 0 0 0
SMALL
GASTEIGER

@<TRIPOS>ATOM
      1  N        -22.9480  -15.3160   -2.4810 N.3    19  PHE19      -0.1241
      2  CA       -22.0770  -14.3320   -1.8470 C.3    19  PHE19       0.1605
      3  C        -22.8450  -13.5000   -0.8270 C.2    19  PHE19       0.2264
      4  O        -22.3580  -13.2450    0.2840 O.2    19  PHE19      -0.2867
      5  CB       -21.4840  -13.4420   -2.9420 C.3    19  PHE19       0.0534
      6  CG       -20.3370  -12.5730   -2.5010 C.ar   19  PHE19      -0.0203
      7  CD1      -19.3850  -13.0400   -1.6220 C.ar   19  PHE19      -0.0042
      8  CD2      -20.2000  -11.2890   -3.0070 C.ar   19  PHE19      -0.0042
      9  CE1      -18.3270  -12.2420   -1.2420 C.ar   19  PHE19      -0.0003
     10  CE2      -19.1410  -10.4830   -2.6410 C.ar   19  PHE19      -0.0003
     11  CZ       -18.2100  -10.9560   -1.7540 C.ar   19  PHE19      -0.0000
     12  N        -22.1260  -13.1670    3.2620 N.3    23  LEU23      -0.1245
     13  CA       -21.7830  -11.8830    3.8690 C.3    23  LEU23       0.1561
     14  C        -22.7310  -11.5410    5.0160 C.2    23  LEU23       0.2260
     15  O        -22.2990  -11.0410    6.0590 O.2    23  LEU23      -0.2867
     16  CB       -21.8140  -10.7700    2.8210 C.3    23  LEU23       0.0270
     17  CG       -20.7230  -10.7260    1.7410 C.3    23  LEU23       0.0019
     18  CD1      -21.1720   -9.9110    0.5280 C.3    23  LEU23       0.0001
     19  CD2      -19.4000  -10.1850    2.2590 C.3    23  LEU23       0.0001
     20  N        -26.0420   -7.8630   -8.3430 N.3   157  GLN157     -0.1245
     21  CA       -25.8130   -7.1210   -7.1000 C.3   157  GLN157      0.1566
     22  C        -27.0760   -7.0050   -6.2600 C.2   157  GLN157      0.2260
     23  O        -27.0100   -7.0930   -5.0310 O.2   157  GLN157     -0.2867
     24  CB       -25.2810   -5.7190   -7.3920 C.3   157  GLN157      0.0367
     25  CG       -25.2580   -4.8380   -6.1500 C.3   157  GLN157      0.0905
     26  CD       -24.0200   -5.0590   -5.3250 C.2   157  GLN157      0.2608
     27  OE1      -23.0590   -5.6710   -5.7830 O.2   157  GLN157     -0.2717
     28  NE2      -24.0240   -4.5500   -4.1140 N.am  157  GLN157     -0.0878
     29  N        -27.1140  -10.0230   -4.4740 N.3   160  ILE160     -0.1231
     30  CA       -26.1730   -9.9700   -3.3530 C.3   160  ILE160      0.1692
     31  C        -26.8250   -9.2710   -2.1670 C.2   160  ILE160      0.2592
     32  O        -26.7940   -9.7810   -1.0440 O.2   160  ILE160     -0.2718
     33  CB       -24.8560   -9.2720   -3.7350 C.3   160  ILE160      0.0266
     34  CG1      -24.1080   -9.9830   -4.8650 C.3   160  ILE160      0.0019
     35  CG2      -23.9710   -9.1210   -2.5090 C.3   160  ILE160      0.0020
     36  CD1      -22.6750   -9.4480   -5.0910 C.3   160  ILE160      0.0001
     37  N        -27.4530   -8.1000   -2.3990 N.am  161  THR161     -0.1953
     38  CA       -28.0070   -7.3750   -1.2550 C.3   161  THR161      0.1897
     39  C        -29.2300   -8.0730   -0.6800 C.2   161  THR161      0.2313
     40  O        -29.5050   -7.9320    0.5120 O.2   161  THR161     -0.2863
     41  CB       -28.3470   -5.9260   -1.6150 C.3   161  THR161      0.1794
     42  OG1      -29.4590   -5.8760   -2.5240 O.3   161  THR161     -0.2208
     43  CG2      -27.1280   -5.2280   -2.2080 C.3   161  THR161      0.0378
     44  N        -27.6480  -10.6270    1.6780 N.3   164  ILE164     -0.1245
     45  CA       -27.2810   -9.9370    2.9200 C.3   164  ILE164      0.1561
     46  C        -28.5050   -9.7040    3.8100 C.2   164  ILE164      0.2260
     47  O        -28.4960  -10.0240    5.0010 O.2   164  ILE164     -0.2867
     48  CB       -26.5680   -8.6120    2.6020 C.3   164  ILE164      0.0252
     49  CG1      -25.1780   -8.8950    2.0480 C.3   164  ILE164      0.0019
     50  CG2      -26.4920   -7.7300    3.8670 C.3   164  ILE164      0.0019
     51  CD1      -24.5010   -7.6620    1.3620 C.3   164  ILE164      0.0001
     52  N        -13.5940   -0.5250   -4.6070 N.3   275  GLN275     -0.1231
     53  CA       -14.8840   -0.9030   -4.0150 C.3   275  GLN275      0.1698
     54  C        -14.7510   -1.2520   -2.5360 C.2   275  GLN275      0.2592
     55  O        -15.6890   -1.0620   -1.7550 O.2   275  GLN275     -0.2718
     56  CB       -15.4890   -2.0910   -4.7680 C.3   275  GLN275      0.0381
     57  CG       -16.9910   -2.2160   -4.5720 C.3   275  GLN275      0.0905
     58  CD       -17.5340   -3.6180   -4.8430 C.2   275  GLN275      0.2608
     59  OE1      -17.0020   -4.6160   -4.3450 O.2   275  GLN275     -0.2717
     60  NE2      -18.6210   -3.6910   -5.6090 N.am  275  GLN275     -0.0878
     61  N        -13.5910   -1.7530   -2.1380 N.am  276  GLN276     -0.1979
     62  CA       -13.3620   -2.2050   -0.7840 C.3   276  GLN276      0.1601
     63  C        -12.7680   -1.1180    0.0990 C.2   276  GLN276      0.2287
     64  O        -13.1630   -1.0060    1.2580 O.2   276  GLN276     -0.2864
     65  CB       -12.4640   -3.4400   -0.8170 C.3   276  GLN276      0.0394
     66  CG       -13.1280   -4.6140   -1.5400 C.3   276  GLN276      0.0908
     67  CD       -14.4830   -5.0010   -0.9430 C.2   276  GLN276      0.2608
     68  OE1      -15.4640   -5.1800   -1.6680 O.2   276  GLN276     -0.2717
     69  NE2      -14.5380   -5.1400    0.3840 N.am  276  GLN276     -0.0878
     70  N        -16.7320   -0.1740    2.9440 N.3   280  ILE280     -0.1231
     71  CA       -18.1110   -0.6420    3.0720 C.3   280  ILE280      0.1692
     72  C        -18.2320   -1.7890    4.0740 C.2   280  ILE280      0.2592
     73  O        -19.2150   -1.8750    4.8160 O.2   280  ILE280     -0.2718
     74  CB       -18.6440   -1.0510    1.6850 C.3   280  ILE280      0.0266
     75  CG1      -20.1310   -1.4060    1.7580 C.3   280  ILE280      0.0019
     76  CG2      -17.7970   -2.1890    1.0990 C.3   280  ILE280      0.0020
     77  CD1      -20.9180   -0.3280    2.4070 C.3   280  ILE280      0.0001
     78  N        -17.2510   -2.6970    4.1010 N.am  281  ASN281     -0.1974
     79  CA       -17.3320   -3.8770    4.9560 C.3   281  ASN281      0.1688
     80  C        -16.7380   -3.6380    6.3270 C.2   281  ASN281      0.2292
     81  O        -16.8660   -4.5100    7.1930 O.2   281  ASN281     -0.2864
     82  CB       -16.6300   -5.0860    4.3220 C.3   281  ASN281      0.1181
     83  CG       -17.3400   -5.5920    3.0860 C.2   281  ASN281      0.2629
     84  OD1      -16.7010   -5.8770    2.0730 O.2   281  ASN281     -0.2716
     85  ND2      -18.6680   -5.6790    3.1510 N.am  281  ASN281     -0.0877
     86  N        -20.0650   -1.0240    7.6130 N.3   284  MET284     -0.1245
     87  CA       -21.3450   -1.6990    7.8170 C.3   284  MET284      0.1570
     88  C        -21.4760   -2.3600    9.1930 C.2   284  MET284      0.2261
     89  O        -22.5860   -2.7540    9.5670 O.2   284  MET284     -0.2867
     90  CB       -21.5610   -2.7360    6.7180 C.3   284  MET284      0.0387
     91  CG       -22.3190   -2.1950    5.5150 C.3   284  MET284      0.0595
     92  SD       -22.9430   -3.5030    4.4370 S.3   284  MET284     -0.1393
     93  CE       -21.8030   -4.8340    4.8480 C.3   284  MET284      0.0692
     94  N        -29.6000   -1.1190    2.2310 N.3   312  ASN312     -0.1240
     95  CA       -28.5800   -1.5170    1.2760 C.3   312  ASN312      0.1653
     96  C        -29.2060   -2.1820    0.0600 C.2   312  ASN312      0.2266
     97  O        -28.8640   -1.8670   -1.0860 O.2   312  ASN312     -0.2867
     98  CB       -27.5930   -2.4470    1.9630 C.3   312  ASN312      0.1155
     99  CG       -26.5010   -2.9080    1.0540 C.2   312  ASN312      0.2627
    100  OD1      -25.8580   -2.1070    0.3740 O.2   312  ASN312     -0.2716
    101  ND2      -26.2720   -4.2160    1.0310 N.am  312  ASN312     -0.0877
    102  N        -23.1370    3.9810   -1.4650 N.3   381  PHE381     -0.1241
    103  CA       -22.4310    2.8090   -1.9630 C.3   381  PHE381      0.1605
    104  C        -23.3630    1.9290   -2.7760 C.2   381  PHE381      0.2264
    105  O        -23.0020    1.4770   -3.8720 O.2   381  PHE381     -0.2867
    106  CB       -21.8140    2.0140   -0.8210 C.3   381  PHE381      0.0534
    107  CG       -21.0180    0.8180   -1.2800 C.ar  381  PHE381     -0.0203
    108  CD1      -21.6340   -0.4260   -1.4550 C.ar  381  PHE381     -0.0042
    109  CD2      -19.6560    0.9260   -1.5260 C.ar  381  PHE381     -0.0042
    110  CE1      -20.9130   -1.5600   -1.8630 C.ar  381  PHE381     -0.0003
    111  CE2      -18.9110   -0.2130   -1.9490 C.ar  381  PHE381     -0.0003
    112  CZ       -19.5460   -1.4520   -2.1280 C.ar  381  PHE381     -0.0000
    113  N        -21.2040   -0.4180   -5.3370 N.3   386  GLY386     -0.1225
    114  CA       -21.7180   -1.7440   -5.1150 C.3   386  GLY386      0.1811
    115  C        -21.9850   -2.4510   -6.4240 C.2   386  GLY386      0.2280
    116  O        -21.2260   -3.3120   -6.8750 O.2   386  GLY386     -0.2866
    117  N        -19.5720   -4.8150  -10.1260 N.3   390  TRP390     -0.1241
    118  CA       -19.7090   -6.0640  -10.8530 C.3   390  TRP390      0.1605
    119  C        -20.1980   -5.8730  -12.2870 C.2   390  TRP390      0.2264
    120  O        -20.1780   -6.8370  -13.0700 O.2   390  TRP390     -0.2867
    121  CB       -20.6410   -7.0230  -10.0890 C.3   390  TRP390      0.0550
    122  CG       -20.1710   -7.2380   -8.6590 C.ar  390  TRP390      0.0003
    123  CD1      -20.7180   -6.7080   -7.5290 C.ar  390  TRP390      0.0946
    124  CD2      -19.0390   -8.0100   -8.2300 C.ar  390  TRP390      0.0152
    125  NE1      -19.9970   -7.1020   -6.4230 N.ar  390  TRP390     -0.2442
    126  CE2      -18.9660   -7.9060   -6.8290 C.ar  390  TRP390      0.0810
    127  CE3      -18.0910   -8.7930   -8.8940 C.ar  390  TRP390      0.0012
    128  CZ2      -17.9780   -8.5430   -6.0860 C.ar  390  TRP390      0.0191
    129  CZ3      -17.1030   -9.4110   -8.1530 C.ar  390  TRP390      0.0001
    130  CH2      -17.0530   -9.2820   -6.7710 C.ar  390  TRP390      0.0015
    131  N        -10.7740   -8.4320   -5.5950 N.3   413  ASN413     -0.1240
    132  CA       -11.8110   -8.0700   -4.6470 C.3   413  ASN413      0.1653
    133  C        -11.7450   -8.9270   -3.3830 C.2   413  ASN413      0.2266
    134  O        -11.7700   -8.3910   -2.2680 O.2   413  ASN413     -0.2867
    135  CB       -13.1800   -8.1710   -5.3120 C.3   413  ASN413      0.1155
    136  CG       -14.2510   -7.5270   -4.4800 C.2   413  ASN413      0.2627
    137  OD1      -14.6220   -8.0420   -3.4310 O.2   413  ASN413     -0.2716
    138  ND2      -14.7410   -6.3810   -4.9230 N.am  413  ASN413     -0.0877
    139  N        -11.1850   -7.4140    0.1520 N.3   417  THR417     -0.1218
    140  CA       -12.2080   -7.7080    1.1420 C.3   417  THR417      0.1862
    141  C        -11.5680   -8.2600    2.4040 C.2   417  THR417      0.2287
    142  O        -11.7810   -7.7350    3.4990 O.2   417  THR417     -0.2866
    143  CB       -13.2270   -8.7080    0.5930 C.3   417  THR417      0.1770
    144  OG1      -13.8790   -8.1710   -0.5700 O.3   417  THR417     -0.2211
    145  CG2      -14.2790   -9.0410    1.6720 C.3   417  THR417      0.0375
@<TRIPOS>BOND
     1   120   119    2
     2   119   118    1
     3   118   117    1
     4   118   121    1
     5   121   122    1
     6   127   124   ar
     7   127   129   ar
     8   122   124   ar
     9   122   123   ar
    10    20    21    1
    11   124   126   ar
    12   129   130   ar
    13   123   125   ar
    14    24    21    1
    15    24    25    1
    16    21    22    1
    17   116   115    2
    18   126   125   ar
    19   126   128   ar
    20   130   128   ar
    21   115   114    1
    22    22    23    2
    23    25    26    1
    24    27    26    2
    25    60    58   am
    26   131   132    1
    27   113   114    1
    28    26    28   am
    29   135   132    1
    30   135   136    1
    31    36    34    1
    32   138   136   am
    33    34    33    1
    34    58    57    1
    35    58    59    2
    36    56    57    1
    37    56    53    1
    38   132   133    1
    39    52    53    1
    40   136   137    2
    41    29    30    1
    42    53    54    1
    43   105   104    2
    44    33    30    1
    45    33    35    1
    46   133   134    2
    47    30    31    1
    48     8    10   ar
    49     8     6   ar
    50     5     6    1
    51     5     2    1
    52   104   103    1
    53    10    11   ar
    54    54    61   am
    55    54    55    2
    56    42    41    1
    57     6     7   ar
    58     1     2    1
    59    37    31   am
    60    37    38    1
    61    43    41    1
    62    31    32    2
    63    61    62    1
    64   112   111   ar
    65   112   110   ar
    66   103   102    1
    67   103   106    1
    68   111   109   ar
    69   110   108   ar
    70     2     3    1
    71    11     9   ar
    72    68    67    2
    73     7     9   ar
    74    41    38    1
    75    66    67    1
    76    66    65    1
    77   109   107   ar
    78   108   107   ar
    79   107   106    1
    80    38    39    1
    81    97    96    2
    82    67    69   am
    83     3     4    2
    84    65    62    1
    85    62    63    1
    86    39    40    2
    87   144   143    1
    88    96    95    1
    89    63    64    2
    90   139   140    1
    91   100    99    2
    92    18    17    1
    93   143   140    1
    94   143   145    1
    95   101    99   am
    96    99    98    1
    97    76    74    1
    98   140   141    1
    99    95    98    1
   100    95    94    1
   101    51    49    1
   102    44    45    1
   103    74    75    1
   104    74    71    1
   105    17    19    1
   106    17    16    1
   107    75    77    1
   108    49    48    1
   109    84    83    2
   110   141   142    2
   111    48    45    1
   112    48    50    1
   113    16    13    1
   114    45    46    1
   115    70    71    1
   116    71    72    1
   117    83    85   am
   118    83    82    1
   119    12    13    1
   120    46    47    2
   121    13    14    1
   122    72    78   am
   123    72    73    2
   124    78    79    1
   125    82    79    1
   126    92    93    1
   127    92    91    1
   128    79    80    1
   129    14    15    2
   130    91    90    1
   131    80    81    2
   132    90    87    1
   133    86    87    1
   134    87    88    1
   135    88    89    2
