@<TRIPOS>MOLECULE
tmp/6h7dA05.pdb
 123 111 0 0 0
SMALL
GASTEIGER

@<TRIPOS>ATOM
      1  N        -35.2040  -11.6470  -20.4280 N.3     6  ILE6       -0.1245
      2  CA       -35.3950  -11.1110  -19.0850 C.3     6  ILE6        0.1561
      3  C        -35.3210  -12.2310  -18.0540 C.2     6  ILE6        0.2260
      4  O        -34.5360  -12.1750  -17.1000 O.2     6  ILE6       -0.2867
      5  CB       -36.7300  -10.3590  -18.9940 C.3     6  ILE6        0.0252
      6  CG1      -36.6720   -9.0700  -19.8190 C.3     6  ILE6        0.0019
      7  CG2      -37.0710  -10.1150  -17.5360 C.3     6  ILE6        0.0019
      8  CD1      -35.6280   -8.0870  -19.3770 C.3     6  ILE6        0.0001
      9  N        -31.9010  -13.6900  -17.3410 N.3     9  CYS9       -0.1221
     10  CA       -30.9560  -12.9010  -16.5600 C.3     9  CYS9        0.1808
     11  C        -31.3590  -12.8350  -15.0880 C.2     9  CYS9        0.2601
     12  O        -30.4970  -12.8970  -14.2000 O.2     9  CYS9       -0.2717
     13  CB       -30.8220  -11.5090  -17.1770 C.3     9  CYS9        0.0970
     14  SG       -29.9430  -11.5510  -18.7710 S.3     9  CYS9       -0.0800
     15  N        -32.6580  -12.7280  -14.8070 N.am   10  ILE10      -0.1979
     16  CA       -33.1580  -12.8760  -13.4380 C.3    10  ILE10       0.1595
     17  C        -32.6520  -14.1750  -12.8070 C.2    10  ILE10       0.2287
     18  O        -32.0910  -14.1720  -11.7030 O.2    10  ILE10      -0.2864
     19  CB       -34.6930  -12.8090  -13.4400 C.3    10  ILE10       0.0276
     20  CG1      -35.1380  -11.3470  -13.4270 C.3    10  ILE10       0.0022
     21  CG2      -35.2800  -13.6080  -12.2800 C.3    10  ILE10       0.0022
     22  CD1      -36.5860  -11.1610  -13.7710 C.3    10  ILE10       0.0001
     23  N        -28.8710  -14.0120  -12.2450 N.3    13  ALA13      -0.1231
     24  CA       -28.5080  -13.0880  -11.1760 C.3    13  ALA13       0.1694
     25  C        -28.6680  -13.7080   -9.7900 C.2    13  ALA13       0.2591
     26  O        -28.0120  -13.2700   -8.8350 O.2    13  ALA13      -0.2718
     27  CB       -29.3620  -11.8290  -11.2850 C.3    13  ALA13       0.0304
     28  N        -29.5120  -14.7270   -9.6580 N.am   14  MET14      -0.1979
     29  CA       -29.6380  -15.3910   -8.3740 C.3    14  MET14       0.1605
     30  C        -28.3270  -15.9560   -7.8540 C.2    14  MET14       0.2287
     31  O        -28.2650  -16.2900   -6.6750 O.2    14  MET14      -0.2864
     32  CB       -30.6670  -16.4960   -8.4650 C.3    14  MET14       0.0413
     33  CG       -32.0350  -15.9940   -8.1640 C.3    14  MET14       0.0598
     34  SD       -33.2370  -17.0390   -8.9720 S.3    14  MET14      -0.1393
     35  CE       -34.7080  -16.0270   -8.7620 C.3    14  MET14       0.0692
     36  N        -26.9730  -14.2660   -4.6750 N.3    17  LEU17      -0.1245
     37  CA       -27.4280  -14.6570   -3.3390 C.3    17  LEU17       0.1561
     38  C        -26.3760  -15.4570   -2.5770 C.2    17  LEU17       0.2260
     39  O        -26.3000  -15.3720   -1.3470 O.2    17  LEU17      -0.2867
     40  CB       -28.7060  -15.4760   -3.4340 C.3    17  LEU17       0.0270
     41  CG       -29.9040  -14.7740   -4.0280 C.3    17  LEU17       0.0019
     42  CD1      -31.0180  -15.7920   -4.2350 C.3    17  LEU17       0.0001
     43  CD2      -30.3350  -13.6350   -3.1020 C.3    17  LEU17       0.0001
     44  N        -30.1660   -2.3060  -22.2300 N.3   148  ILE148     -0.1245
     45  CA       -30.4580   -2.4580  -20.8130 C.3   148  ILE148      0.1561
     46  C        -29.4400   -3.3600  -20.1290 C.2   148  ILE148      0.2260
     47  O        -29.7340   -3.9690  -19.0910 O.2   148  ILE148     -0.2867
     48  CB       -31.8870   -2.9890  -20.6090 C.3   148  ILE148      0.0252
     49  CG1      -32.0340   -4.3820  -21.1990 C.3   148  ILE148      0.0019
     50  CG2      -32.8840   -2.0530  -21.2670 C.3   148  ILE148      0.0019
     51  CD1      -33.4580   -4.8860  -21.1830 C.3   148  ILE148      0.0001
     52  N        -28.9110   -2.4840  -16.3530 N.3   151  ALA151     -0.1231
     53  CA       -30.0320   -2.8600  -15.4960 C.3   151  ALA151      0.1694
     54  C        -30.0400   -4.3600  -15.2020 C.2   151  ALA151      0.2591
     55  O        -30.1990   -4.7810  -14.0470 O.2   151  ALA151     -0.2718
     56  CB       -31.3460   -2.4520  -16.1580 C.3   151  ALA151      0.0304
     57  N        -29.8990   -5.1870  -16.2460 N.am  152  LEU152     -0.1980
     58  CA       -29.9400   -6.6350  -16.0610 C.3   152  LEU152      0.1596
     59  C        -28.6500   -7.1540  -15.4550 C.2   152  LEU152      0.2287
     60  O        -28.6580   -8.1960  -14.7950 O.2   152  LEU152     -0.2864
     61  CB       -30.2310   -7.3280  -17.3870 C.3   152  LEU152      0.0297
     62  CG       -31.5920   -6.9750  -18.0030 C.3   152  LEU152      0.0022
     63  CD1      -31.7400   -7.5060  -19.4340 C.3   152  LEU152      0.0001
     64  CD2      -32.6860   -7.5160  -17.1260 C.3   152  LEU152      0.0001
     65  N        -28.8830   -6.7540  -11.3960 N.3   155  GLY155     -0.1225
     66  CA       -29.6120   -7.8180  -10.7280 C.3   155  GLY155      0.1811
     67  C        -28.7290   -8.8020   -9.9830 C.2   155  GLY155      0.2280
     68  O        -29.1380   -9.3510   -8.9550 O.2   155  GLY155     -0.2866
     69  N        -28.2160   -6.7290   -6.9000 N.3   158  MET158     -0.1230
     70  CA       -29.5030   -6.7670   -6.2160 C.3   158  MET158      0.1702
     71  C        -29.6440   -8.0610   -5.4230 C.2   158  MET158      0.2592
     72  O        -29.9960   -8.0490   -4.2370 O.2   158  MET158     -0.2718
     73  CB       -30.6360   -6.6340   -7.2390 C.3   158  MET158      0.0401
     74  CG       -32.0090   -6.6470   -6.6210 C.3   158  MET158      0.0596
     75  SD       -32.0800   -5.6310   -5.1130 S.3   158  MET158     -0.1393
     76  CE       -33.2420   -4.3760   -5.6090 C.3   158  MET158      0.0692
     77  N        -29.3270   -9.1880   -6.0760 N.am  159  ALA159     -0.1980
     78  CA       -29.3240  -10.4930   -5.4250 C.3   159  ALA159      0.1597
     79  C        -28.3360  -10.5380   -4.2690 C.2   159  ALA159      0.2287
     80  O        -28.6570  -11.0620   -3.1940 O.2   159  ALA159     -0.2864
     81  CB       -28.9950  -11.5920   -6.4400 C.3   159  ALA159      0.0319
     82  N        -29.9550   -8.8530   -1.4900 N.3   162  ILE162     -0.1245
     83  CA       -31.0410   -9.6640   -0.9400 C.3   162  ILE162      0.1561
     84  C        -30.4880  -10.7740   -0.0540 C.2   162  ILE162      0.2260
     85  O        -31.0220  -11.0530    1.0320 O.2   162  ILE162     -0.2867
     86  CB       -31.9190  -10.2370   -2.0580 C.3   162  ILE162      0.0252
     87  CG1      -32.7760   -9.1320   -2.6600 C.3   162  ILE162      0.0019
     88  CG2      -32.8090  -11.3170   -1.4780 C.3   162  ILE162      0.0019
     89  CD1      -32.9630   -9.2520   -4.1560 C.3   162  ILE162      0.0001
     90  N        -31.6110  -11.1210    3.7940 N.3   166  VAL166     -0.1245
     91  CA       -32.2650  -12.3500    4.2420 C.3   166  VAL166      0.1561
     92  C        -31.4420  -13.0430    5.3220 C.2   166  VAL166      0.2260
     93  O        -31.9880  -13.5070    6.3310 O.2   166  VAL166     -0.2867
     94  CB       -32.5320  -13.2840    3.0460 C.3   166  VAL166      0.0252
     95  CG1      -32.5610  -14.7150    3.4900 C.3   166  VAL166      0.0019
     96  CG2      -33.8470  -12.9380    2.4030 C.3   166  VAL166      0.0019
     97  N        -32.0010  -11.3820    8.6820 N.3   169  LEU169     -0.1245
     98  CA       -33.2850  -11.7820    9.2400 C.3   169  LEU169      0.1561
     99  C        -33.2380  -13.2100    9.7710 C.2   169  LEU169      0.2260
    100  O        -33.7870  -13.4940   10.8400 O.2   169  LEU169     -0.2867
    101  CB       -34.3720  -11.6480    8.1800 C.3   169  LEU169      0.0270
    102  CG       -34.6430  -10.2490    7.6550 C.3   169  LEU169      0.0019
    103  CD1      -35.5670  -10.3590    6.4840 C.3   169  LEU169      0.0001
    104  CD2      -35.2500   -9.3700    8.7370 C.3   169  LEU169      0.0001
    105  N        -32.1690   -0.2030   -6.2050 N.3   317  PHE317     -0.1241
    106  CA       -33.1230    0.1290   -7.2640 C.3   317  PHE317      0.1605
    107  C        -32.7230    1.4020   -7.9880 C.2   317  PHE317      0.2264
    108  O        -32.9430    1.5170   -9.1990 O.2   317  PHE317     -0.2867
    109  CB       -34.5410    0.2770   -6.7080 C.3   317  PHE317      0.0534
    110  CG       -35.2100   -1.0290   -6.3980 C.ar  317  PHE317     -0.0203
    111  CD1      -35.5490   -1.9050   -7.4120 C.ar  317  PHE317     -0.0042
    112  CD2      -35.5010   -1.3830   -5.0880 C.ar  317  PHE317     -0.0042
    113  CE1      -36.1610   -3.1260   -7.1250 C.ar  317  PHE317     -0.0003
    114  CE2      -36.1110   -2.5990   -4.7950 C.ar  317  PHE317     -0.0003
    115  CZ       -36.4440   -3.4690   -5.8180 C.ar  317  PHE317     -0.0000
    116  N        -30.4080    0.7170  -10.7100 N.3   320  ILE320     -0.1245
    117  CA       -31.0420   -0.0790  -11.7620 C.3   320  ILE320      0.1561
    118  C        -31.8070    0.8210  -12.7240 C.2   320  ILE320      0.2260
    119  O        -31.7640    0.6300  -13.9480 O.2   320  ILE320     -0.2867
    120  CB       -31.9460   -1.1610  -11.1350 C.3   320  ILE320      0.0252
    121  CG1      -31.1480   -2.4340  -10.8580 C.3   320  ILE320      0.0019
    122  CG2      -33.1240   -1.4940  -12.0200 C.3   320  ILE320      0.0019
    123  CD1      -31.9640   -3.5130  -10.2180 C.3   320  ILE320      0.0001
@<TRIPOS>BOND
     1    44    45    1
     2    50    48    1
     3    49    51    1
     4    49    48    1
     5    45    48    1
     6    45    46    1
     7     1     2    1
     8    46    47    2
     9     6     8    1
    10     6     5    1
    11    63    62    1
    12     2     5    1
    13     2     3    1
    14     5     7    1
    15    14    13    1
    16     3     4    2
    17    62    61    1
    18    62    64    1
    19    61    58    1
    20     9    10    1
    21    13    10    1
    22    10    11    1
    23    52    53    1
    24    57    58    1
    25    57    54   am
    26    56    53    1
    27    58    59    1
    28    53    54    1
    29    59    60    2
    30    54    55    2
    31    11    15   am
    32    11    12    2
    33    15    16    1
    34   119   118    2
    35    22    20    1
    36    19    16    1
    37    19    20    1
    38    19    21    1
    39    16    17    1
    40    17    18    2
    41   118   117    1
    42    23    24    1
    43   122   120    1
    44   117   120    1
    45   117   116    1
    46    65    66    1
    47    27    24    1
    48    24    25    1
    49   120   121    1
    50   121   123    1
    51    66    67    1
    52    67    68    2
    53    25    28   am
    54    25    26    2
    55    28    29    1
    56   108   107    2
    57    34    35    1
    58    34    33    1
    59    32    29    1
    60    32    33    1
    61    29    30    1
    62   107   106    1
    63    30    31    2
    64   111   113   ar
    65   111   110   ar
    66   106   109    1
    67   106   105    1
    68    73    74    1
    69    73    70    1
    70   113   115   ar
    71    69    70    1
    72   109   110    1
    73    74    75    1
    74    81    78    1
    75   110   112   ar
    76    70    71    1
    77    77    78    1
    78    77    71   am
    79   115   114   ar
    80    76    75    1
    81    78    79    1
    82    71    72    2
    83   112   114   ar
    84    36    37    1
    85    79    80    2
    86    42    41    1
    87    89    87    1
    88    41    40    1
    89    41    43    1
    90    40    37    1
    91    37    38    1
    92    87    86    1
    93    38    39    2
    94    86    88    1
    95    86    83    1
    96    82    83    1
    97    83    84    1
    98    84    85    2
    99    96    94    1
   100    94    95    1
   101    94    91    1
   102    90    91    1
   103    91    92    1
   104    92    93    2
   105   103   102    1
   106   102   101    1
   107   102   104    1
   108   101    98    1
   109    97    98    1
   110    98    99    1
   111    99   100    2
