@<TRIPOS>MOLECULE
tmp/6h7dA04.pdb
 119 113 0 0 0
SMALL
GASTEIGER

@<TRIPOS>ATOM
      1  N        -32.1210    2.3560   -7.2630 N.3   318  VAL318     -0.1245
      2  CA       -31.7000    3.6230   -7.8600 C.3   318  VAL318      0.1561
      3  C        -30.7430    3.3650   -9.0150 C.2   318  VAL318      0.2260
      4  O        -30.9320    3.8690  -10.1280 O.2   318  VAL318     -0.2867
      5  CB       -31.0600    4.5360   -6.7950 C.3   318  VAL318      0.0252
      6  CG1      -30.3640    5.7330   -7.4340 C.3   318  VAL318      0.0019
      7  CG2      -32.0940    4.9770   -5.7580 C.3   318  VAL318      0.0019
      8  N        -23.6520    7.7560  -11.4890 N.3   331  LEU331     -0.1245
      9  CA       -23.7230    6.9990  -10.2470 C.3   331  LEU331      0.1561
     10  C        -22.3830    6.9930   -9.5180 C.2   331  LEU331      0.2260
     11  O        -22.3380    7.1150   -8.2880 O.2   331  LEU331     -0.2867
     12  CB       -24.2100    5.5850  -10.5570 C.3   331  LEU331      0.0270
     13  CG       -25.6500    5.6490  -11.1000 C.3   331  LEU331      0.0019
     14  CD1      -26.2110    4.2770  -11.4740 C.3   331  LEU331      0.0001
     15  CD2      -26.5920    6.3930  -10.1150 C.3   331  LEU331      0.0001
     16  N        -21.9840   10.9700   -8.0730 N.3   334  GLU334     -0.1245
     17  CA       -22.9470   11.2200   -7.0070 C.3   334  GLU334      0.1567
     18  C        -22.7300   10.2680   -5.8320 C.2   334  GLU334      0.2260
     19  O        -22.7100   10.6960   -4.6670 O.2   334  GLU334     -0.2867
     20  CB       -24.3730   11.0950   -7.5500 C.3   334  GLU334      0.0388
     21  CG       -25.4790   11.6600   -6.6320 C.3   334  GLU334      0.1160
     22  CD       -25.5730   10.9760   -5.2660 C.2   334  GLU334      0.3649
     23  OE1      -25.7580    9.7320   -5.2100 O.co2 334  GLU334     -0.2457
     24  OE2      -25.4450   11.6920   -4.2510 O.co2 334  GLU334     -0.2457
     25  N        -21.8570   11.7320   -2.0800 N.3   338  GLN338     -0.1245
     26  CA       -22.6910   11.2970   -0.9690 C.3   338  GLN338      0.1566
     27  C        -21.8990   10.4980    0.0560 C.2   338  GLN338      0.2260
     28  O        -21.9620   10.7820    1.2550 O.2   338  GLN338     -0.2867
     29  CB       -23.8440   10.4660   -1.5070 C.3   338  GLN338      0.0367
     30  CG       -24.8410   10.0900   -0.4660 C.3   338  GLN338      0.0905
     31  CD       -26.1770    9.7730   -1.0970 C.2   338  GLN338      0.2608
     32  OE1      -26.5600   10.3980   -2.1080 O.2   338  GLN338     -0.2717
     33  NE2      -26.8910    8.7750   -0.5330 N.am  338  GLN338     -0.0878
     34  N        -19.4890   12.6320    1.9850 N.3   341  ILE341     -0.1231
     35  CA       -20.0610   13.5910    2.9230 C.3   341  ILE341      0.1692
     36  C        -20.5580   12.8910    4.1800 C.2   341  ILE341      0.2592
     37  O        -20.3440   13.3730    5.2960 O.2   341  ILE341     -0.2718
     38  CB       -21.1710   14.3970    2.2300 C.3   341  ILE341      0.0266
     39  CG1      -20.5540   15.3840    1.2340 C.3   341  ILE341      0.0019
     40  CG2      -22.0130   15.1450    3.2500 C.3   341  ILE341      0.0020
     41  CD1      -21.5610   15.9200    0.2550 C.3   341  ILE341      0.0001
     42  N        -21.2090   11.7430    4.0340 N.am  342  CYS342     -0.1970
     43  CA       -21.6310   11.0070    5.2170 C.3   342  CYS342      0.1712
     44  C        -20.4370   10.5840    6.0620 C.2   342  CYS342      0.2296
     45  O        -20.5010   10.6010    7.2930 O.2   342  CYS342     -0.2864
     46  CB       -22.4600    9.8120    4.7980 C.3   342  CYS342      0.0983
     47  SG       -23.9440   10.3890    3.9570 S.3   342  CYS342     -0.0798
     48  N        -19.5180   13.5850    7.9850 N.3   345  LEU345     -0.1245
     49  CA       -20.5750   13.8710    8.9450 C.3   345  LEU345      0.1561
     50  C        -20.4800   12.9540   10.1570 C.2   345  LEU345      0.2260
     51  O        -20.5630   13.4080   11.3070 O.2   345  LEU345     -0.2867
     52  CB       -21.9390   13.7180    8.2720 C.3   345  LEU345      0.0270
     53  CG       -22.3940   14.8290    7.3300 C.3   345  LEU345      0.0019
     54  CD1      -23.8980   14.7410    7.1520 C.3   345  LEU345      0.0001
     55  CD2      -21.9820   16.2010    7.8530 C.3   345  LEU345      0.0001
     56  N        -30.3260    8.6680   21.3710 N.3   365  ALA365     -0.1245
     57  CA       -30.5470    9.5360   20.2180 C.3   365  ALA365      0.1562
     58  C        -29.2670    9.7370   19.4170 C.2   365  ALA365      0.2260
     59  O        -29.3110    9.8200   18.1840 O.2   365  ALA365     -0.2867
     60  CB       -31.1160   10.8800   20.6690 C.3   365  ALA365      0.0290
     61  N        -28.7970    6.6690   17.1850 N.3   368  ASP368     -0.1225
     62  CA       -29.6430    6.5840   15.9990 C.3   368  ASP368      0.1805
     63  C        -29.1910    7.5310   14.8950 C.2   368  ASP368      0.2597
     64  O        -29.4280    7.2560   13.7140 O.2   368  ASP368     -0.2718
     65  CB       -31.0950    6.8560   16.3760 C.3   368  ASP368      0.1424
     66  CG       -31.6730    5.7500   17.2160 C.2   368  ASP368      0.3668
     67  OD1      -31.0430    4.6700   17.2550 O.co2 368  ASP368     -0.2456
     68  OD2      -32.7350    5.9490   17.8320 O.co2 368  ASP368     -0.2456
     69  N        -28.5400    8.6400   15.2470 N.am  369  TRP369     -0.1976
     70  CA       -28.0850    9.5590   14.2150 C.3   369  TRP369      0.1640
     71  C        -26.8370    9.0360   13.5310 C.2   369  TRP369      0.2290
     72  O        -26.6350    9.3010   12.3410 O.2   369  TRP369     -0.2864
     73  CB       -27.8540   10.9620   14.7970 C.3   369  TRP369      0.0576
     74  CG       -29.0560   11.8340   14.6310 C.ar  369  TRP369      0.0006
     75  CD1      -29.9450   12.2030   15.5970 C.ar  369  TRP369      0.0946
     76  CD2      -29.5290   12.4180   13.4100 C.ar  369  TRP369      0.0152
     77  NE1      -30.9330   12.9990   15.0560 N.ar  369  TRP369     -0.2442
     78  CE2      -30.7040   13.1300   13.7130 C.ar  369  TRP369      0.0810
     79  CE3      -29.0710   12.4060   12.0890 C.ar  369  TRP369      0.0012
     80  CZ2      -31.4130   13.8260   12.7510 C.ar  369  TRP369      0.0191
     81  CZ3      -29.7880   13.0800   11.1390 C.ar  369  TRP369      0.0001
     82  CH2      -30.9410   13.7850   11.4710 C.ar  369  TRP369      0.0015
     83  N        -28.3100    6.5690   11.0610 N.3   372  ALA372     -0.1231
     84  CA       -28.8680    7.2710    9.9060 C.3   372  ALA372      0.1694
     85  C        -27.7660    7.7540    8.9720 C.2   372  ALA372      0.2592
     86  O        -27.8950    7.6590    7.7440 O.2   372  ALA372     -0.2718
     87  CB       -29.7380    8.4490   10.3610 C.3   372  ALA372      0.0304
     88  N        -26.6670    8.2600    9.5360 N.am  373  PHE373     -0.1976
     89  CA       -25.5690    8.7440    8.7080 C.3   373  PHE373      0.1639
     90  C        -24.8910    7.5950    7.9700 C.2   373  PHE373      0.2290
     91  O        -24.5360    7.7330    6.7860 O.2   373  PHE373     -0.2864
     92  CB       -24.5570    9.5240    9.5560 C.3   373  PHE373      0.0560
     93  CG       -25.0120   10.9210    9.9200 C.ar  373  PHE373     -0.0200
     94  CD1      -25.7180   11.6880    9.0140 C.ar  373  PHE373     -0.0042
     95  CD2      -24.7340   11.4560   11.1780 C.ar  373  PHE373     -0.0042
     96  CE1      -26.1400   12.9650    9.3460 C.ar  373  PHE373     -0.0003
     97  CE2      -25.1520   12.7390   11.5220 C.ar  373  PHE373     -0.0003
     98  CZ       -25.8580   13.4940   10.6060 C.ar  373  PHE373     -0.0000
     99  N        -27.1330    6.4670    5.0420 N.3   376  VAL376     -0.1245
    100  CA       -27.0540    7.2630    3.8310 C.3   376  VAL376      0.1561
    101  C        -25.7520    6.9700    3.0910 C.2   376  VAL376      0.2260
    102  O        -25.7170    6.9560    1.8570 O.2   376  VAL376     -0.2867
    103  CB       -27.2290    8.7390    4.2090 C.3   376  VAL376      0.0252
    104  CG1      -27.1430    9.6290    2.9940 C.3   376  VAL376      0.0019
    105  CG2      -28.5540    8.8930    4.8520 C.3   376  VAL376      0.0019
    106  N        -25.8380    2.3550   -4.7320 N.3   383  TRP383     -0.1241
    107  CA       -26.1510    2.6470   -6.1260 C.3   383  TRP383      0.1605
    108  C        -24.9530    3.1690   -6.9080 C.2   383  TRP383      0.2264
    109  O        -25.1220    3.5750   -8.0530 O.2   383  TRP383     -0.2867
    110  CB       -27.3530    3.5920   -6.2620 C.3   383  TRP383      0.0550
    111  CG       -27.2640    4.9300   -5.5880 C.ar  383  TRP383      0.0003
    112  CD1      -26.3620    5.9340   -5.8440 C.ar  383  TRP383      0.0946
    113  CD2      -28.1470    5.4340   -4.5750 C.ar  383  TRP383      0.0152
    114  NE1      -26.6180    7.0150   -5.0310 N.ar  383  TRP383     -0.2442
    115  CE2      -27.7080    6.7340   -4.2460 C.ar  383  TRP383      0.0810
    116  CE3      -29.2510    4.9030   -3.8990 C.ar  383  TRP383      0.0012
    117  CZ2      -28.3410    7.5080   -3.2790 C.ar  383  TRP383      0.0191
    118  CZ3      -29.8780    5.6710   -2.9530 C.ar  383  TRP383      0.0001
    119  CH2      -29.4220    6.9610   -2.6460 C.ar  383  TRP383      0.0015
@<TRIPOS>BOND
     1     8     9    1
     2    14    13    1
     3    13    12    1
     4    13    15    1
     5    12     9    1
     6     9    10    1
     7     4     3    2
     8    10    11    2
     9     3     2    1
    10    16    17    1
    11   109   108    2
    12     2     1    1
    13     2     5    1
    14    20    17    1
    15    20    21    1
    16     6     5    1
    17    17    18    1
    18   108   107    1
    19     5     7    1
    20    21    22    1
    21   110   107    1
    22   110   111    1
    23   107   106    1
    24   112   111   ar
    25   112   114   ar
    26    18    19    2
    27   111   113   ar
    28    22    23   ar
    29    22    24   ar
    30   114   115   ar
    31   113   115   ar
    32   113   116   ar
    33   115   117   ar
    34   116   118   ar
    35   117   119   ar
    36   118   119   ar
    37    32    31    2
    38    25    26    1
    39    29    26    1
    40    29    30    1
    41    31    33   am
    42    31    30    1
    43    26    27    1
    44    27    28    2
    45    41    39    1
    46    39    38    1
    47   102   101    2
    48    34    35    1
    49    38    35    1
    50    38    40    1
    51    35    36    1
    52   104   103    1
    53   101   100    1
    54   100   103    1
    55   100    99    1
    56    47    46    1
    57    42    36   am
    58    42    43    1
    59    36    37    2
    60   103   105    1
    61    46    43    1
    62    43    44    1
    63    44    45    2
    64    91    90    2
    65    54    53    1
    66    53    55    1
    67    53    52    1
    68    86    85    2
    69    90    89    1
    70    48    49    1
    71    52    49    1
    72    89    88    1
    73    89    92    1
    74    49    50    1
    75    85    88   am
    76    85    84    1
    77    94    96   ar
    78    94    93   ar
    79    96    98   ar
    80    92    93    1
    81    84    87    1
    82    84    83    1
    83    93    95   ar
    84    50    51    2
    85    98    97   ar
    86    81    82   ar
    87    81    79   ar
    88    95    97   ar
    89    82    80   ar
    90    79    76   ar
    91    72    71    2
    92    80    78   ar
    93    76    78   ar
    94    76    74   ar
    95    71    70    1
    96    78    77   ar
    97    64    63    2
    98    70    73    1
    99    70    69    1
   100    74    73    1
   101    74    75   ar
   102    63    69   am
   103    63    62    1
   104    77    75   ar
   105    62    65    1
   106    62    61    1
   107    65    66    1
   108    66    67   ar
   109    66    68   ar
   110    59    58    2
   111    58    57    1
   112    57    60    1
   113    57    56    1
