@<TRIPOS>MOLECULE
tmp/6h7dA06.pdb
 123 115 0 0 0
SMALL
GASTEIGER

@<TRIPOS>ATOM
      1  N        -18.9660  -24.5980   20.8510 N.3    38  LYS38      -0.1245
      2  CA       -18.5600  -25.7860   20.0980 C.3    38  LYS38       0.1561
      3  C        -17.1770  -25.6090   19.4800 C.2    38  LYS38       0.2260
      4  O        -16.2580  -26.3850   19.7550 O.2    38  LYS38      -0.2867
      5  CB       -19.5920  -26.1170   19.0110 C.3    38  LYS38       0.0271
      6  CG       -20.0350  -27.5770   18.9820 C.3    38  LYS38       0.0035
      7  CD       -20.5230  -27.9790   17.5860 C.3    38  LYS38       0.0206
      8  CE       -20.8060  -29.4760   17.4270 C.3    38  LYS38       0.1093
      9  NZ       -19.6460  -30.3650   17.6680 N.3    38  LYS38      -0.1314
     10  N        -23.4190  -25.3450   -2.4290 N.3   103  LEU103     -0.1245
     11  CA       -24.2980  -26.3270   -1.8000 C.3   103  LEU103      0.1561
     12  C        -23.5160  -27.2910   -0.9120 C.2   103  LEU103      0.2260
     13  O        -23.8660  -27.4990    0.2550 O.2   103  LEU103     -0.2867
     14  CB       -25.0610  -27.0900   -2.8820 C.3   103  LEU103      0.0270
     15  CG       -25.9240  -28.2590   -2.4170 C.3   103  LEU103      0.0019
     16  CD1      -26.8060  -27.8520   -1.2480 C.3   103  LEU103      0.0001
     17  CD2      -26.7680  -28.7640   -3.5740 C.3   103  LEU103      0.0001
     18  N        -24.0230  -27.7290    3.4190 N.3   107  LEU107     -0.1245
     19  CA       -24.3760  -28.8820    4.2310 C.3   107  LEU107      0.1561
     20  C        -23.2170  -29.2900    5.1270 C.2   107  LEU107      0.2260
     21  O        -23.4350  -29.7180    6.2680 O.2   107  LEU107     -0.2867
     22  CB       -24.8330  -30.0280    3.3340 C.3   107  LEU107      0.0270
     23  CG       -26.1800  -29.7450    2.6640 C.3   107  LEU107      0.0019
     24  CD1      -26.2790  -30.5120    1.3850 C.3   107  LEU107      0.0001
     25  CD2      -27.3340  -30.1190    3.5540 C.3   107  LEU107      0.0001
     26  N        -23.6700  -26.7660    8.0230 N.3   110  ALA110     -0.1231
     27  CA       -24.8760  -27.0900    8.7810 C.3   110  ALA110      0.1694
     28  C        -24.7450  -28.3910    9.5580 C.2   110  ALA110      0.2592
     29  O        -25.3830  -28.5650   10.6060 O.2   110  ALA110     -0.2718
     30  CB       -26.0730  -27.1820    7.8430 C.3   110  ALA110      0.0304
     31  N        -23.9390  -29.3210    9.0690 N.am  111  PHE111     -0.1976
     32  CA       -23.8330  -30.6110    9.7220 C.3   111  PHE111      0.1639
     33  C        -22.4320  -30.8620   10.2590 C.2   111  PHE111      0.2290
     34  O        -22.0520  -32.0120   10.4890 O.2   111  PHE111     -0.2864
     35  CB       -24.2940  -31.6930    8.7530 C.3   111  PHE111      0.0560
     36  CG       -25.7810  -31.6780    8.5190 C.ar  111  PHE111     -0.0200
     37  CD1      -26.6540  -32.1240    9.4980 C.ar  111  PHE111     -0.0042
     38  CD2      -26.3080  -31.1900    7.3470 C.ar  111  PHE111     -0.0042
     39  CE1      -28.0260  -32.1070    9.2860 C.ar  111  PHE111     -0.0003
     40  CE2      -27.6680  -31.1630    7.1320 C.ar  111  PHE111     -0.0003
     41  CZ       -28.5290  -31.6210    8.0910 C.ar  111  PHE111     -0.0000
     42  N        -19.4970  -31.3460   12.8470 N.3   113  VAL113     -0.1245
     43  CA       -19.4420  -31.8940   14.1990 C.3   113  VAL113      0.1561
     44  C        -18.0530  -31.6770   14.7910 C.2   113  VAL113      0.2260
     45  O        -17.6920  -32.3080   15.7930 O.2   113  VAL113     -0.2867
     46  CB       -19.8280  -33.3910   14.2300 C.3   113  VAL113      0.0252
     47  CG1      -21.2740  -33.5810   13.8030 C.3   113  VAL113      0.0019
     48  CG2      -18.8790  -34.2180   13.3630 C.3   113  VAL113      0.0019
     49  N        -31.7040  -24.6840   20.7200 N.3   179  GLN179     -0.1231
     50  CA       -30.5180  -25.3850   20.2650 C.3   179  GLN179      0.1698
     51  C        -30.4560  -25.3580   18.7480 C.2   179  GLN179      0.2592
     52  O        -31.4720  -25.1900   18.0720 O.2   179  GLN179     -0.2718
     53  CB       -30.4890  -26.8310   20.7930 C.3   179  GLN179      0.0381
     54  CG       -29.1010  -27.4880   20.7500 C.3   179  GLN179      0.0905
     55  CD       -28.8090  -28.3960   21.9440 C.2   179  GLN179      0.2608
     56  OE1      -29.7230  -28.9320   22.5850 O.2   179  GLN179     -0.2717
     57  NE2      -27.5210  -28.5720   22.2430 N.am  179  GLN179     -0.0878
     58  N        -29.2310  -25.4770   18.2290 N.am  180  HIS180     -0.1976
     59  CA       -28.9270  -25.6980   16.8160 C.3   180  HIS180      0.1656
     60  C        -29.2320  -24.5010   15.9240 C.2   180  HIS180      0.2291
     61  O        -29.2930  -24.6600   14.7000 O.2   180  HIS180     -0.2864
     62  CB       -29.6500  -26.9380   16.2590 C.3   180  HIS180      0.0771
     63  CG       -29.6170  -28.1180   17.1730 C.ar  180  HIS180      0.0820
     64  ND1      -28.4490  -28.7670   17.5060 N.ar  180  HIS180     -0.2267
     65  CD2      -30.6110  -28.7740   17.8170 C.ar  180  HIS180      0.1154
     66  CE1      -28.7220  -29.7630   18.3340 C.ar  180  HIS180      0.1986
     67  NE2      -30.0270  -29.7850   18.5410 N.ar  180  HIS180     -0.2212
     68  N        -26.8260  -23.9710   13.1420 N.3   183  ARG183     -0.1231
     69  CA       -26.9300  -24.9640   12.0740 C.3   183  ARG183      0.1694
     70  C        -27.9490  -24.5360   11.0290 C.2   183  ARG183      0.2591
     71  O        -27.6880  -24.6510    9.8240 O.2   183  ARG183     -0.2718
     72  CB       -27.2960  -26.3430   12.6480 C.3   183  ARG183      0.0321
     73  CG       -26.2180  -26.9590   13.5180 C.3   183  ARG183      0.0489
     74  CD       -26.5770  -28.3850   13.9310 C.3   183  ARG183      0.2205
     75  NE       -25.5960  -28.9690   14.8450 N.pl3 183  ARG183     -0.0865
     76  CZ       -24.4210  -29.4880   14.4940 C.cat 183  ARG183      0.5346
     77  NH1      -24.0320  -29.5230   13.2130 N.pl3 183  ARG183      0.1354
     78  NH2      -23.6270  -29.9780   15.4370 N.pl3 183  ARG183      0.1354
     79  N        -29.1180  -24.0540   11.4730 N.am  184  VAL184     -0.1980
     80  CA       -30.1010  -23.4720   10.5590 C.3   184  VAL184      0.1595
     81  C        -29.4880  -22.3110    9.7760 C.2   184  VAL184      0.2287
     82  O        -29.6430  -22.2140    8.5520 O.2   184  VAL184     -0.2864
     83  CB       -31.3490  -23.0130   11.3320 C.3   184  VAL184      0.0276
     84  CG1      -32.4320  -22.5300   10.3810 C.3   184  VAL184      0.0022
     85  CG2      -31.8680  -24.1330   12.2100 C.3   184  VAL184      0.0022
     86  N        -27.1450  -23.7240    7.4270 N.3   187  GLY187     -0.1210
     87  CA       -27.8200  -24.6560    6.5370 C.3   187  GLY187      0.1956
     88  C        -28.7200  -24.0020    5.5100 C.2   187  GLY187      0.2611
     89  O        -28.8790  -24.5180    4.3980 O.2   187  GLY187     -0.2717
     90  N        -29.3310  -22.8720    5.8520 N.am  188  LEU188     -0.1979
     91  CA       -30.2020  -22.2850    4.8500 C.3   188  LEU188      0.1596
     92  C        -29.4200  -21.7040    3.6800 C.2   188  LEU188      0.2287
     93  O        -30.0200  -21.3840    2.6490 O.2   188  LEU188     -0.2864
     94  CB       -31.0990  -21.2380    5.4950 C.3   188  LEU188      0.0297
     95  CG       -32.1060  -21.8130    6.5050 C.3   188  LEU188      0.0022
     96  CD1      -32.7570  -20.6650    7.2320 C.3   188  LEU188      0.0001
     97  CD2      -33.1510  -22.6680    5.8150 C.3   188  LEU188      0.0001
     98  N        -28.0040  -23.4050    1.7330 N.3   190  ALA190     -0.1231
     99  CA       -28.1380  -24.4220    0.7040 C.3   190  ALA190      0.1694
    100  C        -29.3230  -24.1810   -0.2210 C.2   190  ALA190      0.2591
    101  O        -29.3120  -24.6820   -1.3480 O.2   190  ALA190     -0.2718
    102  CB       -28.2660  -25.8040    1.3520 C.3   190  ALA190      0.0304
    103  N        -30.3460  -23.4380    0.2100 N.am  191  VAL191     -0.1980
    104  CA       -31.4800  -23.1660   -0.6820 C.3   191  VAL191      0.1595
    105  C        -31.0690  -22.3550   -1.9070 C.2   191  VAL191      0.2287
    106  O        -31.5040  -22.6920   -3.0240 O.2   191  VAL191     -0.2864
    107  CB       -32.6230  -22.4840    0.0920 C.3   191  VAL191      0.0276
    108  CG1      -33.8350  -22.3820   -0.8110 C.3   191  VAL191      0.0022
    109  CG2      -32.9720  -23.2290    1.3500 C.3   191  VAL191      0.0022
    110  N        -29.0700  -24.7170   -4.4320 N.3   194  VAL194     -0.1231
    111  CA       -29.9430  -25.6100   -5.1960 C.3   194  VAL194      0.1692
    112  C        -30.6640  -24.8350   -6.2930 C.2   194  VAL194      0.2591
    113  O        -30.7820  -25.2930   -7.4360 O.2   194  VAL194     -0.2718
    114  CB       -30.9310  -26.3330   -4.2590 C.3   194  VAL194      0.0266
    115  CG1      -31.9010  -27.2250   -5.0560 C.3   194  VAL194      0.0020
    116  CG2      -30.1690  -27.1760   -3.2600 C.3   194  VAL194      0.0020
    117  N        -31.1330  -23.6360   -5.9660 N.am  195  VAL195     -0.1980
    118  CA       -31.8190  -22.8180   -6.9550 C.3   195  VAL195      0.1595
    119  C        -30.8750  -22.4590   -8.0900 C.2   195  VAL195      0.2287
    120  O        -31.2140  -22.6070   -9.2700 O.2   195  VAL195     -0.2864
    121  CB       -32.3980  -21.5680   -6.2870 C.3   195  VAL195      0.0276
    122  CG1      -32.8130  -20.5870   -7.3300 C.3   195  VAL195      0.0022
    123  CG2      -33.5750  -21.9740   -5.3970 C.3   195  VAL195      0.0022
@<TRIPOS>BOND
     1   120   119    2
     2   119   118    1
     3   113   112    2
     4   122   121    1
     5   118   121    1
     6   118   117    1
     7   112   117   am
     8   112   111    1
     9   121   123    1
    10   111   110    1
    11   111   114    1
    12   115   114    1
    13   114   116    1
    14    17    15    1
    15   106   105    2
    16    14    15    1
    17    14    11    1
    18    10    11    1
    19    15    16    1
    20   105   104    1
    21    11    12    1
    22   101   100    2
    23    12    13    2
    24   108   107    1
    25   104   107    1
    26   104   103    1
    27   100   103   am
    28   100    99    1
    29   107   109    1
    30    99   102    1
    31    99    98    1
    32    24    23    1
    33    93    92    2
    34    23    22    1
    35    23    25    1
    36    22    19    1
    37    18    19    1
    38    92    91    1
    39    19    20    1
    40    89    88    2
    41    91    94    1
    42    91    90    1
    43    20    21    2
    44    94    95    1
    45    88    90   am
    46    88    87    1
    47    97    95    1
    48    95    96    1
    49    87    86    1
    50    40    38   ar
    51    40    41   ar
    52    38    36   ar
    53    30    27    1
    54    26    27    1
    55    41    39   ar
    56    36    35    1
    57    36    37   ar
    58    82    81    2
    59    35    32    1
    60    27    28    1
    61    31    28   am
    62    31    32    1
    63    39    37   ar
    64    28    29    2
    65    32    33    1
    66    81    80    1
    67    71    70    2
    68    33    34    2
    69    84    83    1
    70    80    83    1
    71    80    79    1
    72    70    79   am
    73    70    69    1
    74    83    85    1
    75    69    72    1
    76    69    68    1
    77    72    73    1
    78    42    43    1
    79    77    76    1
    80    48    46    1
    81    73    74    1
    82    47    46    1
    83    74    75    1
    84    43    46    1
    85    43    44    1
    86    76    75    2
    87    76    78    1
    88    61    60    2
    89    44    45    2
    90    60    59    1
    91    62    59    1
    92    62    63    1
    93    59    58    1
    94    63    64   ar
    95    63    65   ar
    96     8     7    1
    97     8     9    1
    98    64    66   ar
    99     7     6    1
   100    65    67   ar
   101    52    51    2
   102    58    51   am
   103    66    67   ar
   104    51    50    1
   105     6     5    1
   106     5     2    1
   107     3     4    2
   108     3     2    1
   109     2     1    1
   110    50    49    1
   111    50    53    1
   112    54    53    1
   113    54    55    1
   114    55    57   am
   115    55    56    2
