@<TRIPOS>MOLECULE
tmp/6h7dA02.pdb
 132 124 0 0 0
SMALL
GASTEIGER

@<TRIPOS>ATOM
      1  N        -17.0020  -24.5840   18.6450 N.3    39  PHE39      -0.1227
      2  CA       -15.8820  -24.5770   17.7070 C.3    39  PHE39       0.1736
      3  C        -14.7080  -23.7030   18.1250 C.2    39  PHE39       0.2595
      4  O        -13.5860  -23.9320   17.6480 O.2    39  PHE39      -0.2718
      5  CB       -16.3630  -24.1280   16.3320 C.3    39  PHE39       0.0547
      6  CG       -17.4310  -25.0030   15.7520 C.ar   39  PHE39      -0.0202
      7  CD1      -17.1170  -26.2540   15.2440 C.ar   39  PHE39      -0.0042
      8  CD2      -18.7470  -24.5770   15.7050 C.ar   39  PHE39      -0.0042
      9  CE1      -18.0930  -27.0600   14.7020 C.ar   39  PHE39      -0.0003
     10  CE2      -19.7260  -25.3810   15.1590 C.ar   39  PHE39      -0.0003
     11  CZ       -19.3960  -26.6280   14.6570 C.ar   39  PHE39      -0.0000
     12  N        -14.9340  -22.7130   18.9820 N.am   40  PHE40      -0.1976
     13  CA       -13.8870  -21.7880   19.4130 C.3    40  PHE40       0.1639
     14  C        -14.1000  -21.4700   20.8780 C.2    40  PHE40       0.2290
     15  O        -14.4260  -20.3350   21.2410 O.2    40  PHE40      -0.2864
     16  CB       -13.9070  -20.5060   18.5820 C.3    40  PHE40       0.0560
     17  CG       -14.0270  -20.7350   17.1110 C.ar   40  PHE40      -0.0200
     18  CD1      -12.8940  -20.8900   16.3320 C.ar   40  PHE40      -0.0042
     19  CD2      -15.2690  -20.7640   16.5010 C.ar   40  PHE40      -0.0042
     20  CE1      -12.9970  -21.0810   14.9770 C.ar   40  PHE40      -0.0003
     21  CE2      -15.3800  -20.9550   15.1420 C.ar   40  PHE40      -0.0003
     22  CZ       -14.2410  -21.1180   14.3780 C.ar   40  PHE40      -0.0000
     23  N         -4.4040  -18.0860   14.3400 N.3    63  MET63      -0.1230
     24  CA        -5.1740  -19.1980   13.7920 C.3    63  MET63       0.1702
     25  C         -6.5930  -18.7760   13.4230 C.2    63  MET63       0.2592
     26  O         -7.2160  -19.3800   12.5440 O.2    63  MET63      -0.2718
     27  CB        -5.2060  -20.3540   14.7900 C.3    63  MET63       0.0401
     28  CG        -4.0310  -21.2990   14.6750 C.3    63  MET63       0.0596
     29  SD        -4.3240  -22.6560   13.5160 S.3    63  MET63      -0.1393
     30  CE        -4.5000  -24.0490   14.6490 C.3    63  MET63       0.0692
     31  N         -7.1290  -17.7520   14.0780 N.am   64  LEU64      -0.1980
     32  CA        -8.4710  -17.3140   13.7150 C.3    64  LEU64       0.1596
     33  C         -8.4690  -16.5890   12.3770 C.2    64  LEU64       0.2287
     34  O         -9.3720  -16.7900   11.5580 O.2    64  LEU64      -0.2864
     35  CB        -9.0450  -16.4450   14.8260 C.3    64  LEU64       0.0297
     36  CG        -9.0850  -17.2620   16.1200 C.3    64  LEU64       0.0022
     37  CD1       -9.7580  -16.5050   17.2440 C.3    64  LEU64       0.0001
     38  CD2       -9.7650  -18.6140   15.8720 C.3    64  LEU64       0.0001
     39  N         -6.4600  -17.2130    9.9380 N.3    66  LEU66      -0.1231
     40  CA        -6.4070  -18.3130    8.9830 C.3    66  LEU66       0.1693
     41  C         -7.8070  -18.7940    8.6160 C.2    66  LEU66       0.2592
     42  O         -8.1560  -18.8910    7.4330 O.2    66  LEU66      -0.2718
     43  CB        -5.5860  -19.4570    9.5660 C.3    66  LEU66       0.0284
     44  CG        -4.2040  -19.5790    8.9560 C.3    66  LEU66       0.0019
     45  CD1       -3.6110  -20.9290    9.2770 C.3    66  LEU66       0.0001
     46  CD2       -4.3390  -19.3900    7.4650 C.3    66  LEU66       0.0001
     47  N         -8.6310  -19.0850    9.6270 N.am   67  PHE67      -0.1976
     48  CA        -9.9620  -19.6200    9.3690 C.3    67  PHE67       0.1639
     49  C        -10.8040  -18.6280    8.5760 C.2    67  PHE67       0.2290
     50  O        -11.5370  -19.0220    7.6580 O.2    67  PHE67      -0.2864
     51  CB       -10.6440  -19.9910   10.6920 C.3    67  PHE67       0.0560
     52  CG       -12.0940  -20.3330   10.5440 C.ar   67  PHE67      -0.0200
     53  CD1      -12.4880  -21.6370   10.3260 C.ar   67  PHE67      -0.0042
     54  CD2      -13.0660  -19.3470   10.6130 C.ar   67  PHE67      -0.0042
     55  CE1      -13.8260  -21.9550   10.1780 C.ar   67  PHE67      -0.0003
     56  CE2      -14.4040  -19.6530   10.4620 C.ar   67  PHE67      -0.0003
     57  CZ       -14.7870  -20.9570   10.2450 C.ar   67  PHE67      -0.0000
     58  N         -9.6850  -16.1270    6.5230 N.3    69  SER69      -0.1202
     59  CA        -9.1510  -15.8770    5.1870 C.3    69  SER69       0.2020
     60  C         -9.4160  -17.0280    4.2310 C.2    69  SER69       0.2619
     61  O         -9.5390  -16.8020    3.0190 O.2    69  SER69      -0.2717
     62  CB        -7.6510  -15.6450    5.2650 C.3    69  SER69       0.2103
     63  OG        -7.0040  -16.8930    5.4300 O.3    69  SER69      -0.2182
     64  N         -9.4950  -18.2570    4.7570 N.am   70  SER70      -0.1951
     65  CA        -9.6210  -19.4520    3.9240 C.3    70  SER70       0.1924
     66  C        -10.7260  -19.3240    2.8800 C.2    70  SER70       0.2314
     67  O        -10.5790  -19.8050    1.7550 O.2    70  SER70      -0.2863
     68  CB        -9.8830  -20.6640    4.8090 C.3    70  SER70       0.2116
     69  OG       -11.2230  -20.6620    5.2630 O.3    70  SER70      -0.2180
     70  N         -9.3040  -16.9710    0.2640 N.3    73  LEU73      -0.1231
     71  CA        -8.2630  -17.6690   -0.4710 C.3    73  LEU73       0.1693
     72  C         -8.8680  -18.6440   -1.4670 C.2    73  LEU73       0.2591
     73  O         -8.4230  -18.7290   -2.6140 O.2    73  LEU73      -0.2718
     74  CB        -7.3340  -18.3980    0.4910 C.3    73  LEU73       0.0284
     75  CG        -5.9870  -17.7060    0.6420 C.3    73  LEU73       0.0019
     76  CD1       -5.2020  -17.8560   -0.6540 C.3    73  LEU73       0.0001
     77  CD2       -6.1830  -16.2450    1.0050 C.3    73  LEU73       0.0001
     78  N         -9.8900  -19.3810   -1.0460 N.am   74  ALA74      -0.1980
     79  CA       -10.5190  -20.3420   -1.9400 C.3    74  ALA74       0.1597
     80  C        -11.2110  -19.6390   -3.0980 C.2    74  ALA74       0.2287
     81  O        -11.1110  -20.0770   -4.2460 O.2    74  ALA74      -0.2864
     82  CB       -11.5120  -21.2060   -1.1630 C.3    74  ALA74       0.0319
     83  N         -8.7840  -18.2700   -5.5880 N.3    77  VAL77      -0.1231
     84  CA        -8.1420  -19.2960   -6.4010 C.3    77  VAL77       0.1692
     85  C         -9.1410  -19.9590   -7.3270 C.2    77  VAL77       0.2591
     86  O         -8.8180  -20.2870   -8.4710 O.2    77  VAL77      -0.2718
     87  CB        -7.4430  -20.3200   -5.5010 C.3    77  VAL77       0.0266
     88  CG1       -6.9420  -21.4720   -6.3380 C.3    77  VAL77       0.0020
     89  CG2       -6.2950  -19.6480   -4.7790 C.3    77  VAL77       0.0020
     90  N        -10.3610  -20.1830   -6.8520 N.am   78  ALA78      -0.1980
     91  CA       -11.4180  -20.6410   -7.7410 C.3    78  ALA78       0.1597
     92  C        -11.5970  -19.6980   -8.9270 C.2    78  ALA78       0.2287
     93  O        -11.7780  -20.1500  -10.0660 O.2    78  ALA78      -0.2864
     94  CB       -12.7290  -20.7720   -6.9720 C.3    78  ALA78       0.0319
     95  N         -9.3760  -20.4500  -11.7690 N.3    81  MET81      -0.1245
     96  CA        -9.8540  -21.6950  -12.3620 C.3    81  MET81       0.1570
     97  C        -11.0670  -21.4450  -13.2420 C.2    81  MET81       0.2261
     98  O        -11.1880  -22.0210  -14.3260 O.2    81  MET81      -0.2867
     99  CB       -10.2170  -22.7140  -11.2750 C.3    81  MET81       0.0387
    100  CG        -9.1270  -23.6950  -10.9190 C.3    81  MET81       0.0595
    101  SD        -9.2770  -24.2750   -9.2120 S.3    81  MET81      -0.1393
    102  CE       -10.8910  -25.0580   -9.2720 C.3    81  MET81       0.0692
    103  N        -14.2690  -28.7390   14.1200 N.3   115  VAL115     -0.1245
    104  CA       -13.7760  -27.5730   13.3910 C.3   115  VAL115      0.1561
    105  C        -13.2250  -27.9180   12.0100 C.2   115  VAL115      0.2260
    106  O        -13.0440  -27.0180   11.1830 O.2   115  VAL115     -0.2867
    107  CB       -12.7370  -26.8110   14.2480 C.3   115  VAL115      0.0252
    108  CG1      -11.3470  -27.4170   14.1000 C.3   115  VAL115      0.0019
    109  CG2      -12.7400  -25.3140   13.9030 C.3   115  VAL115      0.0019
    110  N        -14.0100  -25.7060    8.4560 N.3   119  ILE119     -0.1245
    111  CA       -13.0120  -25.3680    7.4420 C.3   119  ILE119      0.1561
    112  C        -13.4170  -25.9010    6.0690 C.2   119  ILE119      0.2260
    113  O        -13.4040  -25.1730    5.0670 O.2   119  ILE119     -0.2867
    114  CB       -11.6390  -25.9240    7.8600 C.3   119  ILE119      0.0252
    115  CG1      -11.1550  -25.2350    9.1390 C.3   119  ILE119      0.0019
    116  CG2      -10.6420  -25.8610    6.6880 C.3   119  ILE119      0.0019
    117  CD1      -10.2480  -26.0980    9.9420 C.3   119  ILE119      0.0001
    118  N        -13.9000  -23.6830    2.8920 N.3   123  LEU123     -0.1245
    119  CA       -13.1840  -23.7640    1.6240 C.3   123  LEU123      0.1561
    120  C        -14.1650  -23.9370    0.4820 C.2   123  LEU123      0.2260
    121  O        -14.0340  -23.2940   -0.5660 O.2   123  LEU123     -0.2867
    122  CB       -12.1650  -24.9120    1.6400 C.3   123  LEU123      0.0270
    123  CG       -10.9790  -24.6690    2.5860 C.3   123  LEU123      0.0019
    124  CD1      -10.1470  -25.9230    2.8600 C.3   123  LEU123      0.0001
    125  CD2      -10.1100  -23.5160    2.1080 C.3   123  LEU123      0.0001
    126  N        -14.9080  -21.5030   -3.0050 N.3   127  VAL127     -0.1245
    127  CA       -14.9260  -22.0370   -4.3630 C.3   127  VAL127      0.1561
    128  C        -16.2300  -21.6540   -5.0490 C.2   127  VAL127      0.2260
    129  O        -16.2410  -21.1560   -6.1790 O.2   127  VAL127     -0.2867
    130  CB       -14.7180  -23.5630   -4.3350 C.3   127  VAL127      0.0252
    131  CG1      -14.8480  -24.1320   -5.7080 C.3   127  VAL127      0.0019
    132  CG2      -13.3360  -23.9050   -3.7500 C.3   127  VAL127      0.0019
@<TRIPOS>BOND
     1    98    97    2
     2    97    96    1
     3    96    95    1
     4    96    99    1
     5    99   100    1
     6   100   101    1
     7    93    92    2
     8   102   101    1
     9    92    91    1
    10    86    85    2
    11    91    94    1
    12    91    90    1
    13    85    90   am
    14    85    84    1
    15    84    83    1
    16    84    87    1
    17    88    87    1
    18   129   128    2
    19   131   130    1
    20    87    89    1
    21   128   127    1
    22   127   130    1
    23   127   126    1
    24   130   132    1
    25    81    80    2
    26    80    79    1
    27    73    72    2
    28    79    82    1
    29    79    78    1
    30    72    78   am
    31    72    71    1
    32    76    75    1
    33   121   120    2
    34    71    70    1
    35    71    74    1
    36   120   119    1
    37    74    75    1
    38    75    77    1
    39   119   122    1
    40   119   118    1
    41   122   123    1
    42    67    66    2
    43   125   123    1
    44   123   124    1
    45    66    65    1
    46    61    60    2
    47    65    64    1
    48    65    68    1
    49    60    64   am
    50    60    59    1
    51    68    69    1
    52   113   112    2
    53    59    62    1
    54    59    58    1
    55    62    63    1
    56   112   111    1
    57   116   114    1
    58    42    41    2
    59   111   114    1
    60   111   110    1
    61    46    44    1
    62    50    49    2
    63   114   115    1
    64    49    48    1
    65    41    40    1
    66    41    47   am
    67    44    45    1
    68    44    43    1
    69    40    43    1
    70    40    39    1
    71   115   117    1
    72    48    47    1
    73    48    51    1
    74    55    57   ar
    75    55    53   ar
    76    57    56   ar
    77    53    52   ar
    78    56    54   ar
    79    52    54   ar
    80    52    51    1
    81   106   105    2
    82    34    33    2
    83   105   104    1
    84    33    32    1
    85    26    25    2
    86   104   103    1
    87   104   107    1
    88    25    24    1
    89    25    31   am
    90    29    30    1
    91    29    28    1
    92    32    31    1
    93    32    35    1
    94    24    23    1
    95    24    27    1
    96   109   107    1
    97   108   107    1
    98    22    20   ar
    99    22    21   ar
   100    11     9   ar
   101    11    10   ar
   102    28    27    1
   103     9     7   ar
   104    35    36    1
   105    20    18   ar
   106    21    19   ar
   107    10     8   ar
   108     7     6   ar
   109     8     6   ar
   110     6     5    1
   111    38    36    1
   112    36    37    1
   113    18    17   ar
   114     5     2    1
   115    19    17   ar
   116    17    16    1
   117     4     3    2
   118     2     3    1
   119     2     1    1
   120     3    12   am
   121    16    13    1
   122    12    13    1
   123    13    14    1
   124    14    15    2
