@<TRIPOS>MOLECULE
tmp/6h7fB06.pdb
 89 85 0 0 0
SMALL
GASTEIGER

@<TRIPOS>ATOM
      1  N        -58.8910   -6.0720   76.0020 N.3   390  LEU390     -0.1231
      2  CA       -57.7080   -6.7080   76.5150 C.3   390  LEU390      0.1693
      3  C        -57.3020   -7.8220   75.5580 C.2   390  LEU390      0.2592
      4  O        -58.1330   -8.6260   75.1190 O.2   390  LEU390     -0.2718
      5  CB       -58.0010   -7.2770   77.9070 C.3   390  LEU390      0.0284
      6  CG       -56.8370   -8.0200   78.5570 C.3   390  LEU390      0.0019
      7  CD1      -55.7540   -7.0390   78.9860 C.3   390  LEU390      0.0001
      8  CD2      -57.3150   -8.8500   79.7390 C.3   390  LEU390      0.0001
      9  N        -56.0100   -7.8850   75.2600 N.am  391  ALA391     -0.1966
     10  CA       -55.4790   -8.9720   74.4610 C.3   391  ALA391      0.1728
     11  C        -54.0530   -9.2820   74.9010 C.2   391  ALA391      0.2616
     12  O        -53.3230   -8.3960   75.3500 O.2   391  ALA391     -0.2715
     13  CB       -55.5360   -8.6090   73.0000 C.3   391  ALA391      0.0334
     14  N        -53.6730  -10.5470   74.7210 N.am  392  ASP392     -0.1971
     15  CA       -52.3240  -11.0190   74.9480 C.3   392  ASP392      0.1709
     16  C        -51.9110  -11.8620   73.7400 C.2   392  ASP392      0.2293
     17  O        -52.6920  -12.6790   73.2450 O.2   392  ASP392     -0.2864
     18  CB       -52.2330  -11.8200   76.2540 C.3   392  ASP392      0.1436
     19  CG       -50.8160  -12.2090   76.6780 C.2   392  ASP392      0.3671
     20  OD1      -49.8490  -11.5320   76.2270 O.co2 392  ASP392     -0.2456
     21  OD2      -50.6850  -13.1840   77.4640 O.co2 392  ASP392     -0.2456
     22  N        -55.0810  -13.9140   72.0260 N.3   405  LEU405     -0.1231
     23  CA       -56.3790  -14.0760   72.6860 C.3   405  LEU405      0.1693
     24  C        -56.7950  -12.7100   73.2100 C.2   405  LEU405      0.2593
     25  O        -55.9530  -11.9780   73.7330 O.2   405  LEU405     -0.2718
     26  CB       -56.2490  -15.0170   73.8850 C.3   405  LEU405      0.0284
     27  CG       -55.8340  -16.4460   73.5940 C.3   405  LEU405      0.0019
     28  CD1      -55.4940  -17.1640   74.8900 C.3   405  LEU405      0.0001
     29  CD2      -56.9360  -17.1750   72.8550 C.3   405  LEU405      0.0001
     30  N        -58.0910  -12.4110   73.1440 N.am  406  GLY406     -0.1942
     31  CA       -58.5900  -11.1670   73.6910 C.3   406  GLY406      0.2014
     32  C        -60.1030  -11.1470   73.7950 C.2   406  GLY406      0.2638
     33  O        -60.8000  -12.0140   73.2510 O.2   406  GLY406     -0.2714
     34  N        -60.6110  -10.1140   74.4650 N.am  407  LEU407     -0.1977
     35  CA       -62.0070   -9.8040   74.4220 C.3   407  LEU407      0.1596
     36  C        -62.1970   -8.3000   74.6030 C.2   407  LEU407      0.2287
     37  O        -61.3020   -7.5870   75.1320 O.2   407  LEU407     -0.2864
     38  CB       -62.7380  -10.6270   75.4870 C.3   407  LEU407      0.0297
     39  CG       -62.5490  -10.1670   76.9260 C.3   407  LEU407      0.0022
     40  CD1      -63.4400   -8.9700   77.2350 C.3   407  LEU407      0.0001
     41  CD2      -62.8380  -11.3080   77.8940 C.3   407  LEU407      0.0001
     42  N        -65.1800  -11.7920   71.6370 N.3   431  PRO431     -0.2102
     43  CA       -63.8400  -12.3680   71.7120 C.3   431  PRO431      0.1504
     44  C        -63.1090  -12.3530   70.3610 C.2   431  PRO431      0.2576
     45  O        -63.7340  -12.1030   69.3110 O.2   431  PRO431     -0.2718
     46  CB       -64.1560  -13.8030   72.1290 C.3   431  PRO431      0.0282
     47  CG       -65.4400  -14.1120   71.3750 C.3   431  PRO431      0.0208
     48  CD       -66.2080  -12.8010   71.3480 C.3   431  PRO431      0.0893
     49  N        -61.8020  -12.6280   70.4020 N.am  432  GLY432     -0.1943
     50  CA       -61.0460  -13.0050   69.2340 C.3   432  GLY432      0.2014
     51  C        -59.8930  -13.9170   69.5980 C.2   432  GLY432      0.2638
     52  O        -59.3230  -13.8040   70.6840 O.2   432  GLY432     -0.2714
     53  N        -59.5350  -14.8020   68.6700 N.am  433  VAL433     -0.1977
     54  CA       -58.3490  -15.6250   68.8020 C.3   433  VAL433      0.1596
     55  C        -57.6890  -15.7420   67.4220 C.2   433  VAL433      0.2287
     56  O        -58.3570  -15.8910   66.4150 O.2   433  VAL433     -0.2864
     57  CB       -58.6960  -16.9980   69.4160 C.3   433  VAL433      0.0276
     58  CG1      -59.8860  -17.6520   68.7360 C.3   433  VAL433      0.0022
     59  CG2      -57.5110  -17.9480   69.4260 C.3   433  VAL433      0.0022
     60  N        -60.3600  -16.4860   64.4840 N.3   449  TYR449     -0.1241
     61  CA       -61.7590  -16.2060   64.6970 C.3   449  TYR449      0.1605
     62  C        -61.8730  -14.8120   65.3090 C.2   449  TYR449      0.2264
     63  O        -61.1700  -14.4810   66.2660 O.2   449  TYR449     -0.2867
     64  CB       -62.4100  -17.2350   65.6290 C.3   449  TYR449      0.0534
     65  CG       -63.8320  -16.8930   65.9980 C.ar  449  TYR449     -0.0201
     66  CD1      -64.1120  -15.9830   67.0090 C.ar  449  TYR449     -0.0009
     67  CD2      -64.8970  -17.4180   65.2840 C.ar  449  TYR449     -0.0009
     68  CE1      -65.4140  -15.6230   67.3150 C.ar  449  TYR449      0.0417
     69  CE2      -66.2070  -17.0770   65.5840 C.ar  449  TYR449      0.0417
     70  CZ       -66.4660  -16.1750   66.6020 C.ar  449  TYR449      0.1957
     71  OH       -67.7510  -15.8180   66.8930 O.3   449  TYR449     -0.2866
     72  N        -64.8360  -11.1120   65.3600 N.3   451  GLU451     -0.1245
     73  CA       -66.2010  -10.6890   65.1400 C.3   451  GLU451      0.1567
     74  C        -66.2050   -9.2230   64.7210 C.2   451  GLU451      0.2260
     75  O        -65.2320   -8.4890   64.9450 O.2   451  GLU451     -0.2867
     76  CB       -67.0380  -10.8940   66.4030 C.3   451  GLU451      0.0388
     77  CG       -67.0800  -12.3330   66.8640 C.3   451  GLU451      0.1160
     78  CD       -67.9170  -12.5760   68.1140 C.2   451  GLU451      0.3649
     79  OE1      -68.1770  -11.6000   68.8590 O.co2 451  GLU451     -0.2457
     80  OE2      -68.2940  -13.7490   68.3520 O.co2 451  GLU451     -0.2457
     81  N        -69.4160  -12.6510   62.3150 N.3   476  LYS476     -0.1245
     82  CA       -68.4570  -13.6690   62.7730 C.3   476  LYS476      0.1561
     83  C        -67.6340  -14.1800   61.5950 C.2   476  LYS476      0.2260
     84  O        -68.1840  -14.6220   60.5970 O.2   476  LYS476     -0.2867
     85  CB       -69.1750  -14.8530   63.4310 C.3   476  LYS476      0.0271
     86  CG       -69.9450  -14.4990   64.6950 C.3   476  LYS476      0.0035
     87  CD       -70.8300  -15.6030   65.2280 C.3   476  LYS476      0.0206
     88  CE       -71.4560  -15.2410   66.5630 C.3   476  LYS476      0.1093
     89  NZ       -72.4200  -16.2740   67.0220 N.3   476  LYS476     -0.1314
@<TRIPOS>BOND
     1    84    83    2
     2    83    82    1
     3    81    82    1
     4    82    85    1
     5    85    86    1
     6    60    61    1
     7    86    87    1
     8    61    62    1
     9    61    64    1
    10    74    75    2
    11    74    73    1
    12    73    72    1
    13    73    76    1
    14    87    88    1
    15    67    69   ar
    16    67    65   ar
    17    62    63    2
    18    69    70   ar
    19    64    65    1
    20    65    66   ar
    21    76    77    1
    22    56    55    2
    23    88    89    1
    24    70    71    1
    25    70    68   ar
    26    77    78    1
    27    66    68   ar
    28    55    54    1
    29    78    80   ar
    30    78    79   ar
    31    53    54    1
    32    53    51   am
    33    58    57    1
    34    54    57    1
    35    50    51    1
    36    50    49    1
    37    45    44    2
    38    57    59    1
    39    51    52    2
    40    44    49   am
    41    44    43    1
    42    48    47    1
    43    48    42    1
    44    47    46    1
    45    42    43    1
    46    43    46    1
    47    22    23    1
    48    23    24    1
    49    23    26    1
    50    29    27    1
    51    13    10    1
    52    30    24   am
    53    30    31    1
    54    24    25    2
    55    17    16    2
    56    33    32    2
    57    27    26    1
    58    27    28    1
    59    31    32    1
    60    16    15    1
    61    32    34   am
    62    35    34    1
    63    35    36    1
    64    35    38    1
    65    10    11    1
    66    10     9    1
    67    36    37    2
    68    14    11   am
    69    14    15    1
    70    11    12    2
    71    15    18    1
    72     4     3    2
    73     9     3   am
    74    38    39    1
    75     3     2    1
    76     1     2    1
    77    20    19   ar
    78    18    19    1
    79     2     5    1
    80    19    21   ar
    81    39    40    1
    82    39    41    1
    83     5     6    1
    84     6     7    1
    85     6     8    1
