@<TRIPOS>MOLECULE
tmp/6h7fB01.pdb
 84 81 0 0 0
SMALL
GASTEIGER

@<TRIPOS>ATOM
      1  N        -56.0740   21.5730   53.5950 N.3   192  PHE192     -0.1241
      2  CA       -54.9430   22.0520   54.3760 C.3   192  PHE192      0.1605
      3  C        -54.7500   21.1130   55.5780 C.2   192  PHE192      0.2264
      4  O        -55.6910   20.8530   56.3230 O.2   192  PHE192     -0.2867
      5  CB       -55.1820   23.5150   54.7690 C.3   192  PHE192      0.0534
      6  CG       -54.0530   24.1630   55.5260 C.ar  192  PHE192     -0.0203
      7  CD1      -52.8960   24.5590   54.8690 C.ar  192  PHE192     -0.0042
      8  CD2      -54.1420   24.3770   56.8940 C.ar  192  PHE192     -0.0042
      9  CE1      -51.8530   25.1520   55.5650 C.ar  192  PHE192     -0.0003
     10  CE2      -53.0980   24.9690   57.5890 C.ar  192  PHE192     -0.0003
     11  CZ       -51.9550   25.3520   56.9250 C.ar  192  PHE192     -0.0000
     12  N        -51.8650   19.6520   58.8070 N.3   194  LEU194     -0.1245
     13  CA       -50.7430   19.8780   59.7190 C.3   194  LEU194      0.1561
     14  C        -50.4060   18.5520   60.4120 C.2   194  LEU194      0.2260
     15  O        -51.2840   17.9190   60.9930 O.2   194  LEU194     -0.2867
     16  CB       -51.1770   20.9120   60.7590 C.3   194  LEU194      0.0270
     17  CG       -50.4310   22.2420   60.7600 C.3   194  LEU194      0.0019
     18  CD1      -50.9460   23.1360   61.8800 C.3   194  LEU194      0.0001
     19  CD2      -48.9330   22.0330   60.9020 C.3   194  LEU194      0.0001
     20  N        -54.0170   17.9340   62.3070 N.3   209  ALA209     -0.1231
     21  CA       -55.2310   18.6790   62.0350 C.3   209  ALA209      0.1694
     22  C        -55.3710   18.9080   60.5250 C.2   209  ALA209      0.2592
     23  O        -54.3740   18.9300   59.7870 O.2   209  ALA209     -0.2718
     24  CB       -55.2090   19.9750   62.7990 C.3   209  ALA209      0.0304
     25  N        -56.6160   19.0620   60.0640 N.am  210  TYR210     -0.1962
     26  CA       -56.8840   19.2550   58.6560 C.3   210  TYR210      0.1771
     27  C        -58.1970   20.0130   58.4800 C.2   210  TYR210      0.2619
     28  O        -59.0670   19.9880   59.3410 O.2   210  TYR210     -0.2715
     29  CB       -56.9150   17.9140   57.9200 C.3   210  TYR210      0.0574
     30  CG       -58.2010   17.1550   58.0990 C.ar  210  TYR210     -0.0198
     31  CD1      -59.2920   17.3980   57.2900 C.ar  210  TYR210     -0.0009
     32  CD2      -58.3370   16.2220   59.1040 C.ar  210  TYR210     -0.0009
     33  CE1      -60.4890   16.7210   57.4660 C.ar  210  TYR210      0.0417
     34  CE2      -59.5270   15.5380   59.3010 C.ar  210  TYR210      0.0417
     35  CZ       -60.6090   15.7840   58.4730 C.ar  210  TYR210      0.1957
     36  OH       -61.7890   15.1130   58.6540 O.3   210  TYR210     -0.2866
     37  N        -58.3010   20.6810   57.3320 N.am  211  ASP211     -0.1971
     38  CA       -59.4960   21.3410   56.8610 C.3   211  ASP211      0.1709
     39  C        -59.6810   20.9460   55.3850 C.2   211  ASP211      0.2293
     40  O        -58.7360   21.0510   54.5840 O.2   211  ASP211     -0.2864
     41  CB       -59.3690   22.8560   57.0820 C.3   211  ASP211      0.1436
     42  CG       -60.5810   23.6810   56.6640 C.2   211  ASP211      0.3671
     43  OD1      -61.6900   23.1210   56.6010 O.co2 211  ASP211     -0.2456
     44  OD2      -60.4050   24.8830   56.4030 O.co2 211  ASP211     -0.2456
     45  N        -63.5370   19.1280   58.9780 N.3   253  LYS253     -0.1231
     46  CA       -62.4400   19.6390   59.8050 C.3   253  LYS253      0.1693
     47  C        -62.1800   18.6280   60.9200 C.2   253  LYS253      0.2593
     48  O        -63.1190   18.1510   61.5390 O.2   253  LYS253     -0.2718
     49  CB       -62.8110   21.0010   60.4050 C.3   253  LYS253      0.0285
     50  CG       -62.8440   22.1550   59.4130 C.3   253  LYS253      0.0035
     51  CD       -63.6330   23.3670   59.8670 C.3   253  LYS253      0.0206
     52  CE       -64.0400   24.2520   58.7030 C.3   253  LYS253      0.1093
     53  NZ       -64.6740   25.5100   59.1550 N.3   253  LYS253     -0.1314
     54  N        -60.9090   18.2890   61.1440 N.am  254  GLY254     -0.1942
     55  CA       -60.5420   17.3140   62.1700 C.3   254  GLY254      0.2014
     56  C        -59.2110   17.6360   62.8200 C.2   254  GLY254      0.2638
     57  O        -58.3410   18.2390   62.2020 O.2   254  GLY254     -0.2714
     58  N        -59.0570   17.1990   64.0750 N.am  255  ALA255     -0.1977
     59  CA       -57.7920   17.3100   64.8060 C.3   255  ALA255      0.1597
     60  C        -57.7040   16.1840   65.8310 C.2   255  ALA255      0.2287
     61  O        -58.7080   15.8080   66.4280 O.2   255  ALA255     -0.2864
     62  CB       -57.6960   18.6580   65.4730 C.3   255  ALA255      0.0319
     63  N        -61.3070   15.2110   67.5880 N.3   275  GLN275     -0.1231
     64  CA       -62.6310   15.6950   67.2320 C.3   275  GLN275      0.1698
     65  C        -62.6530   16.1040   65.7510 C.2   275  GLN275      0.2593
     66  O        -61.6180   16.3620   65.1350 O.2   275  GLN275     -0.2718
     67  CB       -63.0260   16.8780   68.1100 C.3   275  GLN275      0.0381
     68  CG       -61.8900   17.8570   68.3450 C.3   275  GLN275      0.0905
     69  CD       -62.2590   18.9290   69.3370 C.2   275  GLN275      0.2608
     70  OE1      -62.6950   18.6530   70.4540 O.2   275  GLN275     -0.2717
     71  NE2      -62.0820   20.1680   68.9220 N.am  275  GLN275     -0.0878
     72  N        -63.8600   16.1550   65.1890 N.am  276  SER276     -0.1938
     73  CA       -64.0710   16.5260   63.8210 C.3   276  SER276      0.2055
     74  C        -65.4840   17.0720   63.6670 C.2   276  SER276      0.2643
     75  O        -66.3620   16.7820   64.4830 O.2   276  SER276     -0.2714
     76  CB       -63.8290   15.3580   62.8860 C.3   276  SER276      0.2130
     77  OG       -64.8270   14.3630   63.0460 O.3   276  SER276     -0.2179
     78  N        -65.6810   17.8590   62.6090 N.am  277  THR277     -0.1950
     79  CA       -66.9960   18.3290   62.2120 C.3   277  THR277      0.1897
     80  C        -67.1840   18.0090   60.7310 C.2   277  THR277      0.2313
     81  O        -66.2340   18.0270   59.9540 O.2   277  THR277     -0.2863
     82  CB       -67.1660   19.8280   62.5060 C.3   277  THR277      0.1794
     83  OG1      -66.1610   20.5290   61.7760 O.3   277  THR277     -0.2208
     84  CG2      -67.0290   20.1690   63.9750 C.3   277  THR277      0.0378
@<TRIPOS>BOND
     1     1     2    1
     2     2     5    1
     3     2     3    1
     4    40    39    2
     5     5     6    1
     6     7     6   ar
     7     7     9   ar
     8    39    38    1
     9     6     8   ar
    10     9    11   ar
    11     3     4    2
    12    44    42   ar
    13    43    42   ar
    14    42    41    1
    15    38    41    1
    16    38    37    1
    17     8    10   ar
    18    11    10   ar
    19    31    33   ar
    20    31    30   ar
    21    37    27   am
    22    33    35   ar
    23    29    30    1
    24    29    26    1
    25    30    32   ar
    26    35    36    1
    27    35    34   ar
    28    27    26    1
    29    27    28    2
    30    26    25    1
    31    52    53    1
    32    52    51    1
    33    12    13    1
    34    45    46    1
    35    32    34   ar
    36    50    51    1
    37    50    49    1
    38    13    14    1
    39    13    16    1
    40    23    22    2
    41    46    49    1
    42    46    47    1
    43    81    80    2
    44    25    22   am
    45    14    15    2
    46    22    21    1
    47    80    79    1
    48    16    17    1
    49    17    19    1
    50    17    18    1
    51    47    54   am
    52    47    48    2
    53    54    55    1
    54    83    82    1
    55    21    20    1
    56    21    24    1
    57    55    56    1
    58    57    56    2
    59    79    82    1
    60    79    78    1
    61    82    84    1
    62    78    74   am
    63    56    58   am
    64    76    77    1
    65    76    73    1
    66    74    73    1
    67    74    75    2
    68    73    72    1
    69    58    59    1
    70    59    62    1
    71    59    60    1
    72    66    65    2
    73    72    65   am
    74    65    64    1
    75    60    61    2
    76    64    63    1
    77    64    67    1
    78    67    68    1
    79    68    69    1
    80    71    69   am
    81    69    70    2
