@<TRIPOS>MOLECULE
tmp/6h7fC00.pdb
 84 82 0 0 0
SMALL
GASTEIGER

@<TRIPOS>ATOM
      1  N        -37.7530   -3.7110   21.9920 N.3   589  LEU589     -0.1245
      2  CA       -39.0420   -3.0500   21.8490 C.3   589  LEU589      0.1561
      3  C        -39.3440   -2.8290   20.3620 C.2   589  LEU589      0.2260
      4  O        -38.5400   -2.2550   19.6370 O.2   589  LEU589     -0.2867
      5  CB       -39.0020   -1.7180   22.5970 C.3   589  LEU589      0.0270
      6  CG       -40.2620   -0.8660   22.4730 C.3   589  LEU589      0.0019
      7  CD1      -41.4270   -1.5050   23.2230 C.3   589  LEU589      0.0001
      8  CD2      -39.9990    0.5470   22.9760 C.3   589  LEU589      0.0001
      9  N        -47.5160   -2.6940   19.8140 N.3   621  ALA621     -0.1231
     10  CA       -46.2250   -2.7080   20.4710 C.3   621  ALA621      0.1694
     11  C        -45.9330   -4.1270   20.9420 C.2   621  ALA621      0.2592
     12  O        -46.8510   -4.8720   21.3310 O.2   621  ALA621     -0.2718
     13  CB       -46.2160   -1.7410   21.6310 C.3   621  ALA621      0.0304
     14  N        -44.6510   -4.4660   20.9280 N.am  622  ARG622     -0.1966
     15  CA       -44.1740   -5.7740   21.2940 C.3   622  ARG622      0.1729
     16  C        -42.8600   -5.6080   22.0780 C.2   622  ARG622      0.2616
     17  O        -41.9870   -4.8170   21.6920 O.2   622  ARG622     -0.2715
     18  CB       -44.0060   -6.5960   20.0160 C.3   622  ARG622      0.0348
     19  CG       -43.4350   -7.9930   20.2190 C.3   622  ARG622      0.0492
     20  CD       -43.6810   -8.8470   18.9870 C.3   622  ARG622      0.2205
     21  NE       -42.7660   -8.5230   17.8940 N.pl3 622  ARG622     -0.0865
     22  CZ       -43.1240   -7.9790   16.7330 C.cat 622  ARG622      0.5346
     23  NH1      -42.2160   -7.8460   15.7810 N.pl3 622  ARG622      0.1354
     24  NH2      -44.3720   -7.5690   16.5300 N.pl3 622  ARG622      0.1354
     25  N        -42.7480   -6.3250   23.2010 N.am  623  TYR623     -0.1974
     26  CA       -41.4930   -6.4110   23.9540 C.3   623  TYR623      0.1639
     27  C        -41.0860   -7.8760   24.1050 C.2   623  TYR623      0.2290
     28  O        -41.8210   -8.6760   24.6910 O.2   623  TYR623     -0.2864
     29  CB       -41.6150   -5.7580   25.3360 C.3   623  TYR623      0.0560
     30  CG       -40.3000   -5.6460   26.0670 C.ar  623  TYR623     -0.0198
     31  CD1      -39.2430   -4.9560   25.5030 C.ar  623  TYR623     -0.0009
     32  CD2      -40.0880   -6.2580   27.2940 C.ar  623  TYR623     -0.0009
     33  CE1      -38.0110   -4.8760   26.1290 C.ar  623  TYR623      0.0417
     34  CE2      -38.8660   -6.1690   27.9430 C.ar  623  TYR623      0.0417
     35  CZ       -37.8180   -5.4850   27.3520 C.ar  623  TYR623      0.1957
     36  OH       -36.6010   -5.3700   27.9660 O.3   623  TYR623     -0.2866
     37  N        -44.3260   -9.9090   25.2160 N.3   634  PHE634     -0.1227
     38  CA       -45.5510   -9.1340   25.4790 C.3   634  PHE634      0.1736
     39  C        -46.0020   -8.4200   24.1990 C.2   634  PHE634      0.2595
     40  O        -45.1820   -7.8140   23.5060 O.2   634  PHE634     -0.2718
     41  CB       -45.3030   -8.0850   26.5640 C.3   634  PHE634      0.0547
     42  CG       -44.7750   -8.6110   27.8770 C.ar  634  PHE634     -0.0202
     43  CD1      -43.4120   -8.8120   28.0720 C.ar  634  PHE634     -0.0042
     44  CD2      -45.6340   -8.8460   28.9400 C.ar  634  PHE634     -0.0042
     45  CE1      -42.9290   -9.2580   29.2950 C.ar  634  PHE634     -0.0003
     46  CE2      -45.1450   -9.2870   30.1620 C.ar  634  PHE634     -0.0003
     47  CZ       -43.7970   -9.4910   30.3370 C.ar  634  PHE634     -0.0000
     48  N        -47.3120   -8.4710   23.9220 N.am  635  ARG635     -0.1966
     49  CA       -47.8920   -7.9240   22.7020 C.3   635  ARG635      0.1729
     50  C        -49.1690   -7.1530   23.0370 C.2   635  ARG635      0.2616
     51  O        -50.0380   -7.6540   23.7350 O.2   635  ARG635     -0.2715
     52  CB       -48.2190   -9.0280   21.6950 C.3   635  ARG635      0.0348
     53  CG       -46.9990   -9.6770   21.0540 C.3   635  ARG635      0.0492
     54  CD       -47.3950  -10.8490   20.1710 C.3   635  ARG635      0.2205
     55  NE       -46.2610  -11.4190   19.4560 N.pl3 635  ARG635     -0.0865
     56  CZ       -45.6750  -12.5750   19.7720 C.cat 635  ARG635      0.5346
     57  NH1      -46.0480  -13.2340   20.8560 N.pl3 635  ARG635      0.1354
     58  NH2      -44.7390  -13.0780   18.9910 N.pl3 635  ARG635      0.1354
     59  N        -49.2740   -5.9430   22.4870 N.am  636  ALA636     -0.1977
     60  CA       -50.4910   -5.1440   22.5420 C.3   636  ALA636      0.1597
     61  C        -50.8100   -4.6140   21.1420 C.2   636  ALA636      0.2287
     62  O        -49.9270   -4.1380   20.4240 O.2   636  ALA636     -0.2864
     63  CB       -50.3130   -4.0120   23.5160 C.3   636  ALA636      0.0319
     64  N        -54.3810   -8.1100   23.8360 N.3   665  LEU665     -0.1231
     65  CA       -53.1510   -8.3220   24.6400 C.3   665  LEU665      0.1693
     66  C        -52.8200   -9.8140   24.6610 C.2   665  LEU665      0.2593
     67  O        -53.7070  -10.6620   24.7380 O.2   665  LEU665     -0.2718
     68  CB       -53.3650   -7.8090   26.0670 C.3   665  LEU665      0.0284
     69  CG       -53.7220   -6.3290   26.1910 C.3   665  LEU665      0.0019
     70  CD1      -54.2270   -6.0080   27.5910 C.3   665  LEU665      0.0001
     71  CD2      -52.5270   -5.4570   25.8370 C.3   665  LEU665      0.0001
     72  N        -51.5300  -10.1200   24.6070 N.am  666  SER666     -0.1938
     73  CA       -51.0630  -11.4610   24.8270 C.3   666  SER666      0.2055
     74  C        -49.6900  -11.4230   25.5130 C.2   666  SER666      0.2642
     75  O        -48.8680  -10.4990   25.2860 O.2   666  SER666     -0.2714
     76  CB       -51.0310  -12.2460   23.5270 C.3   666  SER666      0.2130
     77  OG       -49.9850  -11.8010   22.6820 O.3   666  SER666     -0.2179
     78  N        -49.4490  -12.4440   26.3420 N.am  667  VAL667     -0.1977
     79  CA       -48.1490  -12.7290   26.9300 C.3   667  VAL667      0.1596
     80  C        -47.8140  -14.1890   26.6470 C.2   667  VAL667      0.2287
     81  O        -48.6470  -15.0740   26.8920 O.2   667  VAL667     -0.2864
     82  CB       -48.1630  -12.4840   28.4510 C.3   667  VAL667      0.0276
     83  CG1      -46.7670  -12.5890   29.0360 C.3   667  VAL667      0.0022
     84  CG2      -48.8060  -11.1560   28.8110 C.3   667  VAL667      0.0022
@<TRIPOS>BOND
     1    23    22    1
     2    24    22    1
     3    22    21    2
     4    21    20    1
     5    20    19    1
     6    58    56    1
     7    55    56    2
     8    55    54    1
     9     4     3    2
    10    56    57    1
    11     9    10    1
    12    18    19    1
    13    18    15    1
    14    54    53    1
    15     3     2    1
    16    62    61    2
    17    10    11    1
    18    10    13    1
    19    14    11   am
    20    14    15    1
    21    11    12    2
    22    53    52    1
    23    61    60    1
    24    15    16    1
    25    17    16    2
    26    52    49    1
    27     2     1    1
    28     2     5    1
    29    16    25   am
    30     6     5    1
    31     6     8    1
    32     6     7    1
    33    59    60    1
    34    59    50   am
    35    60    63    1
    36    77    76    1
    37    49    50    1
    38    49    48    1
    39    50    51    2
    40    25    26    1
    41    40    39    2
    42    76    73    1
    43    64    65    1
    44    48    39   am
    45    26    27    1
    46    26    29    1
    47    27    28    2
    48    39    38    1
    49    72    66   am
    50    72    73    1
    51    65    66    1
    52    65    68    1
    53    66    67    2
    54    73    74    1
    55    37    38    1
    56    75    74    2
    57    29    30    1
    58    38    41    1
    59    31    30   ar
    60    31    33   ar
    61    74    78   am
    62    71    69    1
    63    68    69    1
    64    30    32   ar
    65    33    35   ar
    66    69    70    1
    67    78    79    1
    68    41    42    1
    69    80    81    2
    70    80    79    1
    71    79    82    1
    72    32    34   ar
    73    35    34   ar
    74    35    36    1
    75    42    43   ar
    76    42    44   ar
    77    43    45   ar
    78    82    84    1
    79    82    83    1
    80    44    46   ar
    81    45    47   ar
    82    46    47   ar
