@<TRIPOS>MOLECULE
tmp/6h7fB07.pdb
 120 118 0 0 0
SMALL
GASTEIGER

@<TRIPOS>ATOM
      1  N        -52.3630  -16.2620   50.4700 N.3   493  LEU493     -0.1245
      2  CA       -53.4970  -17.1040   50.1200 C.3   493  LEU493      0.1561
      3  C        -54.3470  -17.2930   51.3790 C.2   493  LEU493      0.2260
      4  O        -53.8490  -17.7510   52.3970 O.2   493  LEU493     -0.2867
      5  CB       -53.0000  -18.4450   49.5620 C.3   493  LEU493      0.0270
      6  CG       -54.0920  -19.4550   49.1780 C.3   493  LEU493      0.0019
      7  CD1      -54.8800  -18.9850   47.9640 C.3   493  LEU493      0.0001
      8  CD2      -53.5010  -20.8340   48.9170 C.3   493  LEU493      0.0001
      9  N        -62.1520  -17.2660   48.7590 N.3   528  ILE528     -0.1245
     10  CA       -60.7140  -17.5720   48.6100 C.3   528  ILE528      0.1561
     11  C        -60.0570  -16.3730   47.9180 C.2   528  ILE528      0.2260
     12  O        -60.5610  -15.8930   46.9110 O.2   528  ILE528     -0.2867
     13  CB       -60.4840  -18.8450   47.7640 C.3   528  ILE528      0.0252
     14  CG1      -61.5400  -19.9230   48.0160 C.3   528  ILE528      0.0019
     15  CG2      -59.0710  -19.3770   47.9650 C.3   528  ILE528      0.0019
     16  CD1      -61.2770  -20.7520   49.2500 C.3   528  ILE528      0.0001
     17  N        -56.1840  -15.0680   46.4630 N.3   530  TRP530     -0.1241
     18  CA       -54.7470  -15.1170   46.1930 C.3   530  TRP530      0.1605
     19  C        -54.2810  -13.7460   45.7090 C.2   530  TRP530      0.2264
     20  O        -54.7610  -13.2560   44.6910 O.2   530  TRP530     -0.2867
     21  CB       -54.4070  -16.2190   45.1790 C.3   530  TRP530      0.0550
     22  CG       -52.9890  -16.1710   44.6890 C.ar  530  TRP530      0.0003
     23  CD1      -51.8710  -15.9420   45.4390 C.ar  530  TRP530      0.0946
     24  CD2      -52.5270  -16.3530   43.3380 C.ar  530  TRP530      0.0152
     25  NE1      -50.7550  -15.9600   44.6520 N.ar  530  TRP530     -0.2442
     26  CE2      -51.1210  -16.2150   43.3600 C.ar  530  TRP530      0.0810
     27  CE3      -53.1570  -16.5950   42.1130 C.ar  530  TRP530      0.0012
     28  CZ2      -50.3410  -16.3240   42.2100 C.ar  530  TRP530      0.0191
     29  CZ3      -52.3860  -16.6980   40.9760 C.ar  530  TRP530      0.0001
     30  CH2      -50.9980  -16.5590   41.0260 C.ar  530  TRP530      0.0015
     31  N        -56.5150  -12.7260   42.6030 N.3   546  PHE546     -0.1227
     32  CA       -57.7570  -13.3510   42.1880 C.3   546  PHE546      0.1736
     33  C        -58.5520  -13.6870   43.4460 C.2   546  PHE546      0.2596
     34  O        -57.9650  -14.0900   44.4380 O.2   546  PHE546     -0.2718
     35  CB       -57.4870  -14.6130   41.3640 C.3   546  PHE546      0.0547
     36  CG       -56.5580  -14.4170   40.1910 C.ar  546  PHE546     -0.0202
     37  CD1      -55.1910  -14.2680   40.3810 C.ar  546  PHE546     -0.0042
     38  CD2      -57.0460  -14.3860   38.8910 C.ar  546  PHE546     -0.0042
     39  CE1      -54.3400  -14.0740   39.3010 C.ar  546  PHE546     -0.0003
     40  CE2      -56.1910  -14.2000   37.8120 C.ar  546  PHE546     -0.0003
     41  CZ       -54.8410  -14.0400   38.0190 C.ar  546  PHE546     -0.0000
     42  N        -59.8760  -13.5020   43.3930 N.am  547  THR547     -0.1939
     43  CA       -60.7670  -13.9270   44.4530 C.3   547  THR547      0.2028
     44  C        -61.9890  -14.6120   43.8570 C.2   547  THR547      0.2642
     45  O        -62.5250  -14.1440   42.8720 O.2   547  THR547     -0.2714
     46  CB       -61.2810  -12.7590   45.2970 C.3   547  THR547      0.1808
     47  OG1      -61.8500  -11.8040   44.3970 O.3   547  THR547     -0.2208
     48  CG2      -60.2100  -12.1250   46.1540 C.3   547  THR547      0.0379
     49  N        -62.4170  -15.7030   44.5020 N.am  548  TYR548     -0.1973
     50  CA       -63.7640  -16.2260   44.3740 C.3   548  TYR548      0.1639
     51  C        -64.5380  -15.9210   45.6640 C.2   548  TYR548      0.2290
     52  O        -64.0600  -16.2010   46.7680 O.2   548  TYR548     -0.2864
     53  CB       -63.7530  -17.7290   44.0730 C.3   548  TYR548      0.0560
     54  CG       -65.1250  -18.3560   44.0880 C.ar  548  TYR548     -0.0198
     55  CD1      -65.9800  -18.2320   43.0000 C.ar  548  TYR548     -0.0009
     56  CD2      -65.5960  -19.0260   45.2100 C.ar  548  TYR548     -0.0009
     57  CE1      -67.2540  -18.7840   43.0140 C.ar  548  TYR548      0.0417
     58  CE2      -66.8650  -19.5850   45.2410 C.ar  548  TYR548      0.0417
     59  CZ       -67.6980  -19.4650   44.1390 C.ar  548  TYR548      0.1957
     60  OH       -68.9500  -20.0120   44.1750 O.3   548  TYR548     -0.2866
     61  N        -66.4810  -13.1930   41.1460 N.3   572  ASN572     -0.1225
     62  CA       -65.1080  -13.4060   40.6490 C.3   572  ASN572      0.1785
     63  C        -64.4800  -12.0450   40.3600 C.2   572  ASN572      0.2597
     64  O        -65.1140  -11.2100   39.7160 O.2   572  ASN572     -0.2718
     65  CB       -65.0760  -14.2780   39.3920 C.3   572  ASN572      0.1169
     66  CG       -65.7350  -15.6360   39.5760 C.2   572  ASN572      0.2627
     67  OD1      -65.3580  -16.4030   40.4470 O.2   572  ASN572     -0.2716
     68  ND2      -66.7200  -15.9390   38.7560 N.am  572  ASN572     -0.0877
     69  N        -63.2460  -11.8420   40.8460 N.am  573  GLN573     -0.1965
     70  CA       -62.4280  -10.6900   40.4830 C.3   573  GLN573      0.1733
     71  C        -61.0120  -11.1500   40.1350 C.2   573  GLN573      0.2616
     72  O        -60.4560  -12.0300   40.7840 O.2   573  GLN573     -0.2715
     73  CB       -62.3160   -9.6940   41.6300 C.3   573  GLN573      0.0408
     74  CG       -63.6340   -9.0980   42.0940 C.3   573  GLN573      0.0908
     75  CD       -63.4060   -7.8170   42.8610 C.2   573  GLN573      0.2608
     76  OE1      -62.5490   -7.0210   42.5140 O.2   573  GLN573     -0.2717
     77  NE2      -64.1790   -7.5980   43.9080 N.am  573  GLN573     -0.0878
     78  N        -60.4360  -10.5160   39.1120 N.am  574  ALA574     -0.1977
     79  CA       -59.0300  -10.6200   38.8160 C.3   574  ALA574      0.1597
     80  C        -58.4800   -9.2230   38.5480 C.2   574  ALA574      0.2287
     81  O        -59.0180   -8.4990   37.7050 O.2   574  ALA574     -0.2864
     82  CB       -58.8210  -11.5140   37.6270 C.3   574  ALA574      0.0319
     83  N        -60.9610   -7.2100   35.9940 N.3   597  ALA597     -0.1231
     84  CA       -61.9890   -8.0760   35.4200 C.3   597  ALA597      0.1694
     85  C        -62.8850   -8.6040   36.5370 C.2   597  ALA597      0.2592
     86  O        -62.3930   -9.1940   37.5070 O.2   597  ALA597     -0.2718
     87  CB       -61.3440   -9.2290   34.6860 C.3   597  ALA597      0.0304
     88  N        -64.1940   -8.4160   36.3800 N.am  598  VAL598     -0.1966
     89  CA       -65.1390   -8.9160   37.3480 C.3   598  VAL598      0.1727
     90  C        -66.2950   -9.5820   36.6060 C.2   598  VAL598      0.2617
     91  O        -66.5770   -9.2550   35.4550 O.2   598  VAL598     -0.2715
     92  CB       -65.6410   -7.8000   38.2790 C.3   598  VAL598      0.0290
     93  CG1      -64.4890   -7.0180   38.8680 C.3   598  VAL598      0.0023
     94  CG2      -66.6130   -6.8650   37.5790 C.3   598  VAL598      0.0023
     95  N        -66.9690  -10.4890   37.3120 N.am  599  SER599     -0.1936
     96  CA       -68.1130  -11.1900   36.8030 C.3   599  SER599      0.2055
     97  C        -69.3960  -10.4140   37.1440 C.2   599  SER599      0.2642
     98  O        -69.3610   -9.2850   37.6700 O.2   599  SER599     -0.2714
     99  CB       -68.1440  -12.6090   37.3260 C.3   599  SER599      0.2130
    100  OG       -68.1610  -12.6340   38.7380 O.3   599  SER599     -0.2179
    101  N        -70.5350  -11.0160   36.8070 N.am  600  LYS600     -0.1977
    102  CA       -71.8140  -10.3580   36.8670 C.3   600  LYS600      0.1596
    103  C        -72.1990  -10.1020   38.3340 C.2   600  LYS600      0.2287
    104  O        -71.6800  -10.7470   39.2630 O.2   600  LYS600     -0.2864
    105  CB       -72.8610  -11.2290   36.1780 C.3   600  LYS600      0.0298
    106  CG       -73.2130  -12.5090   36.9230 C.3   600  LYS600      0.0038
    107  CD       -74.3110  -13.3030   36.2350 C.3   600  LYS600      0.0206
    108  CE       -74.9090  -14.3740   37.1140 C.3   600  LYS600      0.1093
    109  NZ       -76.2430  -14.7860   36.6310 N.3   600  LYS600     -0.1314
    110  N        -74.0110   -7.6500   33.6210 N.3   612  PRO612     -0.2102
    111  CA       -72.8440   -8.4590   33.2740 C.3   612  PRO612      0.1504
    112  C        -71.5420   -8.0090   33.9600 C.2   612  PRO612      0.2576
    113  O        -71.4440   -6.9070   34.4870 O.2   612  PRO612     -0.2718
    114  CB       -72.7290   -8.3070   31.7470 C.3   612  PRO612      0.0282
    115  CG       -73.4660   -7.0050   31.4380 C.3   612  PRO612      0.0208
    116  CD       -74.5780   -6.9450   32.4640 C.3   612  PRO612      0.0893
    117  N        -70.5520   -8.8960   33.9400 N.am  613  GLY613     -0.1957
    118  CA       -69.1730   -8.5480   34.2350 C.3   613  GLY613      0.1869
    119  C        -68.6580   -7.4600   33.3070 C.2   613  GLY613      0.2309
    120  O        -69.2440   -7.1890   32.2720 O.2   613  GLY613     -0.2863
@<TRIPOS>BOND
     1   115   114    1
     2   115   116    1
     3   114   111    1
     4   120   119    2
     5   116   110    1
     6   111   110    1
     7   111   112    1
     8   119   118    1
     9   117   112   am
    10   117   118    1
    11   112   113    2
    12    87    84    1
    13    84    83    1
    14    84    85    1
    15    91    90    2
    16   105   102    1
    17   105   106    1
    18   107   106    1
    19   107   108    1
    20    88    85   am
    21    88    89    1
    22    85    86    2
    23    90    95   am
    24    90    89    1
    25   109   108    1
    26    96    97    1
    27    96    95    1
    28    96    99    1
    29   101   102    1
    30   101    97   am
    31   102   103    1
    32    97    98    2
    33    99   100    1
    34    89    92    1
    35    94    92    1
    36    82    79    1
    37    81    80    2
    38    40    41   ar
    39    40    38   ar
    40    41    39   ar
    41    92    93    1
    42   103   104    2
    43    80    79    1
    44    68    66   am
    45    79    78    1
    46    38    36   ar
    47    78    71   am
    48    39    37   ar
    49    65    66    1
    50    65    62    1
    51    66    67    2
    52    64    63    2
    53    71    70    1
    54    71    72    2
    55    36    37   ar
    56    36    35    1
    57    63    62    1
    58    63    69   am
    59    70    69    1
    60    70    73    1
    61    62    61    1
    62    29    30   ar
    63    29    27   ar
    64    30    28   ar
    65    35    32    1
    66    73    74    1
    67    74    75    1
    68    27    24   ar
    69    32    31    1
    70    32    33    1
    71    28    26   ar
    72    76    75    2
    73    75    77   am
    74    45    44    2
    75    55    57   ar
    76    55    54   ar
    77    57    59   ar
    78    24    26   ar
    79    24    22   ar
    80    26    25   ar
    81    42    33   am
    82    42    43    1
    83    33    34    2
    84    44    43    1
    85    44    49   am
    86    53    54    1
    87    53    50    1
    88    54    56   ar
    89    59    60    1
    90    59    58   ar
    91    50    49    1
    92    50    51    1
    93    47    46    1
    94    43    46    1
    95    25    23   ar
    96    22    21    1
    97    22    23   ar
    98    20    19    2
    99    21    18    1
   100    56    58   ar
   101    46    48    1
   102    51    52    2
   103    19    18    1
   104    18    17    1
   105    12    11    2
   106    13    15    1
   107    13    14    1
   108    13    10    1
   109    11    10    1
   110     7     6    1
   111    14    16    1
   112    10     9    1
   113     8     6    1
   114     6     5    1
   115     5     2    1
   116     2     1    1
   117     2     3    1
   118     3     4    2
