@<TRIPOS>MOLECULE
tmp/6h7fC10.pdb
 72 66 0 0 0
SMALL
GASTEIGER

@<TRIPOS>ATOM
      1  N        -50.0160   -0.9420    4.0970 N.3   576  LEU576     -0.1245
      2  CA       -48.6640   -0.8490    4.6190 C.3   576  LEU576      0.1561
      3  C        -48.6670   -1.2680    6.0920 C.2   576  LEU576      0.2260
      4  O        -49.3820   -0.7080    6.9140 O.2   576  LEU576     -0.2867
      5  CB       -48.1640    0.5840    4.4350 C.3   576  LEU576      0.0270
      6  CG       -46.6890    0.8180    4.7420 C.3   576  LEU576      0.0019
      7  CD1      -45.8210   -0.2770    4.1430 C.3   576  LEU576      0.0001
      8  CD2      -46.2420    2.1840    4.2310 C.3   576  LEU576      0.0001
      9  N        -45.7160   -1.6180    9.0400 N.3   578  ALA578     -0.1245
     10  CA       -44.3550   -1.2560    9.3590 C.3   578  ALA578      0.1562
     11  C        -44.0880   -1.5870   10.8270 C.2   578  ALA578      0.2260
     12  O        -44.9770   -1.4580   11.6700 O.2   578  ALA578     -0.2867
     13  CB       -44.1250    0.2100    9.0710 C.3   578  ALA578      0.0290
     14  N        -47.2770   -0.1450   13.0560 N.3   593  GLY593     -0.1210
     15  CA       -48.4640    0.4950   12.5320 C.3   593  GLY593      0.1956
     16  C        -48.9090   -0.1450   11.2400 C.2   593  GLY593      0.2612
     17  O        -48.0920   -0.6770   10.4980 O.2   593  GLY593     -0.2717
     18  N        -50.2160   -0.0730   10.9810 N.am  594  ASN594     -0.1960
     19  CA       -50.7920   -0.5520    9.7490 C.3   594  ASN594      0.1819
     20  C        -51.7750    0.4900    9.2200 C.2   594  ASN594      0.2621
     21  O        -52.5890    1.0310    9.9790 O.2   594  ASN594     -0.2715
     22  CB       -51.5010   -1.9100    9.9170 C.3   594  ASN594      0.1195
     23  CG       -50.5140   -3.0430   10.0430 C.2   594  ASN594      0.2630
     24  OD1      -49.8490   -3.1700   11.0700 O.2   594  ASN594     -0.2716
     25  ND2      -50.3260   -3.7930    8.9650 N.am  594  ASN594     -0.0877
     26  N        -51.7270    0.7130    7.9060 N.am  595  ILE595     -0.1977
     27  CA       -52.7510    1.4540    7.2190 C.3   595  ILE595      0.1596
     28  C        -53.3380    0.5750    6.1150 C.2   595  ILE595      0.2287
     29  O        -52.6360   -0.1960    5.4790 O.2   595  ILE595     -0.2864
     30  CB       -52.1940    2.7790    6.6710 C.3   595  ILE595      0.0276
     31  CG1      -53.3010    3.6450    6.0660 C.3   595  ILE595      0.0022
     32  CG2      -51.0690    2.5170    5.6830 C.3   595  ILE595      0.0022
     33  CD1      -52.8720    5.0620    5.7590 C.3   595  ILE595      0.0001
     34  N        -56.7060    2.3510   10.4900 N.3   617  LEU617     -0.1231
     35  CA       -55.3820    2.3560   11.1020 C.3   617  LEU617      0.1693
     36  C        -55.3370    1.3150   12.2130 C.2   617  LEU617      0.2592
     37  O        -56.3130    1.1220   12.9320 O.2   617  LEU617     -0.2718
     38  CB       -55.0790    3.7410   11.6770 C.3   617  LEU617      0.0284
     39  CG       -55.2530    4.8990   10.7090 C.3   617  LEU617      0.0019
     40  CD1      -55.0910    6.2200   11.4410 C.3   617  LEU617      0.0001
     41  CD2      -54.2710    4.7750    9.5510 C.3   617  LEU617      0.0001
     42  N        -54.1730    0.6860   12.3670 N.am  618  ASP618     -0.1960
     43  CA       -53.8950   -0.1840   13.4890 C.3   618  ASP618      0.1840
     44  C        -52.5240    0.1990   14.0430 C.2   618  ASP618      0.2621
     45  O        -51.6940    0.7260   13.3130 O.2   618  ASP618     -0.2715
     46  CB       -53.9350   -1.6590   13.0800 C.3   618  ASP618      0.1450
     47  CG       -55.0060   -2.0230   12.0550 C.2   618  ASP618      0.3671
     48  OD1      -56.2080   -1.7250   12.3020 O.co2 618  ASP618     -0.2456
     49  OD2      -54.6360   -2.6190   11.0170 O.co2 618  ASP618     -0.2456
     50  N        -52.3280   -0.0280   15.3450 N.am  619  VAL619     -0.1977
     51  CA       -51.0420    0.2180   16.0190 C.3   619  VAL619      0.1596
     52  C        -50.7830   -0.9280   16.9900 C.2   619  VAL619      0.2287
     53  O        -51.7130   -1.5650   17.4930 O.2   619  VAL619     -0.2864
     54  CB       -51.0160    1.5600   16.7760 C.3   619  VAL619      0.0276
     55  CG1      -50.9550    2.7440   15.8280 C.3   619  VAL619      0.0022
     56  CG2      -52.2010    1.6940   17.7180 C.3   619  VAL619      0.0022
     57  N        -54.0040   -2.4850   18.8190 N.3   638  ILE638     -0.1245
     58  CA       -55.3010   -1.9070   18.5660 C.3   638  ILE638      0.1561
     59  C        -55.5720   -1.9660   17.0620 C.2   638  ILE638      0.2260
     60  O        -54.7780   -1.4940   16.2690 O.2   638  ILE638     -0.2867
     61  CB       -55.3670   -0.4660   19.0900 C.3   638  ILE638      0.0252
     62  CG1      -54.9130   -0.3600   20.5470 C.3   638  ILE638      0.0019
     63  CG2      -56.7570    0.1110   18.8860 C.3   638  ILE638      0.0019
     64  CD1      -54.6280    1.0550   20.9940 C.3   638  ILE638      0.0001
     65  N        -58.1990    1.8310   14.8760 N.3   641  LEU641     -0.1245
     66  CA       -57.8780    2.7170   15.9420 C.3   641  LEU641      0.1561
     67  C        -58.8670    3.8940   15.9940 C.2   641  LEU641      0.2260
     68  O        -59.1750    4.4100   17.0770 O.2   641  LEU641     -0.2867
     69  CB       -56.4580    3.2150   15.6900 C.3   641  LEU641      0.0270
     70  CG       -56.0870    4.4530   16.4820 C.3   641  LEU641      0.0019
     71  CD1      -56.0410    4.1100   17.9620 C.3   641  LEU641      0.0001
     72  CD2      -54.7700    5.0330   15.9930 C.3   641  LEU641      0.0001
@<TRIPOS>BOND
     1     1     2    1
     2     7     6    1
     3     8     6    1
     4     5     2    1
     5     5     6    1
     6     2     3    1
     7    29    28    2
     8    32    30    1
     9    33    31    1
    10    31    30    1
    11     3     4    2
    12    28    27    1
    13    30    27    1
    14    27    26    1
    15    26    20   am
    16    25    23   am
    17     9    10    1
    18    13    10    1
    19    20    19    1
    20    20    21    2
    21    10    11    1
    22    41    39    1
    23    19    22    1
    24    19    18    1
    25    22    23    1
    26    23    24    2
    27    34    35    1
    28    17    16    2
    29    39    40    1
    30    39    38    1
    31    11    12    2
    32    18    16   am
    33    49    47   ar
    34    35    38    1
    35    35    36    1
    36    16    15    1
    37    47    48   ar
    38    47    46    1
    39    36    42   am
    40    36    37    2
    41    42    43    1
    42    15    14    1
    43    46    43    1
    44    45    44    2
    45    43    44    1
    46    44    50   am
    47    65    66    1
    48    50    51    1
    49    69    66    1
    50    69    70    1
    51    55    54    1
    52    66    67    1
    53    72    70    1
    54    67    68    2
    55    51    54    1
    56    51    52    1
    57    60    59    2
    58    70    71    1
    59    54    56    1
    60    52    53    2
    61    59    58    1
    62    58    57    1
    63    58    61    1
    64    63    61    1
    65    61    62    1
    66    62    64    1
