@<TRIPOS>MOLECULE
tmp/6h7fC03.pdb
 175 170 0 0 0
SMALL
GASTEIGER

@<TRIPOS>ATOM
      1  N        -70.8870  -15.6320   10.2990 N.3    65  TRP65      -0.1241
      2  CA       -71.0500  -17.0820   10.3120 C.3    65  TRP65       0.1605
      3  C        -69.9410  -17.7840    9.5070 C.2    65  TRP65       0.2264
      4  O        -69.8230  -18.9880    9.5740 O.2    65  TRP65      -0.2867
      5  CB       -72.4360  -17.4750    9.8180 C.3    65  TRP65       0.0550
      6  CG       -72.8350  -16.8440    8.5250 C.ar   65  TRP65       0.0003
      7  CD1      -73.5340  -15.6840    8.3580 C.ar   65  TRP65       0.0946
      8  CD2      -72.6220  -17.3780    7.2120 C.ar   65  TRP65       0.0152
      9  NE1      -73.7200  -15.4290    7.0270 N.ar   65  TRP65      -0.2442
     10  CE2      -73.1680  -16.4490    6.2980 C.ar   65  TRP65       0.0810
     11  CE3      -71.9640  -18.5020    6.7160 C.ar   65  TRP65       0.0012
     12  CZ2      -73.1120  -16.6450    4.9190 C.ar   65  TRP65       0.0191
     13  CZ3      -71.8980  -18.6880    5.3510 C.ar   65  TRP65       0.0001
     14  CH2      -72.4520  -17.7660    4.4650 C.ar   65  TRP65       0.0015
     15  N        -65.7200  -23.2040    7.6540 N.3    93  TYR93      -0.1241
     16  CA       -66.1430  -21.7750    7.5370 C.3    93  TYR93       0.1605
     17  C        -65.1590  -20.8220    8.2430 C.2    93  TYR93       0.2264
     18  O        -65.0060  -19.6780    7.8190 O.2    93  TYR93      -0.2867
     19  CB       -67.5620  -21.5640    8.0690 C.3    93  TYR93       0.0534
     20  CG       -68.6780  -21.8630    7.0970 C.ar   93  TYR93      -0.0201
     21  CD1      -68.5000  -21.7610    5.7270 C.ar   93  TYR93      -0.0009
     22  CD2      -69.9390  -22.1910    7.5570 C.ar   93  TYR93      -0.0009
     23  CE1      -69.5370  -21.9990    4.8380 C.ar   93  TYR93       0.0417
     24  CE2      -70.9810  -22.4510    6.6870 C.ar   93  TYR93       0.0417
     25  CZ       -70.7830  -22.3540    5.3220 C.ar   93  TYR93       0.1957
     26  OH       -71.8290  -22.6150    4.4750 O.3    93  TYR93      -0.2866
     27  N        -75.1650  -11.2380   10.4920 N.3   221  ARG221     -0.1245
     28  CA       -75.7240  -11.8430    9.2770 C.3   221  ARG221      0.1563
     29  C        -75.8230  -10.7910    8.1630 C.2   221  ARG221      0.2260
     30  O        -75.7610  -11.1150    6.9790 O.2   221  ARG221     -0.2867
     31  CB       -77.0890  -12.4510    9.5830 C.3   221  ARG221      0.0307
     32  CG       -77.8420  -12.9600    8.3650 C.3   221  ARG221      0.0489
     33  CD       -77.2140  -14.1680    7.6730 C.3   221  ARG221      0.2205
     34  NE       -78.1220  -14.6600    6.6230 N.pl3 221  ARG221     -0.0865
     35  CZ       -77.9520  -15.7530    5.9130 C.cat 221  ARG221      0.5346
     36  NH1      -76.8750  -16.5040    6.0930 N.pl3 221  ARG221      0.1354
     37  NH2      -78.8730  -16.0990    5.0310 N.pl3 221  ARG221      0.1354
     38  N        -72.5050  -27.8300   11.3490 N.3   280  TYR280     -0.1241
     39  CA       -72.8870  -26.4160   11.3760 C.3   280  TYR280      0.1605
     40  C        -74.3060  -26.3000   11.9130 C.2   280  TYR280      0.2264
     41  O        -75.1860  -27.0710   11.5130 O.2   280  TYR280     -0.2867
     42  CB       -72.8330  -25.8230    9.9660 C.3   280  TYR280      0.0534
     43  CG       -73.3290  -24.4060    9.8270 C.ar  280  TYR280     -0.0201
     44  CD1      -72.4490  -23.3390    9.8970 C.ar  280  TYR280     -0.0009
     45  CD2      -74.6520  -24.1300    9.5390 C.ar  280  TYR280     -0.0009
     46  CE1      -72.8780  -22.0350    9.7400 C.ar  280  TYR280      0.0417
     47  CE2      -75.0970  -22.8270    9.3640 C.ar  280  TYR280      0.0417
     48  CZ       -74.2060  -21.7730    9.4690 C.ar  280  TYR280      0.1957
     49  OH       -74.6160  -20.4750    9.2860 O.3   280  TYR280     -0.2866
     50  N        -77.0860  -22.9010   12.9060 N.3   282  TYR282     -0.1241
     51  CA       -77.3580  -21.4730   12.9070 C.3   282  TYR282      0.1605
     52  C        -78.8090  -21.2470   13.2920 C.2   282  TYR282      0.2264
     53  O        -79.6860  -21.8280   12.6910 O.2   282  TYR282     -0.2867
     54  CB       -77.1010  -20.8590   11.5320 C.3   282  TYR282      0.0534
     55  CG       -77.3670  -19.3750   11.4250 C.ar  282  TYR282     -0.0201
     56  CD1      -78.6550  -18.8720   11.3640 C.ar  282  TYR282     -0.0009
     57  CD2      -76.3220  -18.4740   11.3890 C.ar  282  TYR282     -0.0009
     58  CE1      -78.8980  -17.5170   11.2500 C.ar  282  TYR282      0.0417
     59  CE2      -76.5450  -17.1150   11.2770 C.ar  282  TYR282      0.0417
     60  CZ       -77.8320  -16.6340   11.1770 C.ar  282  TYR282      0.1957
     61  OH       -78.0290  -15.2890   11.0800 O.3   282  TYR282     -0.2866
     62  N        -81.3080  -14.5360   12.3720 N.3   285  ALA285     -0.1231
     63  CA       -81.9440  -13.8640   11.2440 C.3   285  ALA285      0.1694
     64  C        -81.4170  -14.4670    9.9400 C.2   285  ALA285      0.2592
     65  O        -80.2230  -14.7780    9.8430 O.2   285  ALA285     -0.2718
     66  CB       -81.6840  -12.3860   11.3120 C.3   285  ALA285      0.0304
     67  N        -82.3140  -14.6270    8.9570 N.am  286  SER286     -0.1952
     68  CA       -81.9290  -14.9080    7.5690 C.3   286  SER286      0.1924
     69  C        -81.5010  -13.6080    6.8840 C.2   286  SER286      0.2314
     70  O        -80.5350  -13.5890    6.1510 O.2   286  SER286     -0.2863
     71  CB       -83.0160  -15.5980    6.7950 C.3   286  SER286      0.2116
     72  OG       -84.2530  -14.9340    6.9590 O.3   286  SER286     -0.2180
     73  N        -84.5540  -17.5780   10.5100 N.3   302  GLY302     -0.1210
     74  CA       -84.3470  -18.8780    9.9040 C.3   302  GLY302      0.1956
     75  C        -83.4480  -19.7460   10.7610 C.2   302  GLY302      0.2612
     76  O        -82.8060  -19.2490   11.6880 O.2   302  GLY302     -0.2717
     77  N        -83.4280  -21.0480   10.4590 N.am  303  GLN303     -0.1965
     78  CA       -82.5500  -22.0120   11.1160 C.3   303  GLN303      0.1733
     79  C        -81.9850  -22.9620   10.0650 C.2   303  GLN303      0.2616
     80  O        -82.6580  -23.3030    9.0970 O.2   303  GLN303     -0.2715
     81  CB       -83.2880  -22.8180   12.1800 C.3   303  GLN303      0.0408
     82  CG       -83.9620  -21.9630   13.2310 C.3   303  GLN303      0.0908
     83  CD       -84.6770  -22.7690   14.2930 C.2   303  GLN303      0.2608
     84  OE1      -85.0220  -23.9380   14.0970 O.2   303  GLN303     -0.2717
     85  NE2      -84.9410  -22.1240   15.4200 N.am  303  GLN303     -0.0878
     86  N        -80.7230  -23.3450   10.2680 N.am  304  LEU304     -0.1977
     87  CA       -80.0390  -24.2840    9.4140 C.3   304  LEU304      0.1596
     88  C        -79.1060  -25.1600   10.2620 C.2   304  LEU304      0.2287
     89  O        -78.4280  -24.6870   11.1800 O.2   304  LEU304     -0.2864
     90  CB       -79.2760  -23.5020    8.3480 C.3   304  LEU304      0.0297
     91  CG       -78.4330  -24.3420    7.3920 C.3   304  LEU304      0.0022
     92  CD1      -79.3190  -25.1400    6.4660 C.3   304  LEU304      0.0001
     93  CD2      -77.4810  -23.4700    6.6040 C.3   304  LEU304      0.0001
     94  N        -76.3420  -28.4350    9.0730 N.3   306  PHE306     -0.1241
     95  CA       -75.9020  -29.4070    8.1170 C.3   306  PHE306      0.1605
     96  C        -74.6980  -30.1480    8.6820 C.2   306  PHE306      0.2264
     97  O        -73.9510  -29.6040    9.4910 O.2   306  PHE306     -0.2867
     98  CB       -75.6530  -28.7800    6.7360 C.3   306  PHE306      0.0534
     99  CG       -74.5650  -27.7330    6.6590 C.ar  306  PHE306     -0.0203
    100  CD1      -73.2320  -28.0990    6.5500 C.ar  306  PHE306     -0.0042
    101  CD2      -74.8800  -26.3810    6.6200 C.ar  306  PHE306     -0.0042
    102  CE1      -72.2330  -27.1380    6.4420 C.ar  306  PHE306     -0.0003
    103  CE2      -73.8800  -25.4200    6.5220 C.ar  306  PHE306     -0.0003
    104  CZ       -72.5590  -25.8000    6.4390 C.ar  306  PHE306     -0.0000
    105  N        -73.6040  -35.3280    2.8060 N.3   341  GLN341     -0.1245
    106  CA       -74.0970  -34.1920    3.5420 C.3   341  GLN341      0.1566
    107  C        -75.5940  -34.3670    3.7940 C.2   341  GLN341      0.2260
    108  O        -76.3240  -34.7780    2.8920 O.2   341  GLN341     -0.2867
    109  CB       -73.8060  -32.9100    2.7540 C.3   341  GLN341      0.0367
    110  CG       -74.2220  -31.6380    3.4870 C.3   341  GLN341      0.0905
    111  CD       -73.5760  -30.4250    2.8750 C.2   341  GLN341      0.2608
    112  OE1      -72.4360  -30.4880    2.4370 O.2   341  GLN341     -0.2717
    113  NE2      -74.3030  -29.3150    2.8340 N.am  341  GLN341     -0.0878
    114  N        -78.7790  -31.7410    5.1470 N.3   343  ASP343     -0.1239
    115  CA       -79.1970  -30.3760    5.4660 C.3   343  ASP343      0.1674
    116  C        -80.5600  -30.4300    6.1630 C.2   343  ASP343      0.2266
    117  O        -81.4870  -31.1280    5.7100 O.2   343  ASP343     -0.2867
    118  CB       -79.2720  -29.4990    4.2100 C.3   343  ASP343      0.1410
    119  CG       -77.9370  -28.9170    3.7470 C.2   343  ASP343      0.3668
    120  OD1      -77.0660  -29.7140    3.3010 O.co2 343  ASP343     -0.2456
    121  OD2      -77.7800  -27.6600    3.8100 O.co2 343  ASP343     -0.2456
    122  N        -83.3260  -27.3880    7.9070 N.3   345  GLY345     -0.1210
    123  CA       -83.5300  -25.9490    7.9650 C.3   345  GLY345      0.1956
    124  C        -84.9800  -25.5280    7.8650 C.2   345  GLY345      0.2612
    125  O        -85.8530  -26.2970    7.4650 O.2   345  GLY345     -0.2717
    126  N        -85.2100  -24.2820    8.2720 N.am  346  TYR346     -0.1962
    127  CA       -86.4140  -23.5330    7.9940 C.3   346  TYR346      0.1771
    128  C        -86.0460  -22.2880    7.1980 C.2   346  TYR346      0.2619
    129  O        -85.1670  -21.5430    7.6230 O.2   346  TYR346     -0.2715
    130  CB       -87.0470  -23.0280    9.2880 C.3   346  TYR346      0.0574
    131  CG       -87.6760  -24.0590   10.1890 C.ar  346  TYR346     -0.0198
    132  CD1      -88.7640  -24.8190    9.7760 C.ar  346  TYR346     -0.0009
    133  CD2      -87.2740  -24.1710   11.5100 C.ar  346  TYR346     -0.0009
    134  CE1      -89.3810  -25.7240   10.6320 C.ar  346  TYR346      0.0417
    135  CE2      -87.8910  -25.0560   12.3830 C.ar  346  TYR346      0.0417
    136  CZ       -88.9500  -25.8310   11.9450 C.ar  346  TYR346      0.1957
    137  OH       -89.5420  -26.7020   12.8080 O.3   346  TYR346     -0.2866
    138  N        -86.7300  -22.0660    6.0750 N.am  347  ARG347     -0.1977
    139  CA       -86.7760  -20.7570    5.4200 C.3   347  ARG347      0.1597
    140  C        -87.7640  -19.8640    6.1720 C.2   347  ARG347      0.2287
    141  O        -87.5720  -18.6750    6.3130 O.2   347  ARG347     -0.2864
    142  CB       -87.1920  -20.9010    3.9500 C.3   347  ARG347      0.0334
    143  CG       -86.0890  -21.4250    3.0350 C.3   347  ARG347      0.0492
    144  CD       -86.5750  -21.8690    1.6550 C.3   347  ARG347      0.2205
    145  NE       -85.5200  -22.4950    0.8520 N.pl3 347  ARG347     -0.0865
    146  CZ       -85.3370  -23.8110    0.7210 C.cat 347  ARG347      0.5346
    147  NH1      -86.2340  -24.6630    1.1940 N.pl3 347  ARG347      0.1354
    148  NH2      -84.2510  -24.2700    0.1170 N.pl3 347  ARG347      0.1354
    149  N        -84.1760  -31.6210    5.1660 N.3   378  LEU378     -0.1231
    150  CA       -84.5150  -31.0700    3.8350 C.3   378  LEU378      0.1693
    151  C        -84.0470  -32.0260    2.7280 C.2   378  LEU378      0.2592
    152  O        -84.8230  -32.4080    1.8530 O.2   378  LEU378     -0.2718
    153  CB       -83.8640  -29.6930    3.6580 C.3   378  LEU378      0.0284
    154  CG       -84.3850  -28.5890    4.5810 C.3   378  LEU378      0.0019
    155  CD1      -83.5610  -27.3100    4.4170 C.3   378  LEU378      0.0001
    156  CD2      -85.8680  -28.3260    4.3230 C.3   378  LEU378      0.0001
    157  N        -82.7620  -32.3790    2.7350 N.am  379  PHE379     -0.1976
    158  CA       -82.2200  -33.1840    1.6390 C.3   379  PHE379      0.1639
    159  C        -80.8280  -33.7120    1.9940 C.2   379  PHE379      0.2290
    160  O        -80.1080  -33.1210    2.8000 O.2   379  PHE379     -0.2864
    161  CB       -82.2020  -32.3870    0.3280 C.3   379  PHE379      0.0560
    162  CG       -81.3660  -31.1370    0.3620 C.ar  379  PHE379     -0.0200
    163  CD1      -79.9870  -31.1970    0.1910 C.ar  379  PHE379     -0.0042
    164  CD2      -81.9580  -29.8990    0.5440 C.ar  379  PHE379     -0.0042
    165  CE1      -79.2190  -30.0420    0.2290 C.ar  379  PHE379     -0.0003
    166  CE2      -81.1860  -28.7490    0.5950 C.ar  379  PHE379     -0.0003
    167  CZ       -79.8190  -28.8230    0.4520 C.ar  379  PHE379     -0.0000
    168  N        -74.2460  -13.1460    0.9550 N.3   652  LEU652     -0.1245
    169  CA       -75.6670  -13.5040    0.9320 C.3   652  LEU652      0.1561
    170  C        -76.5410  -12.2700    1.2170 C.2   652  LEU652      0.2260
    171  O        -77.6130  -12.1660    0.6850 O.2   652  LEU652     -0.2867
    172  CB       -75.9550  -14.6380    1.9180 C.3   652  LEU652      0.0270
    173  CG       -75.1790  -15.9400    1.6720 C.3   652  LEU652      0.0019
    174  CD1      -75.7390  -17.0650    2.5230 C.3   652  LEU652      0.0001
    175  CD2      -75.1890  -16.3390    0.2020 C.3   652  LEU652      0.0001
@<TRIPOS>BOND
     1   148   146    1
     2   163   165   ar
     3   163   162   ar
     4   175   173    1
     5   165   167   ar
     6   161   162    1
     7   161   158    1
     8   162   164   ar
     9   167   166   ar
    10   164   166   ar
    11   171   170    2
    12   146   145    2
    13   146   147    1
    14   145   144    1
    15   169   168    1
    16   169   170    1
    17   169   172    1
    18   158   159    1
    19   158   157    1
    20   144   143    1
    21   173   172    1
    22   173   174    1
    23   152   151    2
    24   159   160    2
    25   112   111    2
    26   151   157   am
    27   151   150    1
    28   109   110    1
    29   109   106    1
    30   105   106    1
    31   113   111   am
    32   111   110    1
    33   108   107    2
    34   143   142    1
    35   120   119   ar
    36   106   107    1
    37   153   150    1
    38   153   154    1
    39   119   121   ar
    40   119   118    1
    41   150   149    1
    42   142   139    1
    43   118   115    1
    44   156   154    1
    45   155   154    1
    46    14    12   ar
    47    14    13   ar
    48    26    25    1
    49    23    25   ar
    50    23    21   ar
    51    12    10   ar
    52    37    35    1
    53   114   115    1
    54    25    24   ar
    55    13    11   ar
    56   139   138    1
    57   139   140    1
    58   115   116    1
    59   117   116    2
    60    21    20   ar
    61    35    36    1
    62    35    34    2
    63   138   128   am
    64    70    69    2
    65   140   141    2
    66    10     9   ar
    67    10     8   ar
    68   104   102   ar
    69   104   103   ar
    70   102   100   ar
    71    92    91    1
    72   103   101   ar
    73   100    99   ar
    74    93    91    1
    75   101    99   ar
    76    34    33    1
    77    99    98    1
    78    24    22   ar
    79    11     8   ar
    80    98    95    1
    81    71    72    1
    82    71    68    1
    83    69    68    1
    84    30    29    2
    85     9     7   ar
    86    20    22   ar
    87    20    19    1
    88   128   129    2
    89   128   127    1
    90     8     6   ar
    91    91    90    1
    92   125   124    2
    93    16    15    1
    94    16    19    1
    95    16    17    1
    96    68    67    1
    97    33    32    1
    98    18    17    2
    99   124   123    1
   100   124   126   am
   101   122   123    1
   102   127   126    1
   103   127   130    1
   104    95    96    1
   105    95    94    1
   106    29    28    1
   107    90    87    1
   108     7     6   ar
   109    32    31    1
   110     6     5    1
   111    96    97    2
   112    67    64   am
   113    80    79    2
   114    28    31    1
   115    28    27    1
   116    49    48    1
   117   130   131    1
   118    47    48   ar
   119    47    45   ar
   120    87    88    1
   121    87    86    1
   122    48    46   ar
   123     3     4    2
   124     3     2    1
   125    45    43   ar
   126    46    44   ar
   127   132   131   ar
   128   132   134   ar
   129     5     2    1
   130    43    44   ar
   131    43    42    1
   132    65    64    2
   133    74    73    1
   134    74    75    1
   135    64    63    1
   136    42    39    1
   137    79    86   am
   138    79    78    1
   139   131   133   ar
   140    88    89    2
   141     1     2    1
   142    77    75   am
   143    77    78    1
   144   134   136   ar
   145    75    76    2
   146    61    60    1
   147    78    81    1
   148    60    58   ar
   149    60    59   ar
   150    63    66    1
   151    63    62    1
   152    58    56   ar
   153    59    57   ar
   154    38    39    1
   155    56    55   ar
   156    39    40    1
   157    57    55   ar
   158    55    54    1
   159   133   135   ar
   160    41    40    2
   161    54    51    1
   162   136   135   ar
   163   136   137    1
   164    81    82    1
   165    53    52    2
   166    50    51    1
   167    51    52    1
   168    82    83    1
   169    84    83    2
   170    83    85   am
