@<TRIPOS>MOLECULE
tmp/6h7fB09.pdb
 142 136 0 0 0
SMALL
GASTEIGER

@<TRIPOS>ATOM
      1  N        -49.8370  -16.9510   69.5390 N.3   403  LEU403     -0.1245
      2  CA       -51.2560  -17.1060   69.8360 C.3   403  LEU403      0.1561
      3  C        -51.7580  -15.8130   70.4610 C.2   403  LEU403      0.2260
      4  O        -51.2720  -15.4120   71.5200 O.2   403  LEU403     -0.2867
      5  CB       -51.4610  -18.2760   70.8000 C.3   403  LEU403      0.0270
      6  CG       -52.8870  -18.4660   71.3090 C.3   403  LEU403      0.0019
      7  CD1      -53.8010  -18.9260   70.1850 C.3   403  LEU403      0.0001
      8  CD2      -52.9250  -19.4670   72.4560 C.3   403  LEU403      0.0001
      9  N        -59.5350  -14.8020   68.6700 N.3   433  VAL433     -0.1245
     10  CA       -58.3490  -15.6250   68.8020 C.3   433  VAL433      0.1561
     11  C        -57.6890  -15.7420   67.4220 C.2   433  VAL433      0.2260
     12  O        -58.3570  -15.8910   66.4150 O.2   433  VAL433     -0.2867
     13  CB       -58.6960  -16.9980   69.4160 C.3   433  VAL433      0.0252
     14  CG1      -59.8860  -17.6520   68.7360 C.3   433  VAL433      0.0019
     15  CG2      -57.5110  -17.9480   69.4260 C.3   433  VAL433      0.0019
     16  N        -53.9610  -17.5320   65.5870 N.3   435  LEU435     -0.1245
     17  CA       -52.7790  -18.3630   65.6970 C.3   435  LEU435      0.1561
     18  C        -51.9270  -18.1680   64.4440 C.2   435  LEU435      0.2260
     19  O        -52.4320  -18.2370   63.3280 O.2   435  LEU435     -0.2867
     20  CB       -53.2280  -19.8170   65.8500 C.3   435  LEU435      0.0270
     21  CG       -52.1180  -20.8620   65.9010 C.3   435  LEU435      0.0019
     22  CD1      -51.2080  -20.6300   67.0990 C.3   435  LEU435      0.0001
     23  CD2      -52.7170  -22.2590   65.9370 C.3   435  LEU435      0.0001
     24  N        -54.4650  -18.6550   61.3080 N.3   447  ALA447     -0.1231
     25  CA       -55.9080  -18.8100   61.4070 C.3   447  ALA447      0.1694
     26  C        -56.4340  -17.7840   62.4030 C.2   447  ALA447      0.2592
     27  O        -55.6990  -17.3690   63.2920 O.2   447  ALA447     -0.2718
     28  CB       -56.2480  -20.2150   61.8330 C.3   447  ALA447      0.0304
     29  N        -57.6930  -17.3680   62.2340 N.am  448  ASN448     -0.1960
     30  CA       -58.3220  -16.4580   63.1980 C.3   448  ASN448      0.1819
     31  C        -59.8180  -16.7650   63.2980 C.2   448  ASN448      0.2621
     32  O        -60.4320  -17.3110   62.3630 O.2   448  ASN448     -0.2715
     33  CB       -58.0180  -14.9840   62.8940 C.3   448  ASN448      0.1195
     34  CG       -58.6850  -14.4520   61.6400 C.2   448  ASN448      0.2630
     35  OD1      -59.9140  -14.4660   61.5320 O.2   448  ASN448     -0.2716
     36  ND2      -57.8790  -13.9580   60.7000 N.am  448  ASN448     -0.0877
     37  N        -60.3600  -16.4860   64.4840 N.am  449  TYR449     -0.1974
     38  CA       -61.7590  -16.2060   64.6970 C.3   449  TYR449      0.1639
     39  C        -61.8730  -14.8120   65.3090 C.2   449  TYR449      0.2290
     40  O        -61.1700  -14.4810   66.2660 O.2   449  TYR449     -0.2864
     41  CB       -62.4100  -17.2350   65.6290 C.3   449  TYR449      0.0560
     42  CG       -63.8320  -16.8930   65.9980 C.ar  449  TYR449     -0.0198
     43  CD1      -64.1120  -15.9830   67.0090 C.ar  449  TYR449     -0.0009
     44  CD2      -64.8970  -17.4180   65.2840 C.ar  449  TYR449     -0.0009
     45  CE1      -65.4140  -15.6230   67.3150 C.ar  449  TYR449      0.0417
     46  CE2      -66.2070  -17.0770   65.5840 C.ar  449  TYR449      0.0417
     47  CZ       -66.4660  -16.1750   66.6020 C.ar  449  TYR449      0.1957
     48  OH       -67.7510  -15.8180   66.8930 O.3   449  TYR449     -0.2866
     49  N        -64.3340  -16.7330   60.3930 N.3   478  GLN478     -0.1231
     50  CA       -63.2400  -17.6670   60.5280 C.3   478  GLN478      0.1698
     51  C        -62.3640  -17.5720   59.2850 C.2   478  GLN478      0.2592
     52  O        -62.8760  -17.4700   58.1800 O.2   478  GLN478     -0.2718
     53  CB       -63.7790  -19.0860   60.6520 C.3   478  GLN478      0.0381
     54  CG       -64.3840  -19.3970   62.0080 C.3   478  GLN478      0.0905
     55  CD       -64.9290  -20.8020   62.0260 C.2   478  GLN478      0.2608
     56  OE1      -66.1200  -21.0210   61.8220 O.2   478  GLN478     -0.2717
     57  NE2      -64.0420  -21.7660   62.2260 N.am  478  GLN478     -0.0878
     58  N        -61.0520  -17.6370   59.4790 N.am  479  GLU479     -0.1966
     59  CA       -60.1050  -17.4450   58.3970 C.3   479  GLU479      0.1733
     60  C        -58.9430  -18.4260   58.5620 C.2   479  GLU479      0.2616
     61  O        -58.4660  -18.6660   59.6860 O.2   479  GLU479     -0.2715
     62  CB       -59.6170  -15.9970   58.3810 C.3   479  GLU479      0.0429
     63  CG       -58.5830  -15.7140   57.3020 C.3   479  GLU479      0.1163
     64  CD       -58.2290  -14.2430   57.1210 C.2   479  GLU479      0.3649
     65  OE1      -58.8150  -13.3890   57.8450 O.co2 479  GLU479     -0.2457
     66  OE2      -57.3710  -13.9490   56.2500 O.co2 479  GLU479     -0.2457
     67  N        -58.5210  -19.0030   57.4330 N.am  480  LEU480     -0.1977
     68  CA       -57.2710  -19.7440   57.3120 C.3   480  LEU480      0.1596
     69  C        -56.4410  -19.1270   56.1840 C.2   480  LEU480      0.2287
     70  O        -56.9770  -18.7900   55.1370 O.2   480  LEU480     -0.2864
     71  CB       -57.5930  -21.2120   57.0150 C.3   480  LEU480      0.0297
     72  CG       -56.3780  -22.1400   56.9360 C.3   480  LEU480      0.0022
     73  CD1      -55.7240  -22.2900   58.2990 C.3   480  LEU480      0.0001
     74  CD2      -56.7550  -23.5070   56.3800 C.3   480  LEU480      0.0001
     75  N        -58.5630  -18.1070   52.9350 N.3   495  ALA495     -0.1231
     76  CA       -59.9440  -18.5240   52.7960 C.3   495  ALA495      0.1694
     77  C        -60.7210  -18.0780   54.0420 C.2   495  ALA495      0.2592
     78  O        -60.1980  -18.1140   55.1550 O.2   495  ALA495     -0.2718
     79  CB       -60.0130  -20.0240   52.6110 C.3   495  ALA495      0.0304
     80  N        -61.9720  -17.6650   53.8530 N.am  496  PHE496     -0.1962
     81  CA       -62.7170  -17.1140   54.9440 C.3   496  PHE496      0.1771
     82  C        -64.1820  -17.4920   54.8190 C.2   496  PHE496      0.2619
     83  O        -64.6760  -17.7670   53.7400 O.2   496  PHE496     -0.2715
     84  CB       -62.5580  -15.5970   55.0140 C.3   496  PHE496      0.0574
     85  CG       -63.1150  -14.8510   53.8300 C.ar  496  PHE496     -0.0200
     86  CD1      -64.4650  -14.5490   53.7540 C.ar  496  PHE496     -0.0042
     87  CD2      -62.2850  -14.4340   52.7990 C.ar  496  PHE496     -0.0042
     88  CE1      -64.9740  -13.8500   52.6700 C.ar  496  PHE496     -0.0003
     89  CE2      -62.7960  -13.7450   51.7110 C.ar  496  PHE496     -0.0003
     90  CZ       -64.1360  -13.4430   51.6530 C.ar  496  PHE496     -0.0000
     91  N        -64.8500  -17.4770   55.9680 N.am  497  GLU497     -0.1977
     92  CA       -66.2880  -17.5170   56.0530 C.3   497  GLU497      0.1602
     93  C        -66.7250  -16.4580   57.0600 C.2   497  GLU497      0.2287
     94  O        -66.2120  -16.4140   58.1690 O.2   497  GLU497     -0.2864
     95  CB       -66.7580  -18.9200   56.4540 C.3   497  GLU497      0.0415
     96  CG       -68.2490  -19.0070   56.7060 C.3   497  GLU497      0.1163
     97  CD       -68.7770  -20.4030   57.0110 C.2   497  GLU497      0.3649
     98  OE1      -68.6740  -21.2850   56.1390 O.co2 497  GLU497     -0.2457
     99  OE2      -69.2910  -20.5970   58.1160 O.co2 497  GLU497     -0.2457
    100  N        -68.4600  -16.6730   51.8300 N.3   526  ARG526     -0.1231
    101  CA       -67.3020  -17.5430   51.7780 C.3   526  ARG526      0.1694
    102  C        -66.4060  -17.0980   50.6260 C.2   526  ARG526      0.2593
    103  O        -66.9030  -16.8050   49.5490 O.2   526  ARG526     -0.2718
    104  CB       -67.7410  -18.9930   51.5630 C.3   526  ARG526      0.0321
    105  CG       -68.4850  -19.6130   52.7390 C.3   526  ARG526      0.0489
    106  CD       -69.0060  -20.9980   52.3940 C.3   526  ARG526      0.2205
    107  NE       -69.5290  -21.6880   53.5590 N.pl3 526  ARG526     -0.0865
    108  CZ       -70.4360  -22.6580   53.5230 C.cat 526  ARG526      0.5346
    109  NH1      -70.8250  -23.1700   52.3690 N.pl3 526  ARG526      0.1354
    110  NH2      -70.9620  -23.0980   54.6450 N.pl3 526  ARG526      0.1354
    111  N        -65.0910  -17.0610   50.8660 N.am  527  GLY527     -0.1942
    112  CA       -64.1510  -16.5080   49.8980 C.3   527  GLY527      0.2014
    113  C        -62.8140  -17.2230   49.9220 C.2   527  GLY527      0.2638
    114  O        -62.4110  -17.7210   50.9540 O.2   527  GLY527     -0.2714
    115  N        -62.1520  -17.2660   48.7590 N.am  528  ILE528     -0.1977
    116  CA       -60.7140  -17.5720   48.6100 C.3   528  ILE528      0.1596
    117  C        -60.0570  -16.3730   47.9180 C.2   528  ILE528      0.2287
    118  O        -60.5610  -15.8930   46.9110 O.2   528  ILE528     -0.2864
    119  CB       -60.4840  -18.8450   47.7640 C.3   528  ILE528      0.0276
    120  CG1      -61.5400  -19.9230   48.0160 C.3   528  ILE528      0.0022
    121  CG2      -59.0710  -19.3770   47.9650 C.3   528  ILE528      0.0022
    122  CD1      -61.2770  -20.7520   49.2500 C.3   528  ILE528      0.0001
    123  N        -62.4170  -15.7030   44.5020 N.3   548  TYR548     -0.1241
    124  CA       -63.7640  -16.2260   44.3740 C.3   548  TYR548      0.1605
    125  C        -64.5380  -15.9210   45.6640 C.2   548  TYR548      0.2264
    126  O        -64.0600  -16.2010   46.7680 O.2   548  TYR548     -0.2867
    127  CB       -63.7530  -17.7290   44.0730 C.3   548  TYR548      0.0534
    128  CG       -65.1250  -18.3560   44.0880 C.ar  548  TYR548     -0.0201
    129  CD1      -65.9800  -18.2320   43.0000 C.ar  548  TYR548     -0.0009
    130  CD2      -65.5960  -19.0260   45.2100 C.ar  548  TYR548     -0.0009
    131  CE1      -67.2540  -18.7840   43.0140 C.ar  548  TYR548      0.0417
    132  CE2      -66.8650  -19.5850   45.2410 C.ar  548  TYR548      0.0417
    133  CZ       -67.6980  -19.4650   44.1390 C.ar  548  TYR548      0.1957
    134  OH       -68.9500  -20.0120   44.1750 O.3   548  TYR548     -0.2866
    135  N        -68.4880  -16.3320   47.3860 N.3   550  ASP550     -0.1239
    136  CA       -69.8530  -16.8310   47.4110 C.3   550  ASP550      0.1674
    137  C        -70.6210  -16.0750   48.4860 C.2   550  ASP550      0.2266
    138  O        -70.5740  -16.4320   49.6620 O.2   550  ASP550     -0.2867
    139  CB       -69.8900  -18.3430   47.6550 C.3   550  ASP550      0.1410
    140  CG       -71.2920  -18.9180   47.7800 C.2   550  ASP550      0.3668
    141  OD1      -72.1940  -18.4240   47.0570 O.co2 550  ASP550     -0.2456
    142  OD2      -71.4780  -19.8370   48.6180 O.co2 550  ASP550     -0.2456
@<TRIPOS>BOND
     1   129   131   ar
     2   129   128   ar
     3   131   133   ar
     4   127   128    1
     5   127   124    1
     6   128   130   ar
     7   133   134    1
     8   133   132   ar
     9   124   123    1
    10   124   125    1
    11   130   132   ar
    12   125   126    2
    13   118   117    2
    14   141   140   ar
    15   135   136    1
    16   136   139    1
    17   136   137    1
    18   139   140    1
    19   119   121    1
    20   119   120    1
    21   119   116    1
    22   140   142   ar
    23   117   116    1
    24   120   122    1
    25   137   138    2
    26   116   115    1
    27   115   113   am
    28   103   102    2
    29   112   113    1
    30   112   111    1
    31   113   114    2
    32   102   111   am
    33   102   101    1
    34   104   101    1
    35   104   105    1
    36    90    89   ar
    37    90    88   ar
    38    89    87   ar
    39   101   100    1
    40   109   108    1
    41   106   105    1
    42   106   107    1
    43    79    76    1
    44    88    86   ar
    45    76    75    1
    46    76    77    1
    47    87    85   ar
    48   108   107    2
    49   108   110    1
    50    83    82    2
    51    86    85   ar
    52    85    84    1
    53    80    77   am
    54    80    81    1
    55    77    78    2
    56    82    81    1
    57    82    91   am
    58    81    84    1
    59    70    69    2
    60    91    92    1
    61    92    95    1
    62    92    93    1
    63    98    97   ar
    64    69    68    1
    65    66    64   ar
    66    74    72    1
    67    95    96    1
    68    96    97    1
    69    72    71    1
    70    72    73    1
    71    97    99   ar
    72    71    68    1
    73    93    94    2
    74    64    63    1
    75    64    65   ar
    76    63    62    1
    77    68    67    1
    78    67    60   am
    79    52    51    2
    80    62    59    1
    81    59    60    1
    82    59    58    1
    83    60    61    2
    84    51    58   am
    85    51    50    1
    86    49    50    1
    87    50    53    1
    88    53    54    1
    89    36    34   am
    90    24    25    1
    91    25    28    1
    92    25    26    1
    93    35    34    2
    94    34    33    1
    95    56    55    2
    96    54    55    1
    97    55    57   am
    98    29    26   am
    99    29    30    1
   100    32    31    2
   101    26    27    2
   102    33    30    1
   103    30    31    1
   104    31    37   am
   105    19    18    2
   106    18    17    1
   107    37    38    1
   108    38    39    1
   109    38    41    1
   110    44    46   ar
   111    44    42   ar
   112    39    40    2
   113    46    47   ar
   114    16    17    1
   115    41    42    1
   116    17    20    1
   117    20    21    1
   118    21    23    1
   119    21    22    1
   120    42    43   ar
   121    12    11    2
   122    47    48    1
   123    47    45   ar
   124    43    45   ar
   125    11    10    1
   126     9    10    1
   127    14    13    1
   128    10    13    1
   129    13    15    1
   130     1     2    1
   131     2     3    1
   132     2     5    1
   133     7     6    1
   134     3     4    2
   135     5     6    1
   136     6     8    1
