@<TRIPOS>MOLECULE
tmp/6h7fC05.pdb
 111 108 0 0 0
SMALL
GASTEIGER

@<TRIPOS>ATOM
      1  N        -54.1320  -15.1330  -17.5200 N.3   478  GLN478     -0.1231
      2  CA       -52.7950  -14.8780  -18.0130 C.3   478  GLN478      0.1698
      3  C        -52.1320  -13.8500  -17.1000 C.2   478  GLN478      0.2592
      4  O        -52.7660  -12.8980  -16.6590 O.2   478  GLN478     -0.2718
      5  CB       -52.8200  -14.4500  -19.4860 C.3   478  GLN478      0.0381
      6  CG       -53.3770  -13.0530  -19.7260 C.3   478  GLN478      0.0905
      7  CD       -53.6660  -12.7850  -21.1900 C.2   478  GLN478      0.2608
      8  OE1      -53.2080  -13.5020  -22.0810 O.2   478  GLN478     -0.2717
      9  NE2      -54.4380  -11.7400  -21.4510 N.am  478  GLN478     -0.0878
     10  N        -50.8400  -14.0600  -16.8320 N.am  479  GLU479     -0.1966
     11  CA       -50.1230  -13.2560  -15.8820 C.3   479  GLU479      0.1733
     12  C        -48.7070  -12.9940  -16.4010 C.2   479  GLU479      0.2616
     13  O        -48.0810  -13.8810  -16.9790 O.2   479  GLU479     -0.2715
     14  CB       -50.1140  -13.9590  -14.5210 C.3   479  GLU479      0.0429
     15  CG       -49.3240  -13.2080  -13.4590 C.3   479  GLU479      0.1163
     16  CD       -49.4160  -13.7990  -12.0620 C.2   479  GLU479      0.3649
     17  OE1      -50.1860  -14.8060  -11.8820 O.co2 479  GLU479     -0.2457
     18  OE2      -48.7390  -13.2440  -11.1390 O.co2 479  GLU479     -0.2457
     19  N        -48.2250  -11.7630  -16.1730 N.am  480  LEU480     -0.1977
     20  CA       -46.8310  -11.3650  -16.3680 C.3   480  LEU480      0.1596
     21  C        -46.3410  -10.6950  -15.0890 C.2   480  LEU480      0.2287
     22  O        -47.0760   -9.9060  -14.4840 O.2   480  LEU480     -0.2864
     23  CB       -46.7410  -10.3800  -17.5410 C.3   480  LEU480      0.0297
     24  CG       -45.3580   -9.7680  -17.7820 C.3   480  LEU480      0.0022
     25  CD1      -44.3810  -10.8130  -18.3190 C.3   480  LEU480      0.0001
     26  CD2      -45.4390   -8.5840  -18.7420 C.3   480  LEU480      0.0001
     27  N        -49.0420   -8.1980  -13.3920 N.3   495  ALA495     -0.1231
     28  CA       -50.2450   -7.8180  -14.0840 C.3   495  ALA495      0.1694
     29  C        -50.9600   -9.0930  -14.5200 C.2   495  ALA495      0.2592
     30  O        -50.3190  -10.0540  -14.9330 O.2   495  ALA495     -0.2718
     31  CB       -49.9050   -6.9550  -15.2800 C.3   495  ALA495      0.0304
     32  N        -52.2850   -9.0860  -14.4430 N.am  496  PHE496     -0.1962
     33  CA       -53.0320  -10.2870  -14.7300 C.3   496  PHE496      0.1771
     34  C        -54.3510   -9.9220  -15.4020 C.2   496  PHE496      0.2619
     35  O        -54.8570   -8.8160  -15.2590 O.2   496  PHE496     -0.2715
     36  CB       -53.2510  -11.0980  -13.4480 C.3   496  PHE496      0.0574
     37  CG       -54.1330  -10.4300  -12.4250 C.ar  496  PHE496     -0.0200
     38  CD1      -55.5150  -10.4910  -12.5300 C.ar  496  PHE496     -0.0042
     39  CD2      -53.5840   -9.7470  -11.3540 C.ar  496  PHE496     -0.0042
     40  CE1      -56.3230   -9.8740  -11.5940 C.ar  496  PHE496     -0.0003
     41  CE2      -54.3950   -9.1190  -10.4210 C.ar  496  PHE496     -0.0003
     42  CZ       -55.7630   -9.1830  -10.5430 C.ar  496  PHE496     -0.0000
     43  N        -54.9080  -10.9030  -16.0990 N.am  497  GLU497     -0.1977
     44  CA       -56.2730  -10.8650  -16.5760 C.3   497  GLU497      0.1602
     45  C        -56.8810  -12.2420  -16.3170 C.2   497  GLU497      0.2287
     46  O        -56.3180  -13.2480  -16.7370 O.2   497  GLU497     -0.2864
     47  CB       -56.2800  -10.4580  -18.0560 C.3   497  GLU497      0.0415
     48  CG       -57.6140  -10.6260  -18.7650 C.3   497  GLU497      0.1163
     49  CD       -57.6380  -10.1370  -20.2210 C.2   497  GLU497      0.3649
     50  OE1      -57.4510   -8.9150  -20.4630 O.co2 497  GLU497     -0.2457
     51  OE2      -57.8670  -10.9660  -21.1070 O.co2 497  GLU497     -0.2457
     52  N        -59.0470   -7.5490  -14.4660 N.3   526  ARG526     -0.1231
     53  CA       -57.7030   -7.1530  -14.8270 C.3   526  ARG526      0.1694
     54  C        -57.0890   -6.4200  -13.6440 C.2   526  ARG526      0.2593
     55  O        -57.7600   -5.5980  -13.0310 O.2   526  ARG526     -0.2718
     56  CB       -57.7130   -6.2350  -16.0500 C.3   526  ARG526      0.0321
     57  CG       -58.2040   -6.8810  -17.3350 C.3   526  ARG526      0.0489
     58  CD       -58.1920   -5.8850  -18.4870 C.3   526  ARG526      0.2205
     59  NE       -58.4930   -6.4860  -19.7790 N.pl3 526  ARG526     -0.0865
     60  CZ       -59.3170   -5.9540  -20.6800 C.cat 526  ARG526      0.5346
     61  NH1      -59.8130   -4.7370  -20.4950 N.pl3 526  ARG526      0.1354
     62  NH2      -59.6050   -6.6270  -21.7800 N.pl3 526  ARG526      0.1354
     63  N        -55.8150   -6.6980  -13.3620 N.am  527  GLY527     -0.1942
     64  CA       -55.1600   -6.1340  -12.1860 C.3   527  GLY527      0.2014
     65  C        -53.6890   -5.8570  -12.4280 C.2   527  GLY527      0.2638
     66  O        -53.0490   -6.5450  -13.2250 O.2   527  GLY527     -0.2714
     67  N        -53.1740   -4.8430  -11.7210 N.am  528  ILE528     -0.1977
     68  CA       -51.7400   -4.6330  -11.4660 C.3   528  ILE528      0.1596
     69  C        -51.5320   -4.6800   -9.9520 C.2   528  ILE528      0.2287
     70  O        -52.2790   -4.0530   -9.2180 O.2   528  ILE528     -0.2864
     71  CB       -51.2500   -3.2820  -12.0390 C.3   528  ILE528      0.0276
     72  CG1      -51.8580   -2.9800  -13.4040 C.3   528  ILE528      0.0022
     73  CG2      -49.7310   -3.2180  -12.0970 C.3   528  ILE528      0.0022
     74  CD1      -51.1640   -3.6860  -14.5380 C.3   528  ILE528      0.0001
     75  N        -54.3590   -1.9020   -8.4460 N.3   548  TYR548     -0.1227
     76  CA       -55.5160   -1.4720   -9.2050 C.3   548  TYR548      0.1736
     77  C        -56.1830   -2.7230   -9.7780 C.2   548  TYR548      0.2595
     78  O        -55.5220   -3.5490  -10.4000 O.2   548  TYR548     -0.2718
     79  CB       -55.1790   -0.5800  -10.4120 C.3   548  TYR548      0.0548
     80  CG       -54.5700    0.7790  -10.1640 C.ar  548  TYR548     -0.0200
     81  CD1      -55.2510    1.7720   -9.4730 C.ar  548  TYR548     -0.0009
     82  CD2      -53.3560    1.1220  -10.7450 C.ar  548  TYR548     -0.0009
     83  CE1      -54.7060    3.0360   -9.2940 C.ar  548  TYR548      0.0417
     84  CE2      -52.7990    2.3820  -10.5810 C.ar  548  TYR548      0.0417
     85  CZ       -53.4740    3.3420   -9.8480 C.ar  548  TYR548      0.1957
     86  OH       -52.9270    4.5790   -9.6740 O.3   548  TYR548     -0.2866
     87  N        -57.5050   -2.7770   -9.6390 N.am  549  LEU549     -0.1966
     88  CA       -58.3290   -3.8540  -10.1060 C.3   549  LEU549      0.1728
     89  C        -59.4490   -3.2540  -10.9630 C.2   549  LEU549      0.2616
     90  O        -60.1280   -2.3020  -10.5430 O.2   549  LEU549     -0.2715
     91  CB       -58.8890   -4.5850   -8.8780 C.3   549  LEU549      0.0311
     92  CG       -59.8480   -5.7390   -9.1660 C.3   549  LEU549      0.0022
     93  CD1      -59.1200   -6.9080   -9.8270 C.3   549  LEU549      0.0001
     94  CD2      -60.5250   -6.1970   -7.8840 C.3   549  LEU549      0.0001
     95  N        -59.6360   -3.8170  -12.1570 N.am  550  ASP550     -0.1971
     96  CA       -60.8000   -3.5550  -12.9780 C.3   550  ASP550      0.1709
     97  C        -61.6230   -4.8380  -13.0610 C.2   550  ASP550      0.2293
     98  O        -61.3820   -5.6900  -13.9160 O.2   550  ASP550     -0.2864
     99  CB       -60.3790   -3.0170  -14.3490 C.3   550  ASP550      0.1436
    100  CG       -61.5160   -2.8500  -15.3470 C.2   550  ASP550      0.3671
    101  OD1      -62.6320   -2.5110  -14.9220 O.co2 550  ASP550     -0.2456
    102  OD2      -61.2710   -3.0860  -16.5450 O.co2 550  ASP550     -0.2456
    103  N        -61.7610   -1.1570   -6.3400 N.3   571  LYS571     -0.1245
    104  CA       -60.8900   -1.0990   -7.4860 C.3   571  LYS571      0.1561
    105  C        -59.4520   -0.8070   -7.0450 C.2   571  LYS571      0.2260
    106  O        -58.5260   -1.1700   -7.7430 O.2   571  LYS571     -0.2867
    107  CB       -61.4000   -0.0440   -8.4720 C.3   571  LYS571      0.0271
    108  CG       -62.6380   -0.4640   -9.2450 C.3   571  LYS571      0.0035
    109  CD       -63.1100    0.5640  -10.2480 C.3   571  LYS571      0.0206
    110  CE       -62.2710    0.6050  -11.5030 C.3   571  LYS571      0.1093
    111  NZ       -63.1190    0.7090  -12.7150 N.3   571  LYS571     -0.1314
@<TRIPOS>BOND
     1     8     7    2
     2    62    60    1
     3     9     7   am
     4     7     6    1
     5    51    49   ar
     6    60    61    1
     7    60    59    2
     8    50    49   ar
     9    49    48    1
    10    59    58    1
    11     6     5    1
    12     5     2    1
    13    48    47    1
    14    26    24    1
    15    58    57    1
    16    25    24    1
    17    47    44    1
    18     2     1    1
    19     2     3    1
    20    24    23    1
    21    23    20    1
    22    57    56    1
    23     3    10   am
    24     3     4    2
    25    13    12    2
    26    10    11    1
    27    46    45    2
    28    44    45    1
    29    44    43    1
    30   102   100   ar
    31    12    19   am
    32    12    11    1
    33    20    19    1
    34    20    21    1
    35    43    34   am
    36    56    53    1
    37    11    14    1
    38    34    35    2
    39    34    33    1
    40   100   101   ar
    41   100    99    1
    42    31    28    1
    43    21    22    2
    44    30    29    2
    45    53    52    1
    46    53    54    1
    47    33    32    1
    48    33    36    1
    49    74    72    1
    50    14    15    1
    51    29    32   am
    52    29    28    1
    53    99    96    1
    54    28    27    1
    55    98    97    2
    56    54    63   am
    57    54    55    2
    58    15    16    1
    59    36    37    1
    60    72    71    1
    61    63    64    1
    62    66    65    2
    63    97    96    1
    64    96    95    1
    65   111   110    1
    66    38    37   ar
    67    38    40   ar
    68    65    64    1
    69    65    67   am
    70    37    39   ar
    71    95    89   am
    72    73    71    1
    73    16    17   ar
    74    16    18   ar
    75    71    68    1
    76    67    68    1
    77    40    42   ar
    78   110   109    1
    79    68    69    1
    80    39    41   ar
    81    89    90    2
    82    89    88    1
    83    82    84   ar
    84    82    80   ar
    85    84    85   ar
    86    42    41   ar
    87    79    80    1
    88    79    76    1
    89    78    77    2
    90   109   108    1
    91    80    81   ar
    92    88    87    1
    93    88    91    1
    94    69    70    2
    95    85    86    1
    96    85    83   ar
    97    93    92    1
    98    77    87   am
    99    77    76    1
   100    81    83   ar
   101   108   107    1
   102    76    75    1
   103    92    91    1
   104    92    94    1
   105   107   104    1
   106   106   105    2
   107   104   105    1
   108   104   103    1
