@<TRIPOS>MOLECULE
tmp/6h7fC07.pdb
 122 118 0 0 0
SMALL
GASTEIGER

@<TRIPOS>ATOM
      1  N        -46.5410  -21.3800   26.7390 N.3   141  LEU141     -0.1245
      2  CA       -47.8740  -20.9850   27.1520 C.3   141  LEU141      0.1561
      3  C        -48.0860  -19.5190   26.7710 C.2   141  LEU141      0.2260
      4  O        -47.2070  -18.6810   27.0050 O.2   141  LEU141     -0.2867
      5  CB       -48.0260  -21.1880   28.6620 C.3   141  LEU141      0.0270
      6  CG       -49.3440  -20.6820   29.2500 C.3   141  LEU141      0.0019
      7  CD1      -50.5030  -21.5340   28.7640 C.3   141  LEU141      0.0001
      8  CD2      -49.3020  -20.6530   30.7710 C.3   141  LEU141      0.0001
      9  N        -56.2060  -19.0070   26.3220 N.3   153  GLY153     -0.1210
     10  CA       -54.8440  -19.4500   26.3840 C.3   153  GLY153      0.1956
     11  C        -54.5510  -20.4740   25.3160 C.2   153  GLY153      0.2612
     12  O        -55.4670  -21.1160   24.7700 O.2   153  GLY153     -0.2717
     13  N        -53.2550  -20.6190   25.0310 N.am  154  HIS154     -0.1961
     14  CA       -52.7580  -21.5020   24.0320 C.3   154  HIS154      0.1787
     15  C        -51.5010  -22.1840   24.5810 C.2   154  HIS154      0.2620
     16  O        -50.5760  -21.5030   25.0440 O.2   154  HIS154     -0.2715
     17  CB       -52.5090  -20.7040   22.7410 C.3   154  HIS154      0.0785
     18  CG       -51.7630  -21.4550   21.6890 C.ar  154  HIS154      0.0821
     19  ND1      -50.9020  -20.8250   20.8070 N.ar  154  HIS154     -0.2267
     20  CD2      -51.7400  -22.7710   21.3730 C.ar  154  HIS154      0.1154
     21  CE1      -50.3840  -21.7200   19.9920 C.ar  154  HIS154      0.1986
     22  NE2      -50.8830  -22.9260   20.3170 N.ar  154  HIS154     -0.2212
     23  N        -51.4920  -23.5210   24.5430 N.am  155  VAL155     -0.1977
     24  CA       -50.3060  -24.3240   24.8660 C.3   155  VAL155      0.1596
     25  C        -49.7890  -24.9710   23.5760 C.2   155  VAL155      0.2287
     26  O        -50.5660  -25.5180   22.7960 O.2   155  VAL155     -0.2864
     27  CB       -50.6180  -25.3830   25.9430 C.3   155  VAL155      0.0276
     28  CG1      -49.4900  -26.3880   26.1040 C.3   155  VAL155      0.0022
     29  CG2      -50.9470  -24.7340   27.2760 C.3   155  VAL155      0.0022
     30  N        -53.0240  -26.8810   22.1740 N.3   173  GLY173     -0.1210
     31  CA       -54.3400  -26.6910   22.7780 C.3   173  GLY173      0.1956
     32  C        -54.6620  -25.2140   22.9140 C.2   173  GLY173      0.2612
     33  O        -53.8020  -24.4130   23.3090 O.2   173  GLY173     -0.2717
     34  N        -55.8970  -24.8450   22.5660 N.am  174  MET174     -0.1965
     35  CA       -56.3030  -23.4470   22.6510 C.3   174  MET174      0.1736
     36  C        -57.7680  -23.3810   23.0630 C.2   174  MET174      0.2616
     37  O        -58.5830  -24.1980   22.6320 O.2   174  MET174     -0.2715
     38  CB       -56.0900  -22.7250   21.3150 C.3   174  MET174      0.0427
     39  CG       -56.5050  -21.2670   21.3270 C.3   174  MET174      0.0599
     40  SD       -58.2690  -21.0490   21.0180 S.3   174  MET174     -0.1393
     41  CE       -58.4010  -21.6130   19.3200 C.3   174  MET174      0.0692
     42  N        -58.0700  -22.4160   23.9330 N.am  175  TYR175     -0.1974
     43  CA       -59.4300  -22.0850   24.3180 C.3   175  TYR175      0.1639
     44  C        -59.5120  -20.5680   24.5230 C.2   175  TYR175      0.2290
     45  O        -58.6430  -19.9850   25.1580 O.2   175  TYR175     -0.2864
     46  CB       -59.8230  -22.8280   25.6010 C.3   175  TYR175      0.0560
     47  CG       -61.2160  -22.5320   26.0900 C.ar  175  TYR175     -0.0198
     48  CD1      -62.3250  -22.9460   25.3710 C.ar  175  TYR175     -0.0009
     49  CD2      -61.4340  -21.8020   27.2480 C.ar  175  TYR175     -0.0009
     50  CE1      -63.6130  -22.6500   25.7860 C.ar  175  TYR175      0.0417
     51  CE2      -62.7210  -21.5210   27.6930 C.ar  175  TYR175      0.0417
     52  CZ       -63.8140  -21.9530   26.9610 C.ar  175  TYR175      0.1957
     53  OH       -65.0920  -21.6770   27.3520 O.3   175  TYR175     -0.2866
     54  N        -62.2100  -23.2400   20.3540 N.3   190  ARG190     -0.1231
     55  CA       -61.4420  -24.3440   20.9480 C.3   190  ARG190      0.1694
     56  C        -60.6770  -25.0680   19.8410 C.2   190  ARG190      0.2592
     57  O        -61.2090  -25.2850   18.7600 O.2   190  ARG190     -0.2718
     58  CB       -62.3320  -25.3870   21.6310 C.3   190  ARG190      0.0321
     59  CG       -63.2220  -24.8920   22.7610 C.3   190  ARG190      0.0489
     60  CD       -63.8140  -26.0670   23.5470 C.3   190  ARG190      0.2205
     61  NE       -64.9330  -25.7030   24.4240 N.pl3 190  ARG190     -0.0865
     62  CZ       -65.9730  -26.4950   24.7040 C.cat 190  ARG190      0.5346
     63  NH1      -65.9110  -27.7910   24.4380 N.pl3 190  ARG190      0.1354
     64  NH2      -67.0770  -25.9820   25.2270 N.pl3 190  ARG190      0.1354
     65  N        -59.4430  -25.4670   20.1470 N.am  191  LEU191     -0.1966
     66  CA       -58.6310  -26.2730   19.2610 C.3   191  LEU191      0.1728
     67  C        -57.8040  -27.2710   20.0880 C.2   191  LEU191      0.2616
     68  O        -57.1450  -26.8880   21.0500 O.2   191  LEU191     -0.2715
     69  CB       -57.7110  -25.3520   18.4520 C.3   191  LEU191      0.0311
     70  CG       -56.8230  -26.0460   17.4140 C.3   191  LEU191      0.0022
     71  CD1      -57.6640  -26.7570   16.3580 C.3   191  LEU191      0.0001
     72  CD2      -55.8940  -25.0510   16.7520 C.3   191  LEU191      0.0001
     73  N        -57.8150  -28.5350   19.6590 N.am  192  PHE192     -0.1974
     74  CA       -56.7890  -29.5150   20.0080 C.3   192  PHE192      0.1639
     75  C        -56.2240  -30.1100   18.7080 C.2   192  PHE192      0.2290
     76  O        -56.9750  -30.6230   17.8630 O.2   192  PHE192     -0.2864
     77  CB       -57.3870  -30.5990   20.9230 C.3   192  PHE192      0.0560
     78  CG       -56.4000  -31.6330   21.4090 C.ar  192  PHE192     -0.0200
     79  CD1      -55.4690  -31.3180   22.3900 C.ar  192  PHE192     -0.0042
     80  CD2      -56.3710  -32.9100   20.8610 C.ar  192  PHE192     -0.0042
     81  CE1      -54.5460  -32.2620   22.8220 C.ar  192  PHE192     -0.0003
     82  CE2      -55.4380  -33.8470   21.2840 C.ar  192  PHE192     -0.0003
     83  CZ       -54.5330  -33.5230   22.2690 C.ar  192  PHE192     -0.0000
     84  N        -59.3160  -31.1650   16.4340 N.3   211  ASP211     -0.1225
     85  CA       -60.6880  -31.0450   16.8640 C.3   211  ASP211      0.1805
     86  C        -60.9170  -29.5730   17.2230 C.2   211  ASP211      0.2598
     87  O        -60.1300  -28.9870   17.9910 O.2   211  ASP211     -0.2718
     88  CB       -60.9550  -32.0130   18.0260 C.3   211  ASP211      0.1424
     89  CG       -62.3880  -32.0380   18.5420 C.2   211  ASP211      0.3668
     90  OD1      -63.2960  -31.6860   17.7850 O.co2 211  ASP211     -0.2456
     91  OD2      -62.5740  -32.4100   19.7060 O.co2 211  ASP211     -0.2456
     92  N        -61.9090  -28.9550   16.5750 N.am  212  ALA212     -0.1966
     93  CA       -62.0730  -27.5000   16.6300 C.3   212  ALA212      0.1728
     94  C        -63.5340  -27.1460   16.8700 C.2   212  ALA212      0.2616
     95  O        -64.4320  -27.8080   16.3600 O.2   212  ALA212     -0.2715
     96  CB       -61.5660  -26.8460   15.3670 C.3   212  ALA212      0.0334
     97  N        -63.7370  -26.0730   17.6400 N.am  213  LEU213     -0.1977
     98  CA       -65.0370  -25.4510   17.7970 C.3   213  LEU213      0.1596
     99  C        -64.9320  -23.9450   17.5160 C.2   213  LEU213      0.2287
    100  O        -63.9980  -23.2690   17.9530 O.2   213  LEU213     -0.2864
    101  CB       -65.5360  -25.7070   19.2170 C.3   213  LEU213      0.0297
    102  CG       -66.7880  -24.9180   19.6060 C.3   213  LEU213      0.0022
    103  CD1      -68.0290  -25.6650   19.1880 C.3   213  LEU213      0.0001
    104  CD2      -66.8220  -24.6410   21.0920 C.3   213  LEU213      0.0001
    105  N        -68.5810  -27.2700   14.5260 N.3   251  LYS251     -0.1245
    106  CA       -67.6040  -28.2570   15.0290 C.3   251  LYS251      0.1561
    107  C        -66.9150  -28.9110   13.8350 C.2   251  LYS251      0.2260
    108  O        -67.5820  -29.4470   12.9370 O.2   251  LYS251     -0.2867
    109  CB       -68.2900  -29.3230   15.8870 C.3   251  LYS251      0.0271
    110  CG       -68.8580  -28.8400   17.2150 C.3   251  LYS251      0.0035
    111  CD       -69.6240  -29.9190   17.9610 C.3   251  LYS251      0.0206
    112  CE       -70.3100  -29.3910   19.2040 C.3   251  LYS251      0.1093
    113  NZ       -71.2280  -30.3950   19.7940 N.3   251  LYS251     -0.1314
    114  N        -63.7170  -31.5910   12.7720 N.3   253  LYS253     -0.1245
    115  CA       -62.7460  -32.6330   13.1260 C.3   253  LYS253      0.1561
    116  C        -62.0950  -33.1230   11.8420 C.2   253  LYS253      0.2260
    117  O        -62.7990  -33.3890   10.8550 O.2   253  LYS253     -0.2867
    118  CB       -63.4230  -33.8060   13.8410 C.3   253  LYS253      0.0271
    119  CG       -63.9030  -33.5060   15.2540 C.3   253  LYS253      0.0035
    120  CD       -65.0760  -34.3630   15.7220 C.3   253  LYS253      0.0206
    121  CE       -65.7190  -33.8220   16.9860 C.3   253  LYS253      0.1093
    122  NZ       -66.4990  -34.8590   17.7020 N.3   253  LYS253     -0.1314
@<TRIPOS>BOND
     1   117   116    2
     2   116   115    1
     3   114   115    1
     4   108   107    2
     5   115   118    1
     6   107   106    1
     7   118   119    1
     8   105   106    1
     9   106   109    1
    10   119   120    1
    11    96    93    1
    12   120   121    1
    13   109   110    1
    14    71    70    1
    15    95    94    2
    16    84    85    1
    17    92    93    1
    18    92    86   am
    19    93    94    1
    20    72    70    1
    21    85    86    1
    22    85    88    1
    23    94    97   am
    24   121   122    1
    25   110   111    1
    26    86    87    2
    27    70    69    1
    28    99    98    1
    29    99   100    2
    30    97    98    1
    31    90    89   ar
    32    98   101    1
    33    76    75    2
    34   111   112    1
    35    88    89    1
    36    69    66    1
    37    89    91   ar
    38    75    74    1
    39    57    56    2
    40   103   102    1
    41   112   113    1
    42   101   102    1
    43    66    67    1
    44    66    65    1
    45    41    40    1
    46   102   104    1
    47    73    74    1
    48    73    67   am
    49    56    65   am
    50    56    55    1
    51    21    22   ar
    52    21    19   ar
    53    74    77    1
    54    67    68    2
    55    22    20   ar
    56    54    55    1
    57    19    18   ar
    58    80    82   ar
    59    80    78   ar
    60    77    78    1
    61    55    58    1
    62    40    39    1
    63    82    83   ar
    64    38    39    1
    65    38    35    1
    66    20    18   ar
    67    78    79   ar
    68    58    59    1
    69    18    17    1
    70    30    31    1
    71    83    81   ar
    72    79    81   ar
    73    34    35    1
    74    34    32   am
    75    37    36    2
    76    35    36    1
    77    17    14    1
    78    59    60    1
    79    31    32    1
    80    26    25    2
    81    32    33    2
    82    36    42   am
    83    60    61    1
    84    25    24    1
    85    42    43    1
    86    14    15    1
    87    14    13    1
    88    43    44    1
    89    43    46    1
    90    61    62    2
    91    63    62    1
    92    44    45    2
    93    23    15   am
    94    23    24    1
    95    15    16    2
    96    62    64    1
    97    12    11    2
    98    24    27    1
    99    13    11   am
   100    11    10    1
   101    48    50   ar
   102    48    47   ar
   103    46    47    1
   104    50    52   ar
   105    27    28    1
   106    27    29    1
   107    47    49   ar
   108     9    10    1
   109     1     2    1
   110     3     4    2
   111     3     2    1
   112    52    53    1
   113    52    51   ar
   114     2     5    1
   115    49    51   ar
   116     5     6    1
   117     7     6    1
   118     6     8    1
