@<TRIPOS>MOLECULE
tmp/6h7fC08.pdb
 145 144 0 0 0
SMALL
GASTEIGER

@<TRIPOS>ATOM
      1  N        -42.5730  -39.3700   11.4430 N.3   198  TRP198     -0.1241
      2  CA       -41.4760  -40.3310   11.4320 C.3   198  TRP198      0.1605
      3  C        -40.5750  -40.0390   10.2200 C.2   198  TRP198      0.2264
      4  O        -41.0490  -40.0410    9.0900 O.2   198  TRP198     -0.2867
      5  CB       -42.0280  -41.7700   11.4060 C.3   198  TRP198      0.0550
      6  CG       -40.9830  -42.8150   11.1360 C.ar  198  TRP198      0.0003
      7  CD1      -39.9740  -43.1950   11.9720 C.ar  198  TRP198      0.0946
      8  CD2      -40.8010  -43.5750    9.9230 C.ar  198  TRP198      0.0152
      9  NE1      -39.1870  -44.1380   11.3730 N.ar  198  TRP198     -0.2442
     10  CE2      -39.6710  -44.3970   10.1180 C.ar  198  TRP198      0.0810
     11  CE3      -41.4850  -43.6530    8.7020 C.ar  198  TRP198      0.0012
     12  CZ2      -39.2050  -45.2700    9.1360 C.ar  198  TRP198      0.0191
     13  CZ3      -41.0270  -44.5210    7.7320 C.ar  198  TRP198      0.0001
     14  CH2      -39.9050  -45.3230    7.9510 C.ar  198  TRP198      0.0015
     15  N        -37.8810  -42.9990    3.6900 N.3   203  ALA203     -0.1231
     16  CA       -39.3170  -42.9010    3.8370 C.3   203  ALA203      0.1694
     17  C        -39.6580  -41.9470    4.9890 C.2   203  ALA203      0.2592
     18  O        -38.8710  -41.7680    5.9430 O.2   203  ALA203     -0.2718
     19  CB       -39.9090  -44.2700    4.0490 C.3   203  ALA203      0.0304
     20  N        -40.8390  -41.3380    4.8820 N.am  204  ARG204     -0.1966
     21  CA       -41.3140  -40.3380    5.8280 C.3   204  ARG204      0.1729
     22  C        -42.8320  -40.4770    5.9520 C.2   204  ARG204      0.2616
     23  O        -43.5180  -40.7450    4.9670 O.2   204  ARG204     -0.2715
     24  CB       -40.9180  -38.9390    5.3490 C.3   204  ARG204      0.0348
     25  CG       -39.4290  -38.6570    5.4380 C.3   204  ARG204      0.0492
     26  CD       -39.0190  -37.3600    4.7630 C.3   204  ARG204      0.2205
     27  NE       -39.3140  -37.3740    3.3410 N.pl3 204  ARG204     -0.0865
     28  CZ       -38.6470  -38.0750    2.4340 C.cat 204  ARG204      0.5346
     29  NH1      -39.0410  -38.0370    1.1730 N.pl3 204  ARG204      0.1354
     30  NH2      -37.6200  -38.8340    2.7910 N.pl3 204  ARG204      0.1354
     31  N        -43.3350  -40.3120    7.1730 N.am  205  VAL205     -0.1977
     32  CA       -44.7490  -40.3030    7.4240 C.3   205  VAL205      0.1596
     33  C        -45.0840  -39.1120    8.3130 C.2   205  VAL205      0.2287
     34  O        -44.3730  -38.8200    9.2700 O.2   205  VAL205     -0.2864
     35  CB       -45.2220  -41.6180    8.0560 C.3   205  VAL205      0.0276
     36  CG1      -46.6820  -41.5500    8.4530 C.3   205  VAL205      0.0022
     37  CG2      -44.9700  -42.7880    7.1230 C.3   205  VAL205      0.0022
     38  N        -47.5080  -40.1470    3.2600 N.3   259  GLY259     -0.1210
     39  CA       -46.2970  -40.9470    3.1400 C.3   259  GLY259      0.1956
     40  C        -45.4770  -40.5470    1.9330 C.2   259  GLY259      0.2612
     41  O        -46.0200  -40.2850    0.8740 O.2   259  GLY259     -0.2717
     42  N        -44.1530  -40.5180    2.1140 N.am  260  GLU260     -0.1965
     43  CA       -43.2050  -40.3030    1.0320 C.3   260  GLU260      0.1733
     44  C        -42.2040  -41.4600    1.0130 C.2   260  GLU260      0.2616
     45  O        -41.7890  -41.9500    2.0710 O.2   260  GLU260     -0.2715
     46  CB       -42.4700  -38.9710    1.2140 C.3   260  GLU260      0.0429
     47  CG       -43.3780  -37.7520    1.1010 C.3   260  GLU260      0.1163
     48  CD       -42.7010  -36.4060    1.3430 C.2   260  GLU260      0.3649
     49  OE1      -41.4890  -36.3850    1.6490 O.co2 260  GLU260     -0.2457
     50  OE2      -43.3840  -35.3820    1.2110 O.co2 260  GLU260     -0.2457
     51  N        -41.7970  -41.8520   -0.1950 N.am  261  TYR261     -0.1974
     52  CA       -40.7960  -42.8850   -0.3870 C.3   261  TYR261      0.1639
     53  C        -39.8160  -42.4620   -1.4850 C.2   261  TYR261      0.2290
     54  O        -40.2020  -42.3080   -2.6350 O.2   261  TYR261     -0.2864
     55  CB       -41.4520  -44.2350   -0.7110 C.3   261  TYR261      0.0560
     56  CG       -40.5030  -45.3850   -0.5200 C.ar  261  TYR261     -0.0198
     57  CD1      -39.5470  -45.6840   -1.4740 C.ar  261  TYR261     -0.0009
     58  CD2      -40.4930  -46.1120    0.6610 C.ar  261  TYR261     -0.0009
     59  CE1      -38.6240  -46.6980   -1.2740 C.ar  261  TYR261      0.0417
     60  CE2      -39.5790  -47.1320    0.8780 C.ar  261  TYR261      0.0417
     61  CZ       -38.6320  -47.4170   -0.0910 C.ar  261  TYR261      0.1957
     62  OH       -37.7110  -48.4020    0.1030 O.3   261  TYR261     -0.2866
     63  N        -42.1200  -41.3530   -4.6260 N.3   269  ALA269     -0.1231
     64  CA       -43.5520  -41.5360   -4.6090 C.3   269  ALA269      0.1694
     65  C        -44.1040  -40.9320   -3.3230 C.2   269  ALA269      0.2592
     66  O        -43.4080  -40.8780   -2.3000 O.2   269  ALA269     -0.2718
     67  CB       -43.9090  -42.9950   -4.7240 C.3   269  ALA269      0.0304
     68  N        -45.3580  -40.4840   -3.3950 N.am  270  TYR270     -0.1962
     69  CA       -46.0500  -39.9520   -2.2380 C.3   270  TYR270      0.1771
     70  C        -47.5080  -40.3790   -2.3010 C.2   270  TYR270      0.2619
     71  O        -48.0480  -40.6030   -3.3700 O.2   270  TYR270     -0.2715
     72  CB       -45.9140  -38.4260   -2.1720 C.3   270  TYR270      0.0574
     73  CG       -46.7140  -37.6780   -3.2090 C.ar  270  TYR270     -0.0198
     74  CD1      -48.0100  -37.2710   -2.9440 C.ar  270  TYR270     -0.0009
     75  CD2      -46.1770  -37.3660   -4.4500 C.ar  270  TYR270     -0.0009
     76  CE1      -48.7470  -36.5620   -3.8790 C.ar  270  TYR270      0.0417
     77  CE2      -46.9090  -36.6820   -5.4060 C.ar  270  TYR270      0.0417
     78  CZ       -48.2000  -36.2720   -5.1150 C.ar  270  TYR270      0.1957
     79  OH       -48.9420  -35.5930   -6.0410 O.3   270  TYR270     -0.2866
     80  N        -48.1210  -40.4750   -1.1270 N.am  271  ALA271     -0.1977
     81  CA       -49.5580  -40.6940   -0.9910 C.3   271  ALA271      0.1597
     82  C        -50.0590  -39.9410    0.2360 C.2   271  ALA271      0.2287
     83  O        -49.3830  -39.8970    1.2600 O.2   271  ALA271     -0.2864
     84  CB       -49.8640  -42.1660   -0.8770 C.3   271  ALA271      0.0319
     85  N        -52.1440  -38.9670   -4.5570 N.3   315  ALA315     -0.1231
     86  CA       -50.9870  -39.8640   -4.6870 C.3   315  ALA315      0.1694
     87  C        -50.3110  -39.6200   -6.0320 C.2   315  ALA315      0.2593
     88  O        -50.9740  -39.3080   -7.0280 O.2   315  ALA315     -0.2718
     89  CB       -51.4330  -41.3030   -4.5570 C.3   315  ALA315      0.0304
     90  N        -48.9880  -39.7760   -6.0680 N.am  316  GLY316     -0.1942
     91  CA       -48.2700  -39.5970   -7.3150 C.3   316  GLY316      0.2014
     92  C        -46.7890  -39.8760   -7.1920 C.2   316  GLY316      0.2638
     93  O        -46.3340  -40.4540   -6.1990 O.2   316  GLY316     -0.2714
     94  N        -46.0580  -39.4710   -8.2420 N.am  317  PHE317     -0.1973
     95  CA       -44.6170  -39.5640   -8.3410 C.3   317  PHE317      0.1639
     96  C        -44.0620  -38.2020   -8.7560 C.2   317  PHE317      0.2290
     97  O        -44.6980  -37.4920   -9.5520 O.2   317  PHE317     -0.2864
     98  CB       -44.2150  -40.6210   -9.3790 C.3   317  PHE317      0.0560
     99  CG       -44.6650  -42.0240   -9.0690 C.ar  317  PHE317     -0.0200
    100  CD1      -43.8420  -42.8930   -8.3730 C.ar  317  PHE317     -0.0042
    101  CD2      -45.8960  -42.4880   -9.4960 C.ar  317  PHE317     -0.0042
    102  CE1      -44.2480  -44.1930   -8.1070 C.ar  317  PHE317     -0.0003
    103  CE2      -46.3120  -43.7800   -9.2030 C.ar  317  PHE317     -0.0003
    104  CZ       -45.4870  -44.6320   -8.5140 C.ar  317  PHE317     -0.0000
    105  N        -46.4990  -36.4490  -11.5800 N.3   332  ALA332     -0.1231
    106  CA       -47.7560  -37.0290  -12.0200 C.3   332  ALA332      0.1694
    107  C        -48.5590  -37.4430  -10.7870 C.2   332  ALA332      0.2592
    108  O        -47.9980  -38.0320   -9.8580 O.2   332  ALA332     -0.2718
    109  CB       -47.4810  -38.2080  -12.9190 C.3   332  ALA332      0.0304
    110  N        -49.8640  -37.1350  -10.7730 N.am  333  ASN333     -0.1960
    111  CA       -50.6640  -37.4510   -9.6070 C.3   333  ASN333      0.1819
    112  C        -52.0880  -37.8200  -10.0050 C.2   333  ASN333      0.2621
    113  O        -52.5090  -37.6280  -11.1300 O.2   333  ASN333     -0.2715
    114  CB       -50.5960  -36.3320   -8.5640 C.3   333  ASN333      0.1195
    115  CG       -51.5360  -35.1680   -8.8110 C.2   333  ASN333      0.2630
    116  OD1      -51.8690  -34.8270   -9.9610 O.2   333  ASN333     -0.2716
    117  ND2      -51.9070  -34.5120   -7.7250 N.am  333  ASN333     -0.0877
    118  N        -52.7820  -38.4220   -9.0410 N.am  334  ALA334     -0.1977
    119  CA       -54.1940  -38.6950   -9.0880 C.3   334  ALA334      0.1597
    120  C        -54.8100  -38.2260   -7.7690 C.2   334  ALA334      0.2287
    121  O        -54.1940  -38.4130   -6.7210 O.2   334  ALA334     -0.2864
    122  CB       -54.4240  -40.1680   -9.3080 C.3   334  ALA334      0.0319
    123  N        -56.4780  -36.5680  -12.7240 N.3   388  PHE388     -0.1227
    124  CA       -55.1020  -36.9560  -12.8770 C.3   388  PHE388      0.1736
    125  C        -54.3730  -35.8810  -13.6650 C.2   388  PHE388      0.2596
    126  O        -54.9240  -35.2780  -14.5720 O.2   388  PHE388     -0.2718
    127  CB       -54.9380  -38.3560  -13.4850 C.3   388  PHE388      0.0547
    128  CG       -55.8530  -38.7120  -14.6250 C.ar  388  PHE388     -0.0202
    129  CD1      -57.1740  -39.0830  -14.3890 C.ar  388  PHE388     -0.0042
    130  CD2      -55.3740  -38.7570  -15.9310 C.ar  388  PHE388     -0.0042
    131  CE1      -58.0080  -39.4400  -15.4430 C.ar  388  PHE388     -0.0003
    132  CE2      -56.2080  -39.1210  -16.9830 C.ar  388  PHE388     -0.0003
    133  CZ       -57.5240  -39.4580  -16.7380 C.ar  388  PHE388     -0.0000
    134  N        -53.1210  -35.6650  -13.2700 N.am  389  GLY389     -0.1942
    135  CA       -52.3410  -34.5640  -13.7270 C.3   389  GLY389      0.2014
    136  C        -50.9070  -34.9610  -14.0250 C.2   389  GLY389      0.2638
    137  O        -50.3420  -35.8170  -13.3570 O.2   389  GLY389     -0.2714
    138  N        -50.3200  -34.2940  -15.0190 N.am  390  LEU390     -0.1977
    139  CA       -48.9240  -34.4310  -15.3580 C.3   390  LEU390      0.1596
    140  C        -48.3660  -33.0480  -15.6840 C.2   390  LEU390      0.2287
    141  O        -48.9870  -32.2720  -16.4110 O.2   390  LEU390     -0.2864
    142  CB       -48.7930  -35.3700  -16.5610 C.3   390  LEU390      0.0297
    143  CG       -47.3720  -35.5920  -17.0750 C.3   390  LEU390      0.0022
    144  CD1      -46.5620  -36.4180  -16.0870 C.3   390  LEU390      0.0001
    145  CD2      -47.3950  -36.2650  -18.4390 C.3   390  LEU390      0.0001
@<TRIPOS>BOND
     1   145   143    1
     2   143   142    1
     3   143   144    1
     4   132   133   ar
     5   132   130   ar
     6   133   131   ar
     7   142   139    1
     8   141   140    2
     9   130   128   ar
    10   140   139    1
    11   131   129   ar
    12   139   138    1
    13   138   136   am
    14   128   129   ar
    15   128   127    1
    16   126   125    2
    17   136   135    1
    18   136   137    2
    19   135   134    1
    20   125   134   am
    21   125   124    1
    22   127   124    1
    23   109   106    1
    24   124   123    1
    25   106   105    1
    26   106   107    1
    27   113   112    2
    28   107   110   am
    29   107   108    2
    30   110   111    1
    31   112   111    1
    32   112   118   am
    33   116   115    2
    34   111   114    1
    35    97    96    2
    36   101   103   ar
    37   101    99   ar
    38    98    99    1
    39    98    95    1
    40   122   119    1
    41   103   104   ar
    42   119   118    1
    43   119   120    1
    44    99   100   ar
    45   115   114    1
    46   115   117   am
    47    96    95    1
    48   104   102   ar
    49   100   102   ar
    50    95    94    1
    51    94    92   am
    52   120   121    2
    53    91    92    1
    54    91    90    1
    55    92    93    2
    56    88    87    2
    57    90    87   am
    58    79    78    1
    59    87    86    1
    60    77    78   ar
    61    77    75   ar
    62    78    76   ar
    63    67    64    1
    64    86    85    1
    65    86    89    1
    66    63    64    1
    67    64    65    1
    68    75    73   ar
    69    76    74   ar
    70    68    65   am
    71    68    69    1
    72    71    70    2
    73    65    66    2
    74    73    74   ar
    75    73    72    1
    76    54    53    2
    77    70    69    1
    78    70    80   am
    79    69    72    1
    80    53    52    1
    81    57    59   ar
    82    57    56   ar
    83    59    61   ar
    84    80    81    1
    85    81    84    1
    86    81    82    1
    87    55    56    1
    88    55    52    1
    89    56    58   ar
    90    52    51    1
    91    51    44   am
    92    61    62    1
    93    61    60   ar
    94    82    83    2
    95    58    60   ar
    96    41    40    2
    97    44    43    1
    98    44    45    2
    99    43    46    1
   100    43    42    1
   101    47    46    1
   102    47    48    1
   103    29    28    1
   104    50    48   ar
   105    48    49   ar
   106    40    42   am
   107    40    39    1
   108    28    30    1
   109    28    27    2
   110    39    38    1
   111    27    26    1
   112    15    16    1
   113    16    19    1
   114    16    17    1
   115    26    25    1
   116    20    17   am
   117    20    21    1
   118    23    22    2
   119    17    18    2
   120    24    25    1
   121    24    21    1
   122    21    22    1
   123    22    31   am
   124    37    35    1
   125    31    32    1
   126    32    35    1
   127    32    33    1
   128    13    14   ar
   129    13    11   ar
   130    14    12   ar
   131    35    36    1
   132    33    34    2
   133    11     8   ar
   134     4     3    2
   135    12    10   ar
   136     8    10   ar
   137     8     6   ar
   138    10     9   ar
   139     3     2    1
   140     6     5    1
   141     6     7   ar
   142     9     7   ar
   143     5     2    1
   144     2     1    1
