@<TRIPOS>MOLECULE
tmp/6h7fC09.pdb
 107 104 0 0 0
SMALL
GASTEIGER

@<TRIPOS>ATOM
      1  N        -43.9500   -7.3860   -8.7630 N.3   493  LEU493     -0.1245
      2  CA       -44.7600   -6.5700   -9.6480 C.3   493  LEU493      0.1561
      3  C        -45.4010   -7.4990  -10.6790 C.2   493  LEU493      0.2260
      4  O        -44.6990   -8.2370  -11.3500 O.2   493  LEU493     -0.2867
      5  CB       -43.8720   -5.5050  -10.3080 C.3   493  LEU493      0.0270
      6  CG       -44.5980   -4.5270  -11.2440 C.3   493  LEU493      0.0019
      7  CD1      -45.5870   -3.6620  -10.4770 C.3   493  LEU493      0.0001
      8  CD2      -43.6110   -3.6470  -12.0110 C.3   493  LEU493      0.0001
      9  N        -53.1740   -4.8430  -11.7210 N.3   528  ILE528     -0.1245
     10  CA       -51.7400   -4.6330  -11.4660 C.3   528  ILE528      0.1561
     11  C        -51.5320   -4.6800   -9.9520 C.2   528  ILE528      0.2260
     12  O        -52.2790   -4.0530   -9.2180 O.2   528  ILE528     -0.2867
     13  CB       -51.2500   -3.2820  -12.0390 C.3   528  ILE528      0.0252
     14  CG1      -51.8580   -2.9800  -13.4040 C.3   528  ILE528      0.0019
     15  CG2      -49.7310   -3.2180  -12.0970 C.3   528  ILE528      0.0019
     16  CD1      -51.1640   -3.6860  -14.5380 C.3   528  ILE528      0.0001
     17  N        -48.3400   -4.2490   -7.0140 N.3   530  TRP530     -0.1241
     18  CA       -46.9890   -4.0540   -6.5090 C.3   530  TRP530      0.1605
     19  C        -46.9910   -4.3270   -5.0070 C.2   530  TRP530      0.2264
     20  O        -47.7110   -3.6680   -4.2560 O.2   530  TRP530     -0.2867
     21  CB       -46.4830   -2.6390   -6.8240 C.3   530  TRP530      0.0550
     22  CG       -45.1780   -2.3060   -6.1650 C.ar  530  TRP530      0.0003
     23  CD1      -44.1010   -3.1270   -6.0250 C.ar  530  TRP530      0.0946
     24  CD2      -44.8130   -1.0640   -5.5390 C.ar  530  TRP530      0.0152
     25  NE1      -43.0890   -2.4830   -5.3670 N.ar  530  TRP530     -0.2442
     26  CE2      -43.4970   -1.2210   -5.0450 C.ar  530  TRP530      0.0810
     27  CE3      -45.4600    0.1650   -5.3460 C.ar  530  TRP530      0.0012
     28  CZ2      -42.8300   -0.2050   -4.3590 C.ar  530  TRP530      0.0191
     29  CZ3      -44.7950    1.1700   -4.6760 C.ar  530  TRP530      0.0001
     30  CH2      -43.4970    0.9850   -4.1940 C.ar  530  TRP530      0.0015
     31  N        -49.7320   -1.9720   -3.3350 N.3   546  PHE546     -0.1227
     32  CA       -50.7790   -1.2550   -4.0040 C.3   546  PHE546      0.1736
     33  C        -51.3140   -2.1500   -5.1230 C.2   546  PHE546      0.2596
     34  O        -50.5440   -2.8610   -5.7510 O.2   546  PHE546     -0.2718
     35  CB       -50.2470    0.0790   -4.5530 C.3   546  PHE546      0.0547
     36  CG       -49.4980    0.9370   -3.5570 C.ar  546  PHE546     -0.0202
     37  CD1      -48.2120    0.6050   -3.1480 C.ar  546  PHE546     -0.0042
     38  CD2      -50.0770    2.0830   -3.0240 C.ar  546  PHE546     -0.0042
     39  CE1      -47.5340    1.3880   -2.2200 C.ar  546  PHE546     -0.0003
     40  CE2      -49.4000    2.8610   -2.0920 C.ar  546  PHE546     -0.0003
     41  CZ       -48.1290    2.5150   -1.6950 C.ar  546  PHE546     -0.0000
     42  N        -52.6340   -2.1140   -5.3500 N.am  547  THR547     -0.1939
     43  CA       -53.2710   -2.7980   -6.4750 C.3   547  THR547      0.2028
     44  C        -54.3000   -1.8740   -7.1120 C.2   547  THR547      0.2642
     45  O        -55.0070   -1.1670   -6.4110 O.2   547  THR547     -0.2714
     46  CB       -53.9910   -4.0860   -6.0570 C.3   547  THR547      0.1808
     47  OG1      -54.8570   -3.7380   -4.9780 O.3   547  THR547     -0.2208
     48  CG2      -53.0530   -5.1920   -5.6370 C.3   547  THR547      0.0379
     49  N        -54.3590   -1.9020   -8.4460 N.am  548  TYR548     -0.1973
     50  CA       -55.5160   -1.4720   -9.2050 C.3   548  TYR548      0.1639
     51  C        -56.1830   -2.7230   -9.7780 C.2   548  TYR548      0.2290
     52  O        -55.5220   -3.5490  -10.4000 O.2   548  TYR548     -0.2864
     53  CB       -55.1790   -0.5800  -10.4120 C.3   548  TYR548      0.0560
     54  CG       -54.5700    0.7790  -10.1640 C.ar  548  TYR548     -0.0198
     55  CD1      -55.2510    1.7720   -9.4730 C.ar  548  TYR548     -0.0009
     56  CD2      -53.3560    1.1220  -10.7450 C.ar  548  TYR548     -0.0009
     57  CE1      -54.7060    3.0360   -9.2940 C.ar  548  TYR548      0.0417
     58  CE2      -52.7990    2.3820  -10.5810 C.ar  548  TYR548      0.0417
     59  CZ       -53.4740    3.3420   -9.8480 C.ar  548  TYR548      0.1957
     60  OH       -52.9270    4.5790   -9.6740 O.3   548  TYR548     -0.2866
     61  N        -59.2870   -0.1010   -5.9200 N.3   572  ASN572     -0.1225
     62  CA       -57.9760    0.3830   -5.4840 C.3   572  ASN572      0.1785
     63  C        -57.7640   -0.0130   -4.0210 C.2   572  ASN572      0.2597
     64  O        -58.6450    0.1840   -3.2000 O.2   572  ASN572     -0.2718
     65  CB       -57.8290    1.9060   -5.6180 C.3   572  ASN572      0.1169
     66  CG       -58.0870    2.4340   -7.0170 C.2   572  ASN572      0.2627
     67  OD1      -57.5010    1.9820   -7.9840 O.2   572  ASN572     -0.2716
     68  ND2      -58.9640    3.3980   -7.1300 N.am  572  ASN572     -0.0877
     69  N        -56.5750   -0.5430   -3.7230 N.am  573  GLN573     -0.1965
     70  CA       -56.1320   -0.8480   -2.3660 C.3   573  GLN573      0.1733
     71  C        -54.6850   -0.3850   -2.1830 C.2   573  GLN573      0.2616
     72  O        -53.8580   -0.5920   -3.0340 O.2   573  GLN573     -0.2715
     73  CB       -56.1620   -2.3470   -2.0870 C.3   573  GLN573      0.0408
     74  CG       -57.5400   -2.9860   -2.1790 C.3   573  GLN573      0.0908
     75  CD       -57.5990   -4.2650   -1.3780 C.2   573  GLN573      0.2608
     76  OE1      -57.0150   -4.3830   -0.3040 O.2   573  GLN573     -0.2717
     77  NE2      -58.3160   -5.2390   -1.8940 N.am  573  GLN573     -0.0878
     78  N        -54.4070    0.1890   -1.0160 N.am  574  ALA574     -0.1977
     79  CA       -53.0790    0.4280   -0.5430 C.3   574  ALA574      0.1597
     80  C        -52.9680   -0.0820    0.8970 C.2   574  ALA574      0.2287
     81  O        -53.7810    0.2850    1.7480 O.2   574  ALA574     -0.2864
     82  CB       -52.7790    1.9060   -0.6170 C.3   574  ALA574      0.0319
     83  N        -56.1750    1.2300    3.0770 N.3   597  ALA597     -0.1231
     84  CA       -56.9760    2.1940    2.3400 C.3   597  ALA597      0.1694
     85  C        -57.5700    1.5090    1.1180 C.2   597  ALA597      0.2592
     86  O        -56.8480    0.8960    0.3570 O.2   597  ALA597     -0.2718
     87  CB       -56.1190    3.3650    1.9290 C.3   597  ALA597      0.0304
     88  N        -58.8840    1.6630    0.9380 N.am  598  VAL598     -0.1966
     89  CA       -59.5640    1.1260   -0.1900 C.3   598  VAL598      0.1727
     90  C        -60.5380    2.1670   -0.7240 C.2   598  VAL598      0.2616
     91  O        -60.9930    3.0390    0.0020 O.2   598  VAL598     -0.2715
     92  CB       -60.2910   -0.1860    0.1490 C.3   598  VAL598      0.0290
     93  CG1      -59.3630   -1.1610    0.8510 C.3   598  VAL598      0.0023
     94  CG2      -61.5530    0.0550    0.9630 C.3   598  VAL598      0.0023
     95  N        -60.8690    2.0170   -2.0050 N.am  599  SER599     -0.1950
     96  CA       -61.8040    2.8840   -2.6770 C.3   599  SER599      0.1924
     97  C        -63.2080    2.2730   -2.5760 C.2   599  SER599      0.2314
     98  O        -63.3990    1.2460   -1.9360 O.2   599  SER599     -0.2863
     99  CB       -61.3670    3.1110   -4.1130 C.3   599  SER599      0.2116
    100  OG       -61.2710    1.8740   -4.8150 O.3   599  SER599     -0.2180
    101  N        -60.3570    4.1830    5.0730 N.3   615  THR615     -0.1218
    102  CA       -59.0250    3.9490    5.5460 C.3   615  THR615      0.1862
    103  C        -59.0850    3.5910    7.0310 C.2   615  THR615      0.2287
    104  O        -59.7290    4.2750    7.8210 O.2   615  THR615     -0.2866
    105  CB       -58.1390    5.1730    5.2870 C.3   615  THR615      0.1770
    106  OG1      -58.0580    5.3510    3.8780 O.3   615  THR615     -0.2211
    107  CG2      -56.7490    5.0370    5.8550 C.3   615  THR615      0.0375
@<TRIPOS>BOND
     1    16    14    1
     2    14    13    1
     3    15    13    1
     4    13    10    1
     5     8     6    1
     6     9    10    1
     7    10    11    1
     8     4     3    2
     9     6     7    1
    10     6     5    1
    11    56    58   ar
    12    56    54   ar
    13     3     2    1
    14    58    59   ar
    15    53    54    1
    16    53    50    1
    17    52    51    2
    18     5     2    1
    19    54    55   ar
    20    11    12    2
    21    59    60    1
    22    59    57   ar
    23    51    50    1
    24     2     1    1
    25    55    57   ar
    26    50    49    1
    27    49    44   am
    28    67    66    2
    29    68    66   am
    30    44    43    1
    31    44    45    2
    32    66    65    1
    33    17    18    1
    34    21    18    1
    35    21    22    1
    36    18    19    1
    37    43    46    1
    38    43    42    1
    39    22    23   ar
    40    22    24   ar
    41    46    48    1
    42    46    47    1
    43    23    25   ar
    44    61    62    1
    45    34    33    2
    46    65    62    1
    47    24    27   ar
    48    24    26   ar
    49    62    63    1
    50    25    26   ar
    51    42    33   am
    52    27    29   ar
    53    33    32    1
    54    26    28   ar
    55    19    20    2
    56   100    99    1
    57    29    30   ar
    58    35    32    1
    59    35    36    1
    60    28    30   ar
    61    99    96    1
    62    63    69   am
    63    63    64    2
    64    32    31    1
    65    69    70    1
    66    36    37   ar
    67    36    38   ar
    68    37    39   ar
    69    72    71    2
    70    38    40   ar
    71    96    97    1
    72    96    95    1
    73    97    98    2
    74    70    71    1
    75    70    73    1
    76    39    41   ar
    77    71    78   am
    78    74    73    1
    79    74    75    1
    80    40    41   ar
    81    95    90   am
    82    77    75   am
    83    75    76    2
    84    78    79    1
    85    90    89    1
    86    90    91    2
    87    82    79    1
    88    79    80    1
    89    89    92    1
    90    89    88    1
    91    92    93    1
    92    92    94    1
    93    86    85    2
    94    80    81    2
    95    88    85   am
    96    85    84    1
    97    87    84    1
    98    84    83    1
    99   106   105    1
   100   101   102    1
   101   105   102    1
   102   105   107    1
   103   102   103    1
   104   103   104    2
