@<TRIPOS>MOLECULE
tmp/6h7jE03.pdb
 98 90 0 0 0
SMALL
GASTEIGER

@<TRIPOS>ATOM
      1  N          1.7710  -34.2590  -35.3660 N.3    40  LEU40      -0.1245
      2  CA         2.9040  -35.1800  -35.2620 C.3    40  LEU40       0.1561
      3  C          3.8710  -35.0340  -36.4510 C.2    40  LEU40       0.2260
      4  O          5.0860  -34.9420  -36.2600 O.2    40  LEU40      -0.2867
      5  CB         2.4100  -36.6240  -35.1530 C.3    40  LEU40       0.0270
      6  CG         3.3240  -37.5580  -34.3700 C.3    40  LEU40       0.0019
      7  CD1        3.4760  -37.0910  -32.9220 C.3    40  LEU40       0.0001
      8  CD2        2.7800  -38.9800  -34.4520 C.3    40  LEU40       0.0001
      9  N          5.5760  -31.7550  -36.1090 N.3    43  THR43      -0.1203
     10  CA         6.6900  -31.8410  -35.1670 C.3    43  THR43       0.1994
     11  C          7.9690  -32.3240  -35.8600 C.2    43  THR43       0.2618
     12  O          9.0480  -31.7910  -35.5990 O.2    43  THR43      -0.2717
     13  CB         6.3810  -32.7630  -33.9620 C.3    43  THR43       0.1784
     14  OG1        5.0220  -32.5880  -33.5310 O.3    43  THR43      -0.2211
     15  CG2        7.3210  -32.4590  -32.7990 C.3    43  THR43       0.0376
     16  N          7.8430  -33.3280  -36.7340 N.am   44  SER44      -0.1951
     17  CA         8.9660  -33.7720  -37.5810 C.3    44  SER44       0.1924
     18  C          9.5000  -32.6010  -38.3780 C.2    44  SER44       0.2314
     19  O         10.7000  -32.3250  -38.3500 O.2    44  SER44      -0.2863
     20  CB         8.5450  -34.9030  -38.5420 C.3    44  SER44       0.2116
     21  OG         9.5410  -35.1910  -39.5270 O.3    44  SER44      -0.2180
     22  N         11.3410  -29.9710  -36.2400 N.3    47  CYS47      -0.1235
     23  CA        12.6660  -30.4370  -35.8290 C.3    47  CYS47       0.1677
     24  C         13.6970  -30.1690  -36.9250 C.2    47  CYS47       0.2270
     25  O         14.7420  -29.5710  -36.6750 O.2    47  CYS47      -0.2867
     26  CB        12.6540  -31.9330  -35.4980 C.3    47  CYS47       0.0956
     27  SG        11.7030  -32.3680  -34.0300 S.3    47  CYS47      -0.0801
     28  N         16.9780  -27.5580  -36.8090 N.3    51  VAL51      -0.1245
     29  CA        18.3790  -27.9690  -37.0020 C.3    51  VAL51       0.1561
     30  C         19.0170  -27.1400  -38.1210 C.2    51  VAL51       0.2260
     31  O         20.2070  -26.8510  -38.0690 O.2    51  VAL51      -0.2867
     32  CB        18.5320  -29.4900  -37.3060 C.3    51  VAL51       0.0252
     33  CG1       19.9840  -29.8620  -37.6060 C.3    51  VAL51       0.0019
     34  CG2       18.0430  -30.3490  -36.1520 C.3    51  VAL51       0.0019
     35  N         24.6880  -32.7930  -43.0820 N.3    82  LEU82      -0.1245
     36  CA        23.6320  -32.2790  -42.2020 C.3    82  LEU82       0.1561
     37  C         22.6500  -31.3620  -42.9540 C.2    82  LEU82       0.2260
     38  O         21.4450  -31.3980  -42.6910 O.2    82  LEU82      -0.2867
     39  CB        24.2430  -31.5200  -41.0240 C.3    82  LEU82       0.0270
     40  CG        23.3100  -31.1640  -39.8670 C.3    82  LEU82       0.0019
     41  CD1       23.2920  -32.3110  -38.8670 C.3    82  LEU82       0.0001
     42  CD2       23.7280  -29.8630  -39.1940 C.3    82  LEU82       0.0001
     43  N         20.5000  -33.6950  -45.1620 N.3    85  LEU85      -0.1245
     44  CA        19.6130  -34.4280  -44.2490 C.3    85  LEU85       0.1561
     45  C         18.3910  -33.6130  -43.8830 C.2    85  LEU85       0.2260
     46  O         17.2730  -34.0660  -44.0680 O.2    85  LEU85      -0.2867
     47  CB        20.3290  -34.7950  -42.9510 C.3    85  LEU85       0.0270
     48  CG        19.4620  -35.4920  -41.8920 C.3    85  LEU85       0.0019
     49  CD1       19.4850  -36.9950  -42.1100 C.3    85  LEU85       0.0001
     50  CD2       19.9250  -35.1440  -40.4850 C.3    85  LEU85       0.0001
     51  N         -1.5020  -43.8500  -34.9290 N.3   117  ARG117     -0.1245
     52  CA        -0.3650  -43.1310  -34.3560 C.3   117  ARG117      0.1563
     53  C          0.9430  -43.8680  -34.6330 C.2   117  ARG117      0.2260
     54  O          1.9330  -43.2540  -35.0300 O.2   117  ARG117     -0.2867
     55  CB        -0.5630  -42.9180  -32.8570 C.3   117  ARG117      0.0307
     56  CG        -1.6860  -41.9210  -32.5680 C.3   117  ARG117      0.0489
     57  CD        -1.8540  -41.6150  -31.0880 C.3   117  ARG117      0.2205
     58  NE        -0.8030  -40.7310  -30.5610 N.pl3 117  ARG117     -0.0865
     59  CZ        -0.6880  -39.4170  -30.8030 C.cat 117  ARG117      0.5346
     60  NH1        0.3200  -38.7370  -30.2510 N.pl3 117  ARG117      0.1354
     61  NH2       -1.5460  -38.7770  -31.6040 N.pl3 117  ARG117      0.1354
     62  N          4.3170  -42.6460  -36.8410 N.3   121  LYS121     -0.1245
     63  CA         5.6970  -42.7090  -36.3300 C.3   121  LYS121      0.1561
     64  C          6.6220  -43.4450  -37.3080 C.2   121  LYS121      0.2260
     65  O          7.7370  -42.9940  -37.5910 O.2   121  LYS121     -0.2867
     66  CB         5.7650  -43.3890  -34.9570 C.3   121  LYS121      0.0271
     67  CG         5.1440  -42.6010  -33.8020 C.3   121  LYS121      0.0035
     68  CD         5.3620  -43.3380  -32.4790 C.3   121  LYS121      0.0206
     69  CE         4.8200  -42.5830  -31.2700 C.3   121  LYS121      0.1093
     70  NZ         3.3410  -42.4280  -31.3000 N.3   121  LYS121     -0.1314
     71  N          7.3360  -41.2200  -40.1760 N.3   124  ILE124     -0.1231
     72  CA         8.3030  -40.1820  -39.7920 C.3   124  ILE124      0.1692
     73  C          9.7170  -40.7560  -39.7290 C.2   124  ILE124      0.2592
     74  O         10.6440  -40.1600  -40.2740 O.2   124  ILE124     -0.2718
     75  CB         7.9230  -39.5020  -38.4600 C.3   124  ILE124      0.0266
     76  CG1        6.6830  -38.6350  -38.6670 C.3   124  ILE124      0.0019
     77  CG2        9.0700  -38.6360  -37.9350 C.3   124  ILE124      0.0020
     78  CD1        6.0020  -38.2350  -37.3800 C.3   124  ILE124      0.0001
     79  N          9.8700  -41.9120  -39.0860 N.am  125  CYS125     -0.1970
     80  CA        11.1650  -42.5950  -39.0220 C.3   125  CYS125      0.1712
     81  C         11.7550  -42.8660  -40.4100 C.2   125  CYS125      0.2296
     82  O         12.9480  -42.6560  -40.6420 O.2   125  CYS125     -0.2864
     83  CB        11.0360  -43.9000  -38.2440 C.3   125  CYS125      0.0983
     84  SG        10.7460  -43.6470  -36.4810 S.3   125  CYS125     -0.0798
     85  N         13.1260  -39.6430  -42.1450 N.3   128  TRP128     -0.1241
     86  CA        14.4650  -39.3500  -41.6320 C.3   128  TRP128      0.1605
     87  C         15.5120  -40.3820  -42.0780 C.2   128  TRP128      0.2264
     88  O         16.6340  -40.0100  -42.4260 O.2   128  TRP128     -0.2867
     89  CB        14.4450  -39.1800  -40.1050 C.3   128  TRP128      0.0550
     90  CG        13.8680  -37.8550  -39.6980 C.ar  128  TRP128      0.0003
     91  CD1       12.5680  -37.5830  -39.3800 C.ar  128  TRP128      0.0946
     92  CD2       14.5660  -36.6100  -39.6160 C.ar  128  TRP128      0.0152
     93  NE1       12.4170  -36.2460  -39.0880 N.ar  128  TRP128     -0.2442
     94  CE2       13.6290  -35.6280  -39.2230 C.ar  128  TRP128      0.0810
     95  CE3       15.8940  -36.2290  -39.8290 C.ar  128  TRP128      0.0012
     96  CZ2       13.9810  -34.2940  -39.0310 C.ar  128  TRP128      0.0191
     97  CZ3       16.2440  -34.8920  -39.6450 C.ar  128  TRP128      0.0001
     98  CH2       15.2880  -33.9430  -39.2490 C.ar  128  TRP128      0.0015
@<TRIPOS>BOND
     1    43    44    1
     2    44    45    1
     3    44    47    1
     4    46    45    2
     5    35    36    1
     6    37    38    2
     7    37    36    1
     8    47    48    1
     9    88    87    2
    10    36    39    1
    11    85    86    1
    12    49    48    1
    13    87    86    1
    14    48    50    1
    15    86    89    1
    16    39    40    1
    17    82    81    2
    18    81    80    1
    19    74    73    2
    20    71    72    1
    21    89    90    1
    22    40    42    1
    23    40    41    1
    24    95    97   ar
    25    95    92   ar
    26    72    73    1
    27    72    75    1
    28    73    79   am
    29    90    92   ar
    30    90    91   ar
    31    97    98   ar
    32    92    94   ar
    33    21    20    1
    34    91    93   ar
    35    98    96   ar
    36    94    93   ar
    37    94    96   ar
    38    79    80    1
    39    80    83    1
    40    76    75    1
    41    76    78    1
    42    20    17    1
    43    75    77    1
    44    18    19    2
    45    18    17    1
    46    83    84    1
    47    30    31    2
    48    30    29    1
    49    33    32    1
    50    65    64    2
    51    17    16    1
    52    64    63    1
    53    32    29    1
    54    32    34    1
    55    29    28    1
    56    24    25    2
    57    24    23    1
    58    62    63    1
    59    16    11   am
    60     3     4    2
    61     3     2    1
    62    63    66    1
    63    22    23    1
    64     9    10    1
    65    11    12    2
    66    11    10    1
    67    23    26    1
    68    26    27    1
    69     1     2    1
    70     2     5    1
    71    10    13    1
    72     5     6    1
    73    54    53    2
    74    66    67    1
    75    51    52    1
    76    53    52    1
    77     8     6    1
    78     6     7    1
    79    52    55    1
    80    13    14    1
    81    13    15    1
    82    67    68    1
    83    55    56    1
    84    56    57    1
    85    68    69    1
    86    61    59    1
    87    70    69    1
    88    57    58    1
    89    59    58    2
    90    59    60    1
