@<TRIPOS>MOLECULE
tmp/6h7lB03.pdb
 101 93 0 0 0
SMALL
GASTEIGER

@<TRIPOS>ATOM
      1  N        -17.7290   37.9790  -18.8340 N.3    39  LEU39      -0.1245
      2  CA       -18.8860   38.8550  -19.0180 C.3    39  LEU39       0.1561
      3  C        -20.1830   38.0410  -19.0300 C.2    39  LEU39       0.2260
      4  O        -21.1290   38.3690  -18.3100 O.2    39  LEU39      -0.2867
      5  CB       -18.7440   39.6380  -20.3280 C.3    39  LEU39       0.0270
      6  CG       -19.1860   41.0840  -20.3310 C.3    39  LEU39       0.0019
      7  CD1      -18.3390   41.8790  -19.3440 C.3    39  LEU39       0.0001
      8  CD2      -19.0410   41.6070  -21.7510 C.3    39  LEU39       0.0001
      9  N        -20.7270   36.6200  -15.6910 N.3    42  THR42      -0.1203
     10  CA       -21.3060   37.6410  -14.8270 C.3    42  THR42       0.1994
     11  C        -22.8190   37.6810  -14.9820 C.2    42  THR42       0.2618
     12  O        -23.5210   37.8240  -13.9880 O.2    42  THR42      -0.2717
     13  CB       -20.7180   39.0590  -15.0800 C.3    42  THR42       0.1784
     14  OG1      -19.2800   39.0090  -15.1170 O.3    42  THR42      -0.2211
     15  CG2      -21.1430   40.0260  -13.9910 C.3    42  THR42       0.0376
     16  N        -23.3200   37.5580  -16.2110 N.am   43  SER43      -0.1951
     17  CA       -24.7710   37.5010  -16.4520 C.3    43  SER43       0.1924
     18  C        -25.3940   36.2960  -15.7420 C.2    43  SER43       0.2314
     19  O        -26.4210   36.4180  -15.0880 O.2    43  SER43      -0.2863
     20  CB       -25.0750   37.4480  -17.9590 C.3    43  SER43       0.2116
     21  OG       -26.4310   37.1310  -18.2280 O.3    43  SER43      -0.2180
     22  N        -25.4820   36.8680  -11.9190 N.3    46  CYS46      -0.1235
     23  CA       -26.5610   37.7810  -11.5650 C.3    46  CYS46       0.1677
     24  C        -27.8820   37.0090  -11.4800 C.2    46  CYS46       0.2270
     25  O        -28.6200   37.1340  -10.5060 O.2    46  CYS46      -0.2867
     26  CB       -26.6740   38.9200  -12.5840 C.3    46  CYS46       0.0956
     27  SG       -25.2710   40.0550  -12.6060 S.3    46  CYS46      -0.0801
     28  N        -30.1420   36.3220   -7.9690 N.3    50  VAL50      -0.1245
     29  CA       -31.5260   36.7650   -7.7610 C.3    50  VAL50       0.1561
     30  C        -32.4330   35.5710   -7.4560 C.2    50  VAL50       0.2260
     31  O        -33.4480   35.7330   -6.8020 O.2    50  VAL50      -0.2867
     32  CB       -32.0680   37.5840   -8.9630 C.3    50  VAL50       0.0252
     33  CG1      -33.5210   37.9870   -8.7540 C.3    50  VAL50       0.0019
     34  CG2      -31.2340   38.8450   -9.1790 C.3    50  VAL50       0.0019
     35  N        -34.3060   36.0890   -3.7360 N.3    54  LEU54      -0.1245
     36  CA       -35.7470   36.3450   -3.8060 C.3    54  LEU54       0.1561
     37  C        -36.5710   35.1160   -4.1570 C.2    54  LEU54       0.2260
     38  O        -37.5160   34.7960   -3.4460 O.2    54  LEU54      -0.2867
     39  CB       -36.0360   37.4500   -4.8160 C.3    54  LEU54       0.0270
     40  CG       -35.2610   38.7480   -4.5830 C.3    54  LEU54       0.0019
     41  CD1      -35.4630   39.7030   -5.7470 C.3    54  LEU54       0.0001
     42  CD2      -35.6840   39.4020   -3.2820 C.3    54  LEU54       0.0001
     43  N        -40.7080   36.6840  -11.7040 N.3    81  LEU81      -0.1245
     44  CA       -39.3000   36.7730  -11.3360 C.3    81  LEU81       0.1561
     45  C        -38.6100   35.4160  -11.4190 C.2    81  LEU81       0.2260
     46  O        -37.4400   35.3360  -11.8030 O.2    81  LEU81      -0.2867
     47  CB       -39.1540   37.3370   -9.9260 C.3    81  LEU81       0.0270
     48  CG       -37.7800   37.9300   -9.6390 C.3    81  LEU81       0.0019
     49  CD1      -37.7290   39.3770  -10.1150 C.3    81  LEU81       0.0001
     50  CD2      -37.4500   37.8410   -8.1580 C.3    81  LEU81       0.0001
     51  N        -38.2960   34.4820  -15.2730 N.3    84  LEU84      -0.1231
     52  CA       -37.2270   35.3460  -15.8010 C.3    84  LEU84       0.1693
     53  C        -35.8450   34.8360  -15.4400 C.2    84  LEU84       0.2592
     54  O        -35.0260   34.6110  -16.3230 O.2    84  LEU84      -0.2718
     55  CB       -37.3710   36.7890  -15.2960 C.3    84  LEU84       0.0284
     56  CG       -36.3560   37.8250  -15.8360 C.3    84  LEU84       0.0019
     57  CD1      -36.9920   39.1280  -16.2850 C.3    84  LEU84       0.0001
     58  CD2      -35.2940   38.1270  -14.8010 C.3    84  LEU84       0.0001
     59  N        -35.5930   34.6430  -14.1490 N.am   85  CYS85      -0.1970
     60  CA       -34.2440   34.2700  -13.6940 C.3    85  CYS85       0.1712
     61  C        -33.7860   32.8880  -14.1710 C.2    85  CYS85       0.2296
     62  O        -32.6060   32.6970  -14.4810 O.2    85  CYS85      -0.2864
     63  CB       -34.1370   34.3720  -12.1740 C.3    85  CYS85       0.0983
     64  SG       -34.1000   36.0770  -11.5730 S.3    85  CYS85      -0.0798
     65  N        -22.4060   42.4130  -25.0230 N.3   120  LYS120     -0.1245
     66  CA       -23.4470   43.1680  -24.3020 C.3   120  LYS120      0.1561
     67  C        -24.7970   43.0280  -24.9830 C.2   120  LYS120      0.2260
     68  O        -25.8030   42.8250  -24.3140 O.2   120  LYS120     -0.2867
     69  CB       -23.1080   44.6650  -24.1890 C.3   120  LYS120      0.0271
     70  CG       -21.9420   45.0080  -23.2820 C.3   120  LYS120      0.0035
     71  CD       -22.2730   45.0280  -21.7900 C.3   120  LYS120      0.0206
     72  CE       -20.9950   45.0470  -20.9460 C.3   120  LYS120      0.1093
     73  NZ       -19.9250   46.0430  -21.3120 N.3   120  LYS120     -0.1314
     74  N        -26.0660   39.5950  -24.3080 N.3   123  ILE123     -0.1231
     75  CA       -26.5400   39.5140  -22.9340 C.3   123  ILE123      0.1692
     76  C        -27.8840   40.2310  -22.7820 C.2   123  ILE123      0.2592
     77  O        -28.8130   39.6700  -22.2270 O.2   123  ILE123     -0.2718
     78  CB       -25.5020   40.0590  -21.9400 C.3   123  ILE123      0.0266
     79  CG1      -24.2910   39.1250  -21.9090 C.3   123  ILE123      0.0019
     80  CG2      -26.0870   40.1470  -20.5360 C.3   123  ILE123      0.0020
     81  CD1      -23.0090   39.7780  -21.4020 C.3   123  ILE123      0.0001
     82  N        -27.9740   41.4540  -23.2920 N.am  124  CYS124     -0.1970
     83  CA       -29.2070   42.2460  -23.2230 C.3   124  CYS124      0.1712
     84  C        -30.3660   41.5310  -23.8800 C.2   124  CYS124      0.2296
     85  O        -31.4800   41.5290  -23.3310 O.2   124  CYS124     -0.2864
     86  CB       -29.0220   43.6270  -23.8680 C.3   124  CYS124      0.0983
     87  SG       -28.0170   44.7700  -22.9030 S.3   124  CYS124     -0.0798
     88  N        -31.7120   38.6310  -21.6050 N.3   127  TRP127     -0.1241
     89  CA       -32.5890   39.1400  -20.5370 C.3   127  TRP127      0.1605
     90  C        -33.8860   39.7030  -21.0710 C.2   127  TRP127      0.2264
     91  O        -34.9110   39.5570  -20.4180 O.2   127  TRP127     -0.2867
     92  CB       -31.8770   40.1780  -19.6750 C.3   127  TRP127      0.0550
     93  CG       -30.8420   39.5680  -18.7930 C.ar  127  TRP127      0.0003
     94  CD1      -29.5600   39.3360  -19.1160 C.ar  127  TRP127      0.0946
     95  CD2      -31.0170   39.1000  -17.4510 C.ar  127  TRP127      0.0152
     96  NE1      -28.9060   38.7580  -18.0660 N.ar  127  TRP127     -0.2442
     97  CE2      -29.7770   38.6070  -17.0230 C.ar  127  TRP127      0.0810
     98  CE3      -32.1010   39.0460  -16.5710 C.ar  127  TRP127      0.0012
     99  CZ2      -29.5760   38.0620  -15.7450 C.ar  127  TRP127      0.0191
    100  CZ3      -31.8940   38.5040  -15.2920 C.ar  127  TRP127      0.0001
    101  CH2      -30.6370   38.0200  -14.9040 C.ar  127  TRP127      0.0015
@<TRIPOS>BOND
     1    65    66    1
     2    67    68    2
     3    67    66    1
     4    74    75    1
     5    66    69    1
     6    69    70    1
     7    84    85    2
     8    84    83    1
     9    86    83    1
    10    86    87    1
    11    82    83    1
    12    82    76   am
    13    70    71    1
    14    75    76    1
    15    75    78    1
    16    76    77    2
    17    78    79    1
    18    78    80    1
    19    79    81    1
    20    71    72    1
    21     8     6    1
    22    88    89    1
    23    73    72    1
    24    90    89    1
    25    90    91    2
    26    89    92    1
    27     6     5    1
    28     6     7    1
    29     5     2    1
    30    92    93    1
    31    94    93   ar
    32    94    96   ar
    33     3     2    1
    34     3     4    2
    35     2     1    1
    36    93    95   ar
    37    21    20    1
    38    96    97   ar
    39    20    17    1
    40    95    97   ar
    41    95    98   ar
    42    97    99   ar
    43    98   100   ar
    44    17    16    1
    45    17    18    1
    46    54    53    2
    47    57    56    1
    48    16    11   am
    49    56    55    1
    50    56    58    1
    51    52    53    1
    52    52    55    1
    53    52    51    1
    54    99   101   ar
    55    18    19    2
    56     9    10    1
    57    53    59   am
    58   100   101   ar
    59    14    13    1
    60    13    10    1
    61    13    15    1
    62    11    10    1
    63    11    12    2
    64    62    61    2
    65    61    60    1
    66    59    60    1
    67    60    63    1
    68    27    26    1
    69    26    23    1
    70    63    64    1
    71    22    23    1
    72    46    45    2
    73    43    44    1
    74    23    24    1
    75    24    25    2
    76    45    44    1
    77    44    47    1
    78    49    48    1
    79    47    48    1
    80    48    50    1
    81    34    32    1
    82    32    33    1
    83    32    29    1
    84    28    29    1
    85    29    30    1
    86    30    31    2
    87    41    40    1
    88    39    40    1
    89    39    36    1
    90    40    42    1
    91    37    36    1
    92    37    38    2
    93    36    35    1
