@<TRIPOS>MOLECULE
tmp/6h7lE04.pdb
 76 70 0 0 0
SMALL
GASTEIGER

@<TRIPOS>ATOM
      1  N        -50.7960   27.5180  -54.5870 N.3   181  LEU181     -0.1245
      2  CA       -51.5370   28.5270  -55.3250 C.3   181  LEU181      0.1561
      3  C        -52.6240   27.8920  -56.1530 C.2   181  LEU181      0.2260
      4  O        -53.7550   28.3320  -56.0930 O.2   181  LEU181     -0.2867
      5  CB       -50.6200   29.3210  -56.2400 C.3   181  LEU181      0.0270
      6  CG       -51.3130   30.3250  -57.1560 C.3   181  LEU181      0.0019
      7  CD1      -51.9890   31.4520  -56.3880 C.3   181  LEU181      0.0001
      8  CD2      -50.3090   30.8720  -58.1420 C.3   181  LEU181      0.0001
      9  N        -56.6110   28.5400  -55.7500 N.3   185  ILE185     -0.1245
     10  CA       -57.4400   29.1020  -56.8270 C.3   185  ILE185      0.1561
     11  C        -58.6250   28.1900  -57.0940 C.2   185  ILE185      0.2260
     12  O        -59.7630   28.6420  -57.1050 O.2   185  ILE185     -0.2867
     13  CB       -56.6700   29.2560  -58.1560 C.3   185  ILE185      0.0252
     14  CG1      -55.4930   30.2270  -58.0140 C.3   185  ILE185      0.0019
     15  CG2      -57.6020   29.7470  -59.2700 C.3   185  ILE185      0.0019
     16  CD1      -54.3680   29.8920  -58.9760 C.3   185  ILE185      0.0001
     17  N        -66.8450   30.4660  -54.7550 N.3   192  TYR192     -0.1241
     18  CA       -67.4900   31.5330  -55.5050 C.3   192  TYR192      0.1605
     19  C        -68.5780   30.9840  -56.4050 C.2   192  TYR192      0.2264
     20  O        -69.6750   31.5290  -56.4360 O.2   192  TYR192     -0.2867
     21  CB       -66.4830   32.2840  -56.3650 C.3   192  TYR192      0.0534
     22  CG       -67.1220   33.2980  -57.2800 C.ar  192  TYR192     -0.0201
     23  CD1      -67.5820   34.5200  -56.7820 C.ar  192  TYR192     -0.0009
     24  CD2      -67.2860   33.0350  -58.6420 C.ar  192  TYR192     -0.0009
     25  CE1      -68.1770   35.4550  -57.6180 C.ar  192  TYR192      0.0417
     26  CE2      -67.8740   33.9720  -59.4860 C.ar  192  TYR192      0.0417
     27  CZ       -68.3110   35.1820  -58.9630 C.ar  192  TYR192      0.1957
     28  OH       -68.8960   36.1210  -59.7740 O.3   192  TYR192     -0.2866
     29  N        -67.0610   38.8600  -51.1450 N.3   215  LEU215     -0.1231
     30  CA       -66.3240   38.9880  -52.3800 C.3   215  LEU215      0.1693
     31  C        -65.0620   39.8470  -52.1860 C.2   215  LEU215      0.2591
     32  O        -64.0110   39.5620  -52.7870 O.2   215  LEU215     -0.2718
     33  CB       -67.2430   39.5520  -53.4670 C.3   215  LEU215      0.0284
     34  CG       -66.9100   39.1870  -54.9170 C.3   215  LEU215      0.0019
     35  CD1      -67.0630   37.6990  -55.1670 C.3   215  LEU215      0.0001
     36  CD2      -67.7810   39.9750  -55.8780 C.3   215  LEU215      0.0001
     37  N        -65.1730   40.8880  -51.3570 N.am  216  LYS216     -0.1980
     38  CA       -64.0030   41.6810  -50.9440 C.3   216  LYS216      0.1596
     39  C        -62.9790   40.8000  -50.1850 C.2   216  LYS216      0.2287
     40  O        -61.7740   40.8030  -50.4810 O.2   216  LYS216     -0.2864
     41  CB       -64.4710   42.8820  -50.1090 C.3   216  LYS216      0.0298
     42  CG       -63.4200   43.5930  -49.2400 C.3   216  LYS216      0.0038
     43  CD       -64.0660   44.5670  -48.2350 C.3   216  LYS216      0.0206
     44  CE       -63.7030   44.2850  -46.7610 C.3   216  LYS216      0.1093
     45  NZ       -64.2770   42.9900  -46.2660 N.3   216  LYS216     -0.1314
     46  N        -62.6560   37.5050  -50.2820 N.3   218  LEU218     -0.1231
     47  CA       -62.0420   36.6040  -51.2630 C.3   218  LEU218      0.1693
     48  C        -60.9660   37.2970  -52.1040 C.2   218  LEU218      0.2592
     49  O        -59.9640   36.6710  -52.5160 O.2   218  LEU218     -0.2718
     50  CB       -63.1100   36.0320  -52.1890 C.3   218  LEU218      0.0284
     51  CG       -62.6890   34.7570  -52.9030 C.3   218  LEU218      0.0019
     52  CD1      -62.3330   33.6670  -51.8990 C.3   218  LEU218      0.0001
     53  CD2      -63.7920   34.2850  -53.8360 C.3   218  LEU218      0.0001
     54  N        -61.1900   38.5820  -52.3650 N.am  219  GLY219     -0.1957
     55  CA       -60.2200   39.4050  -53.0480 C.3   219  GLY219      0.1869
     56  C        -58.9610   39.6090  -52.2480 C.2   219  GLY219      0.2309
     57  O        -57.8660   39.4160  -52.7640 O.2   219  GLY219     -0.2863
     58  N        -56.8670   36.0990  -51.8090 N.3   222  MET222     -0.1230
     59  CA       -56.0930   35.7590  -53.0090 C.3   222  MET222      0.1702
     60  C        -55.1940   36.8900  -53.5040 C.2   222  MET222      0.2592
     61  O        -54.1240   36.6410  -54.0610 O.2   222  MET222     -0.2718
     62  CB       -57.0210   35.3090  -54.1320 C.3   222  MET222      0.0401
     63  CG       -57.7240   33.9900  -53.8410 C.3   222  MET222      0.0596
     64  SD       -56.5800   32.5980  -53.5940 S.3   222  MET222     -0.1393
     65  CE       -55.7840   32.5300  -55.1900 C.3   222  MET222      0.0692
     66  N        -55.6280   38.1270  -53.3030 N.am  223  GLY223     -0.1957
     67  CA       -54.8740   39.2930  -53.7650 C.3   223  GLY223      0.1869
     68  C        -53.5510   39.5040  -53.0530 C.2   223  GLY223      0.2309
     69  O        -52.5000   39.5830  -53.7010 O.2   223  GLY223     -0.2863
     70  N        -51.0650   36.6070  -53.4250 N.3   226  THR226     -0.1218
     71  CA       -50.4620   36.5520  -54.7590 C.3   226  THR226      0.1862
     72  C        -49.5570   37.7660  -55.0130 C.2   226  THR226      0.2287
     73  O        -48.4150   37.5980  -55.4450 O.2   226  THR226     -0.2866
     74  CB       -51.5240   36.3810  -55.8610 C.3   226  THR226      0.1770
     75  OG1      -52.3290   35.2400  -55.5570 O.3   226  THR226     -0.2211
     76  CG2      -50.8760   36.1370  -57.2120 C.3   226  THR226      0.0375
@<TRIPOS>BOND
     1    28    27    1
     2    26    27   ar
     3    26    24   ar
     4    15    13    1
     5    16    14    1
     6    27    25   ar
     7    24    22   ar
     8    13    14    1
     9    13    10    1
    10     8     6    1
    11    25    23   ar
    12    22    23   ar
    13    22    21    1
    14    76    74    1
    15     6     7    1
    16     6     5    1
    17    12    11    2
    18    11    10    1
    19    10     9    1
    20    20    19    2
    21    19    18    1
    22    21    18    1
    23     5     2    1
    24     3     4    2
    25     3     2    1
    26    36    34    1
    27    74    75    1
    28    74    71    1
    29    18    17    1
    30    73    72    2
    31     2     1    1
    32    65    64    1
    33    35    34    1
    34    72    71    1
    35    34    33    1
    36    71    70    1
    37    62    63    1
    38    62    59    1
    39    61    60    2
    40    63    64    1
    41    53    51    1
    42    67    66    1
    43    67    68    1
    44    69    68    2
    45    60    66   am
    46    60    59    1
    47    33    30    1
    48    55    54    1
    49    55    56    1
    50    59    58    1
    51    51    50    1
    52    51    52    1
    53    32    31    2
    54    57    56    2
    55    49    48    2
    56    30    31    1
    57    30    29    1
    58    54    48   am
    59    50    47    1
    60    31    37   am
    61    48    47    1
    62    37    38    1
    63    47    46    1
    64    38    39    1
    65    38    41    1
    66    40    39    2
    67    41    42    1
    68    42    43    1
    69    43    44    1
    70    44    45    1
