@<TRIPOS>MOLECULE
tmp/6h7mB02.pdb
 82 75 0 0 0
SMALL
GASTEIGER

@<TRIPOS>ATOM
      1  N        -27.3540  -37.0390   24.7970 N.3   181  LEU181     -0.1245
      2  CA       -27.9050  -38.3810   24.6490 C.3   181  LEU181      0.1561
      3  C        -28.3770  -38.9450   25.9770 C.2   181  LEU181      0.2260
      4  O        -29.4140  -39.5880   26.0250 O.2   181  LEU181     -0.2867
      5  CB       -26.9000  -39.3470   24.0350 C.3   181  LEU181      0.0270
      6  CG       -27.3110  -40.8330   23.9460 C.3   181  LEU181      0.0019
      7  CD1      -28.5660  -41.0650   23.1090 C.3   181  LEU181      0.0001
      8  CD2      -26.1360  -41.6300   23.3870 C.3   181  LEU181      0.0001
      9  N        -32.3090  -39.7800   27.0020 N.3   185  ILE185     -0.1245
     10  CA       -32.7120  -41.1020   27.4990 C.3   185  ILE185      0.1561
     11  C        -33.4880  -40.9310   28.7970 C.2   185  ILE185      0.2260
     12  O        -34.6420  -41.3330   28.8860 O.2   185  ILE185     -0.2867
     13  CB       -31.5060  -42.0320   27.7410 C.3   185  ILE185      0.0252
     14  CG1      -30.8580  -42.4330   26.4160 C.3   185  ILE185      0.0019
     15  CG2      -31.9230  -43.2870   28.4890 C.3   185  ILE185      0.0019
     16  CD1      -29.3920  -42.8020   26.5390 C.3   185  ILE185      0.0001
     17  N        -49.5450  -47.6220   21.3090 N.3   219  HIS219     -0.1241
     18  CA       -48.5760  -48.1580   20.3260 C.3   219  HIS219      0.1621
     19  C        -47.9480  -47.0550   19.4840 C.2   219  HIS219      0.2264
     20  O        -46.7480  -47.0840   19.2320 O.2   219  HIS219     -0.2867
     21  CB       -49.2140  -49.2080   19.4100 C.3   219  HIS219      0.0745
     22  CG       -49.4060  -50.5370   20.0710 C.ar  219  HIS219      0.0817
     23  ND1      -50.6420  -51.1360   20.1920 N.ar  219  HIS219     -0.2268
     24  CD2      -48.5220  -51.3710   20.6700 C.ar  219  HIS219      0.1154
     25  CE1      -50.5090  -52.2870   20.8280 C.ar  219  HIS219      0.1986
     26  NE2      -49.2340  -52.4510   21.1330 N.ar  219  HIS219     -0.2212
     27  N        -45.4070  -45.0550   21.4880 N.3   222  LEU222     -0.1231
     28  CA       -44.1920  -45.8310   21.6670 C.3   222  LEU222      0.1693
     29  C        -43.3640  -45.8490   20.3750 C.2   222  LEU222      0.2591
     30  O        -42.1440  -45.7900   20.4220 O.2   222  LEU222     -0.2718
     31  CB       -44.5450  -47.2530   22.1240 C.3   222  LEU222      0.0284
     32  CG       -43.6200  -47.8780   23.1510 C.3   222  LEU222      0.0019
     33  CD1      -43.6870  -47.1360   24.4840 C.3   222  LEU222      0.0001
     34  CD2      -44.0070  -49.3370   23.3190 C.3   222  LEU222      0.0001
     35  N        -44.0310  -45.9330   19.2290 N.am  223  LYS223     -0.1980
     36  CA       -43.3790  -45.8190   17.9180 C.3   223  LYS223      0.1596
     37  C        -42.6710  -44.4640   17.7660 C.2   223  LYS223      0.2287
     38  O        -41.5260  -44.4140   17.2990 O.2   223  LYS223     -0.2864
     39  CB       -44.4140  -46.0100   16.7930 C.3   223  LYS223      0.0298
     40  CG       -43.8610  -46.0260   15.3660 C.3   223  LYS223      0.0038
     41  CD       -44.9380  -46.2640   14.3050 C.3   223  LYS223      0.0206
     42  CE       -45.9520  -45.1220   14.1750 C.3   223  LYS223      0.1093
     43  NZ       -45.3770  -43.8130   13.7370 N.3   223  LYS223     -0.1314
     44  N        -41.6700  -42.2890   20.1890 N.3   225  LEU225     -0.1231
     45  CA       -40.5670  -42.2920   21.1370 C.3   225  LEU225      0.1693
     46  C        -39.3550  -43.0840   20.6170 C.2   225  LEU225      0.2592
     47  O        -38.2060  -42.7090   20.8500 O.2   225  LEU225     -0.2718
     48  CB       -41.0710  -42.8800   22.4530 C.3   225  LEU225      0.0284
     49  CG       -40.4170  -42.5080   23.7560 C.3   225  LEU225      0.0019
     50  CD1      -40.3630  -41.0080   23.9110 C.3   225  LEU225      0.0001
     51  CD2      -41.2410  -43.1150   24.8860 C.3   225  LEU225      0.0001
     52  N        -39.6330  -44.1760   19.9090 N.am  226  GLY226     -0.1957
     53  CA       -38.6090  -44.9900   19.2650 C.3   226  GLY226      0.1869
     54  C        -37.9410  -44.2830   18.1080 C.2   226  GLY226      0.2309
     55  O        -36.7150  -44.2860   18.0190 O.2   226  GLY226     -0.2863
     56  N        -35.5570  -41.4220   19.4670 N.3   229  MET229     -0.1230
     57  CA       -34.3180  -41.9650   20.0210 C.3   229  MET229      0.1702
     58  C        -33.5320  -42.8120   19.0290 C.2   229  MET229      0.2592
     59  O        -32.3050  -42.8290   19.0760 O.2   229  MET229     -0.2718
     60  CB       -34.6130  -42.8200   21.2520 C.3   229  MET229      0.0401
     61  CG       -35.1610  -42.0570   22.4290 C.3   229  MET229      0.0596
     62  SD       -34.0760  -40.7460   22.9690 S.3   229  MET229     -0.1393
     63  CE       -32.6500  -41.6610   23.5350 C.3   229  MET229      0.0692
     64  N        -34.2370  -43.5180   18.1480 N.am  230  GLY230     -0.1957
     65  CA       -33.6010  -44.3820   17.1610 C.3   230  GLY230      0.1869
     66  C        -32.8300  -43.6270   16.0930 C.2   230  GLY230      0.2309
     67  O        -31.6260  -43.8540   15.9090 O.2   230  GLY230     -0.2863
     68  N        -29.9430  -41.5810   17.4770 N.3   233  THR233     -0.1218
     69  CA       -28.8580  -42.4720   17.9050 C.3   233  THR233      0.1862
     70  C        -28.1540  -43.1210   16.7220 C.2   233  THR233      0.2287
     71  O        -26.9160  -43.0730   16.6350 O.2   233  THR233     -0.2866
     72  CB       -29.3580  -43.5710   18.8490 C.3   233  THR233      0.1770
     73  OG1      -29.9170  -42.9650   20.0190 O.3   233  THR233     -0.2211
     74  CG2      -28.2050  -44.5040   19.2680 C.3   233  THR233      0.0375
     75  N        -24.5240  -41.7020   16.9290 N.3   237  LEU237     -0.1245
     76  CA       -23.7390  -42.5850   17.8170 C.3   237  LEU237      0.1561
     77  C        -22.5230  -43.2510   17.1570 C.2   237  LEU237      0.2260
     78  O        -21.4700  -43.3410   17.7940 O.2   237  LEU237     -0.2867
     79  CB       -24.5990  -43.6560   18.4820 C.3   237  LEU237      0.0270
     80  CG       -23.8690  -44.5620   19.4880 C.3   237  LEU237      0.0019
     81  CD1      -23.1350  -43.8090   20.5970 C.3   237  LEU237      0.0001
     82  CD2      -24.8780  -45.5250   20.0920 C.3   237  LEU237      0.0001
@<TRIPOS>BOND
     1    43    42    1
     2    42    41    1
     3    41    40    1
     4    40    39    1
     5    67    66    2
     6    66    65    1
     7    71    70    2
     8    70    69    1
     9    39    36    1
    10    75    76    1
    11    77    78    2
    12    77    76    1
    13    65    64    1
    14    38    37    2
    15    68    69    1
    16    37    36    1
    17    76    79    1
    18    69    72    1
    19    36    35    1
    20    55    54    2
    21    54    53    1
    22    64    58   am
    23    79    80    1
    24    72    74    1
    25    72    73    1
    26    58    59    2
    27    58    57    1
    28    35    29   am
    29    20    19    2
    30    53    52    1
    31    21    22    1
    32    21    18    1
    33    56    57    1
    34    19    18    1
    35    80    82    1
    36    80    81    1
    37    52    46   am
    38    57    60    1
    39    22    23   ar
    40    22    24   ar
    41    44    45    1
    42    23    25   ar
    43    18    17    1
    44    29    30    2
    45    29    28    1
    46    46    47    2
    47    46    45    1
    48    24    26   ar
    49    25    26   ar
    50    45    48    1
    51    60    61    1
    52    27    28    1
    53    28    31    1
    54    31    32    1
    55    61    62    1
    56    48    49    1
    57    62    63    1
    58     7     6    1
    59    32    34    1
    60    32    33    1
    61     8     6    1
    62    49    50    1
    63    49    51    1
    64     6     5    1
    65     5     2    1
    66     2     1    1
    67     2     3    1
    68     3     4    2
    69    14    16    1
    70    14    13    1
    71     9    10    1
    72    10    13    1
    73    10    11    1
    74    13    15    1
    75    11    12    2
