@<TRIPOS>MOLECULE
tmp/6h7nD01.pdb
 100 90 0 0 0
SMALL
GASTEIGER

@<TRIPOS>ATOM
      1  N         -7.0770  -26.7050   31.7260 N.3    24  ILE24      -0.1245
      2  CA        -7.3740  -27.9580   31.0260 C.3    24  ILE24       0.1561
      3  C         -6.9590  -27.8520   29.5570 C.2    24  ILE24       0.2260
      4  O         -6.4510  -28.8090   28.9860 O.2    24  ILE24      -0.2867
      5  CB        -8.8630  -28.3510   31.1440 C.3    24  ILE24       0.0252
      6  CG1       -9.2270  -28.6290   32.6090 C.3    24  ILE24       0.0019
      7  CG2       -9.1740  -29.5840   30.3040 C.3    24  ILE24       0.0019
      8  CD1      -10.7180  -28.5410   32.9050 C.3    24  ILE24       0.0001
      9  N         -3.0440  -28.1070   29.4000 N.3    27  ILE27      -0.1231
     10  CA        -2.5520  -29.4660   29.6060 C.3    27  ILE27       0.1692
     11  C         -2.8470  -30.3390   28.3900 C.2    27  ILE27       0.2592
     12  O         -1.9940  -31.0850   27.9480 O.2    27  ILE27      -0.2718
     13  CB        -3.1280  -30.0870   30.8960 C.3    27  ILE27       0.0266
     14  CG1       -2.6220  -29.3010   32.1160 C.3    27  ILE27       0.0019
     15  CG2       -2.7580  -31.5640   31.0200 C.3    27  ILE27       0.0020
     16  CD1       -3.3780  -29.6100   33.3870 C.3    27  ILE27       0.0001
     17  N         -4.0480  -30.2450   27.8510 N.am   28  GLY28      -0.1957
     18  CA        -4.4320  -31.0190   26.6690 C.3    28  GLY28       0.1869
     19  C         -3.7040  -30.6310   25.3900 C.2    28  GLY28       0.2309
     20  O         -3.4700  -31.4790   24.5320 O.2    28  GLY28      -0.2863
     21  N          1.8570  -32.4610   30.0620 N.3    34  GLN34      -0.1245
     22  CA         1.2100  -33.7210   30.4320 C.3    34  GLN34       0.1566
     23  C          2.1070  -34.5920   31.3100 C.2    34  GLN34       0.2260
     24  O          2.3900  -35.7330   30.9750 O.2    34  GLN34      -0.2867
     25  CB         0.7600  -34.4760   29.1800 C.3    34  GLN34       0.0367
     26  CG        -0.3270  -33.7610   28.3950 C.3    34  GLN34       0.0905
     27  CD        -0.6120  -34.4050   27.0440 C.2    34  GLN34       0.2608
     28  OE1       -0.0830  -35.4710   26.7210 O.2    34  GLN34      -0.2717
     29  NE2       -1.4440  -33.7450   26.2360 N.am   34  GLN34      -0.0878
     30  N         -1.5940  -34.5280   35.8580 N.3    39  LEU39      -0.1245
     31  CA        -2.7140  -35.4640   35.8110 C.3    39  LEU39       0.1561
     32  C         -3.6690  -35.2250   36.9930 C.2    39  LEU39       0.2260
     33  O         -4.8890  -35.1450   36.8130 O.2    39  LEU39      -0.2867
     34  CB        -2.2020  -36.9060   35.8240 C.3    39  LEU39       0.0270
     35  CG        -3.1770  -37.9420   35.2630 C.3    39  LEU39       0.0019
     36  CD1       -3.5150  -37.6690   33.7960 C.3    39  LEU39       0.0001
     37  CD2       -2.5860  -39.3310   35.4460 C.3    39  LEU39       0.0001
     38  N         -5.3550  -31.9210   36.5460 N.3    42  THR42      -0.1218
     39  CA        -6.4780  -32.0470   35.6230 C.3    42  THR42       0.1862
     40  C         -7.7570  -32.4650   36.3630 C.2    42  THR42       0.2287
     41  O         -8.8250  -31.9200   36.1060 O.2    42  THR42      -0.2866
     42  CB        -6.1820  -33.0470   34.4870 C.3    42  THR42       0.1770
     43  OG1       -4.9090  -32.7590   33.8930 O.3    42  THR42      -0.2211
     44  CG2       -7.2380  -32.9620   33.4090 C.3    42  THR42       0.0375
     45  N        -11.1420  -30.1600   36.6640 N.3    46  CYS46      -0.1235
     46  CA       -12.4490  -30.6550   36.2650 C.3    46  CYS46       0.1677
     47  C        -13.4870  -30.4020   37.3570 C.2    46  CYS46       0.2270
     48  O        -14.5730  -29.9080   37.0840 O.2    46  CYS46      -0.2867
     49  CB       -12.3740  -32.1400   35.8940 C.3    46  CYS46       0.0956
     50  SG       -11.5020  -32.4310   34.3240 S.3    46  CYS46      -0.0801
     51  N        -14.1990  -26.7680   37.6410 N.3    49  LEU49      -0.1231
     52  CA       -14.9650  -26.3960   36.4400 C.3    49  LEU49       0.1693
     53  C        -16.4510  -26.7290   36.5620 C.2    49  LEU49       0.2591
     54  O        -17.2790  -25.9180   36.1920 O.2    49  LEU49      -0.2718
     55  CB       -14.3760  -27.0650   35.1920 C.3    49  LEU49       0.0284
     56  CG       -15.0960  -26.9100   33.8550 C.3    49  LEU49       0.0019
     57  CD1      -15.2600  -25.4400   33.5020 C.3    49  LEU49       0.0001
     58  CD2      -14.3000  -27.6440   32.7840 C.3    49  LEU49       0.0001
     59  N        -16.7810  -27.9110   37.0750 N.am   50  VAL50      -0.1980
     60  CA       -18.1840  -28.2990   37.2770 C.3    50  VAL50       0.1595
     61  C        -18.8170  -27.4330   38.3740 C.2    50  VAL50       0.2287
     62  O        -20.0020  -27.1390   38.3150 O.2    50  VAL50      -0.2864
     63  CB       -18.3420  -29.8040   37.6210 C.3    50  VAL50       0.0276
     64  CG1      -19.7920  -30.1560   37.9240 C.3    50  VAL50       0.0022
     65  CG2      -17.8390  -30.6890   36.4930 C.3    50  VAL50       0.0022
     66  N        -19.6900  -24.1720   36.4310 N.3    53  LEU53      -0.1231
     67  CA       -20.7130  -24.3050   35.3950 C.3    53  LEU53       0.1693
     68  C        -22.1000  -24.5640   35.9420 C.2    53  LEU53       0.2591
     69  O        -23.0500  -23.9430   35.4930 O.2    53  LEU53      -0.2718
     70  CB       -20.3760  -25.4400   34.4260 C.3    53  LEU53       0.0284
     71  CG       -19.1880  -25.2170   33.5030 C.3    53  LEU53       0.0019
     72  CD1      -19.0060  -26.4520   32.6340 C.3    53  LEU53       0.0001
     73  CD2      -19.3360  -23.9580   32.6540 C.3    53  LEU53       0.0001
     74  N        -22.2200  -25.5070   36.8720 N.am   54  LEU54      -0.1980
     75  CA       -23.5330  -25.9770   37.3400 C.3    54  LEU54       0.1596
     76  C        -23.8450  -25.6380   38.7850 C.2    54  LEU54       0.2287
     77  O        -24.9560  -25.2370   39.0790 O.2    54  LEU54      -0.2864
     78  CB       -23.6590  -27.4860   37.1270 C.3    54  LEU54       0.0297
     79  CG       -23.2540  -27.9750   35.7270 C.3    54  LEU54       0.0022
     80  CD1      -23.3430  -29.4960   35.6350 C.3    54  LEU54       0.0001
     81  CD2      -24.0800  -27.3020   34.6300 C.3    54  LEU54       0.0001
     82  N        -24.4500  -32.9850   43.3850 N.3    81  LEU81      -0.1245
     83  CA       -23.3870  -32.5130   42.5070 C.3    81  LEU81       0.1561
     84  C        -22.4450  -31.5300   43.2060 C.2    81  LEU81       0.2260
     85  O        -21.2420  -31.5620   42.9740 O.2    81  LEU81      -0.2867
     86  CB       -23.9930  -31.8320   41.2760 C.3    81  LEU81       0.0270
     87  CG       -23.0650  -31.6320   40.0760 C.3    81  LEU81       0.0019
     88  CD1      -22.9190  -32.9520   39.3360 C.3    81  LEU81       0.0001
     89  CD2      -23.6020  -30.5490   39.1510 C.3    81  LEU81       0.0001
     90  N          1.7890  -43.8730   35.7840 N.3   116  ARG116     -0.1245
     91  CA         0.6460  -43.1350   35.2480 C.3   116  ARG116      0.1563
     92  C         -0.6590  -43.8870   35.5030 C.2   116  ARG116      0.2260
     93  O         -1.6600  -43.2900   35.8970 O.2   116  ARG116     -0.2867
     94  CB         0.8070  -42.8940   33.7450 C.3   116  ARG116      0.0307
     95  CG         1.9570  -41.9610   33.3940 C.3   116  ARG116      0.0489
     96  CD         1.9840  -41.5910   31.9170 C.3   116  ARG116      0.2205
     97  NE         0.9410  -40.6340   31.5260 N.pl3 116  ARG116     -0.0865
     98  CZ         0.9230  -39.3300   31.8280 C.cat 116  ARG116      0.5346
     99  NH1        1.8790  -38.7700   32.5720 N.pl3 116  ARG116      0.1354
    100  NH2       -0.0830  -38.5730   31.4010 N.pl3 116  ARG116      0.1354
@<TRIPOS>BOND
     1    20    19    2
     2    19    18    1
     3    29    27   am
     4    18    17    1
     5    28    27    2
     6    27    26    1
     7    17    11   am
     8    12    11    2
     9    11    10    1
    10    26    25    1
    11     4     3    2
    12    25    22    1
    13     9    10    1
    14     3     2    1
    15    10    13    1
    16    21    22    1
    17     7     5    1
    18    22    23    1
    19    13    15    1
    20    13    14    1
    21    24    23    2
    22     2     5    1
    23     2     1    1
    24     5     6    1
    25   100    98    1
    26    97    98    2
    27    97    96    1
    28    98    99    1
    29    96    95    1
    30    14    16    1
    31     6     8    1
    32    72    71    1
    33    73    71    1
    34    58    56    1
    35    95    94    1
    36    44    42    1
    37    57    56    1
    38    71    70    1
    39    94    91    1
    40    36    35    1
    41    56    55    1
    42    43    42    1
    43    50    49    1
    44    70    67    1
    45    42    39    1
    46    81    79    1
    47    55    52    1
    48    91    92    1
    49    91    90    1
    50    35    37    1
    51    35    34    1
    52    67    68    1
    53    67    66    1
    54    69    68    2
    55    92    93    2
    56    39    40    1
    57    39    38    1
    58    80    79    1
    59    79    78    1
    60    31    34    1
    61    31    30    1
    62    31    32    1
    63    49    46    1
    64    68    74   am
    65    41    40    2
    66    54    53    2
    67    46    45    1
    68    46    47    1
    69    52    53    1
    70    52    51    1
    71    65    63    1
    72    53    59   am
    73    33    32    2
    74    74    75    1
    75    59    60    1
    76    48    47    2
    77    78    75    1
    78    60    63    1
    79    60    61    1
    80    75    76    1
    81    63    64    1
    82    62    61    2
    83    76    77    2
    84    89    87    1
    85    88    87    1
    86    87    86    1
    87    86    83    1
    88    83    84    1
    89    83    82    1
    90    85    84    2
