@<TRIPOS>MOLECULE
tmp/6h7nD03.pdb
 210 205 0 0 0
SMALL
GASTEIGER

@<TRIPOS>ATOM
      1  N        -26.8530  -21.8330   42.5910 N.3    59  GLY59      -0.1225
      2  CA       -26.7430  -21.2110   43.9020 C.3    59  GLY59       0.1811
      3  C        -26.9630  -19.7080   43.8640 C.2    59  GLY59       0.2280
      4  O        -27.6240  -19.1640   44.7380 O.2    59  GLY59      -0.2866
      5  N        -30.6580  -18.8170   43.7550 N.3    62  LEU62      -0.1231
      6  CA       -31.2660  -19.0340   45.0740 C.3    62  LEU62       0.1693
      7  C        -31.0720  -17.8510   46.0440 C.2    62  LEU62       0.2591
      8  O        -31.9370  -17.5940   46.8880 O.2    62  LEU62      -0.2718
      9  CB       -30.7250  -20.3290   45.6940 C.3    62  LEU62       0.0284
     10  CG       -31.2690  -20.8020   47.0420 C.3    62  LEU62       0.0019
     11  CD1      -32.7670  -21.0210   46.9800 C.3    62  LEU62       0.0001
     12  CD2      -30.5720  -22.0860   47.4530 C.3    62  LEU62       0.0001
     13  N        -29.9550  -17.1360   45.9160 N.am   63  VAL63      -0.1980
     14  CA       -29.6950  -15.9330   46.7200 C.3    63  VAL63       0.1595
     15  C        -30.4750  -14.7170   46.1970 C.2    63  VAL63       0.2287
     16  O        -31.0060  -13.9370   46.9890 O.2    63  VAL63      -0.2864
     17  CB       -28.1770  -15.6140   46.7870 C.3    63  VAL63       0.0276
     18  CG1      -27.9180  -14.3160   47.5550 C.3    63  VAL63       0.0022
     19  CG2      -27.4230  -16.7840   47.4280 C.3    63  VAL63       0.0022
     20  N        -28.6960  -31.0930   42.3920 N.3    78  TRP78      -0.1227
     21  CA       -27.7830  -29.9560   42.5310 C.3    78  TRP78       0.1737
     22  C        -26.9700  -30.0430   43.8130 C.2    78  TRP78       0.2596
     23  O        -25.7780  -29.7890   43.8020 O.2    78  TRP78      -0.2718
     24  CB       -28.5590  -28.6470   42.5160 C.3    78  TRP78       0.0564
     25  CG       -27.7630  -27.4470   42.8340 C.ar   78  TRP78       0.0003
     26  CD1      -26.8320  -26.8660   42.0510 C.ar   78  TRP78       0.0946
     27  CD2      -27.8370  -26.6600   44.0250 C.ar   78  TRP78       0.0152
     28  NE1      -26.3060  -25.7620   42.6720 N.ar   78  TRP78      -0.2442
     29  CE2      -26.9080  -25.6060   43.8850 C.ar   78  TRP78       0.0810
     30  CE3      -28.6030  -26.7360   45.1940 C.ar   78  TRP78       0.0012
     31  CZ2      -26.7120  -24.6300   44.8690 C.ar   78  TRP78       0.0191
     32  CZ3      -28.4080  -25.7620   46.1820 C.ar   78  TRP78       0.0001
     33  CH2      -27.4650  -24.7230   46.0080 C.ar   78  TRP78       0.0015
     34  N        -27.6140  -30.3950   44.9180 N.am   79  THR79      -0.1953
     35  CA       -26.9150  -30.5790   46.1930 C.3    79  THR79       0.1897
     36  C        -25.9380  -31.7470   46.1360 C.2    79  THR79       0.2313
     37  O        -24.8440  -31.6510   46.6660 O.2    79  THR79      -0.2863
     38  CB       -27.9100  -30.7820   47.3570 C.3    79  THR79       0.1794
     39  OG1      -28.8550  -29.7060   47.3590 O.3    79  THR79      -0.2208
     40  CG2      -27.1930  -30.7910   48.7000 C.3    79  THR79       0.0378
     41  N        -23.0000  -30.6570   44.0460 N.3    82  ASP82      -0.1225
     42  CA       -22.2250  -29.6910   44.8500 C.3    82  ASP82       0.1805
     43  C        -21.2680  -30.4200   45.7790 C.2    82  ASP82       0.2597
     44  O        -20.0590  -30.1850   45.7580 O.2    82  ASP82      -0.2718
     45  CB       -23.1750  -28.7910   45.6700 C.3    82  ASP82       0.1424
     46  CG       -22.4470  -27.7110   46.4770 C.2    82  ASP82       0.3668
     47  OD1      -21.4220  -27.9980   47.1410 O.co2  82  ASP82      -0.2456
     48  OD2      -22.9230  -26.5590   46.4650 O.co2  82  ASP82      -0.2456
     49  N        -21.8270  -31.3020   46.5960 N.am   83  VAL83      -0.1980
     50  CA       -21.0530  -32.0670   47.5740 C.3    83  VAL83       0.1595
     51  C        -19.9750  -32.8960   46.8680 C.2    83  VAL83       0.2287
     52  O        -18.8410  -32.9460   47.3310 O.2    83  VAL83      -0.2864
     53  CB       -21.9960  -32.9340   48.4530 C.3    83  VAL83       0.0276
     54  CG1      -21.2510  -33.9570   49.3030 C.3    83  VAL83       0.0022
     55  CG2      -22.8100  -32.0240   49.3650 C.3    83  VAL83       0.0022
     56  N        -17.0360  -30.5350   45.5050 N.3    86  VAL86      -0.1231
     57  CA       -16.2600  -30.0090   46.6280 C.3    86  VAL86       0.1692
     58  C        -15.4280  -31.1210   47.2700 C.2    86  VAL86       0.2592
     59  O        -14.2640  -30.9030   47.6010 O.2    86  VAL86      -0.2718
     60  CB       -17.1650  -29.2940   47.6590 C.3    86  VAL86       0.0266
     61  CG1      -16.4120  -28.9540   48.9420 C.3    86  VAL86       0.0020
     62  CG2      -17.7380  -28.0260   47.0400 C.3    86  VAL86       0.0020
     63  N        -16.0130  -32.3040   47.4270 N.am   87  THR87      -0.1953
     64  CA       -15.2740  -33.4690   47.9240 C.3    87  THR87       0.1897
     65  C        -14.1340  -33.8780   46.9900 C.2    87  THR87       0.2313
     66  O        -13.0260  -34.1010   47.4480 O.2    87  THR87      -0.2863
     67  CB       -16.2090  -34.6720   48.1560 C.3    87  THR87       0.1794
     68  OG1      -17.2250  -34.2960   49.0990 O.3    87  THR87      -0.2208
     69  CG2      -15.4440  -35.8740   48.7060 C.3    87  THR87       0.0378
     70  N        -20.0370  -40.3040   49.1330 N.3   133  VAL133     -0.1245
     71  CA       -20.2580  -39.3370   50.2170 C.3   133  VAL133      0.1561
     72  C        -21.4380  -38.3980   49.9000 C.2   133  VAL133      0.2260
     73  O        -22.0620  -37.8460   50.8220 O.2   133  VAL133     -0.2867
     74  CB       -18.9680  -38.5170   50.4980 C.3   133  VAL133      0.0252
     75  CG1      -19.2190  -37.3480   51.4660 C.3   133  VAL133      0.0019
     76  CG2      -17.8820  -39.4260   51.0580 C.3   133  VAL133      0.0019
     77  N        -34.7080  -25.0550   49.4710 N.3   160  CYS160     -0.1221
     78  CA       -33.5600  -25.9240   49.1750 C.3   160  CYS160      0.1808
     79  C        -32.4010  -25.5410   50.0890 C.2   160  CYS160      0.2601
     80  O        -31.2860  -25.2730   49.6340 O.2   160  CYS160     -0.2717
     81  CB       -33.1750  -25.8090   47.6950 C.3   160  CYS160      0.0970
     82  SG       -32.0290  -27.0640   47.0710 S.3   160  CYS160     -0.0800
     83  N        -32.6830  -25.5100   51.3890 N.am  161  ASP161     -0.1959
     84  CA       -31.6640  -25.2650   52.4090 C.3   161  ASP161      0.1840
     85  C        -30.9030  -26.5510   52.6620 C.2   161  ASP161      0.2622
     86  O        -31.4540  -27.6520   52.5100 O.2   161  ASP161     -0.2715
     87  CB       -32.2870  -24.7710   53.7200 C.3   161  ASP161      0.1450
     88  CG       -32.8480  -23.3550   53.6150 C.2   161  ASP161      0.3671
     89  OD1      -32.8010  -22.7520   52.5160 O.co2 161  ASP161     -0.2456
     90  OD2      -33.3360  -22.8430   54.6470 O.co2 161  ASP161     -0.2456
     91  N        -29.6370  -26.3970   53.0520 N.am  162  PHE162     -0.1974
     92  CA       -28.7500  -27.5240   53.3200 C.3   162  PHE162      0.1639
     93  C        -28.7980  -27.8480   54.8130 C.2   162  PHE162      0.2290
     94  O        -28.0140  -27.3120   55.6060 O.2   162  PHE162     -0.2864
     95  CB       -27.3180  -27.2150   52.8500 C.3   162  PHE162      0.0560
     96  CG       -26.3820  -28.3920   52.9440 C.ar  162  PHE162     -0.0200
     97  CD1      -26.5790  -29.5110   52.1380 C.ar  162  PHE162     -0.0042
     98  CD2      -25.3110  -28.3920   53.8430 C.ar  162  PHE162     -0.0042
     99  CE1      -25.7370  -30.6090   52.2200 C.ar  162  PHE162     -0.0003
    100  CE2      -24.4710  -29.4890   53.9420 C.ar  162  PHE162     -0.0003
    101  CZ       -24.6740  -30.5970   53.1240 C.ar  162  PHE162     -0.0000
    102  N        -24.5080  -37.6240   59.3800 N.3   168  TYR168     -0.1241
    103  CA       -24.0980  -37.2400   58.0290 C.3   168  TYR168      0.1605
    104  C        -23.1710  -36.0350   58.0430 C.2   168  TYR168      0.2264
    105  O        -22.1280  -36.0670   57.3970 O.2   168  TYR168     -0.2867
    106  CB       -25.2950  -36.9480   57.1100 C.3   168  TYR168      0.0534
    107  CG       -24.8740  -36.5150   55.7120 C.ar  168  TYR168     -0.0201
    108  CD1      -24.5970  -37.4600   54.7170 C.ar  168  TYR168     -0.0009
    109  CD2      -24.7340  -35.1650   55.3950 C.ar  168  TYR168     -0.0009
    110  CE1      -24.2030  -37.0700   53.4450 C.ar  168  TYR168      0.0417
    111  CE2      -24.3410  -34.7660   54.1240 C.ar  168  TYR168      0.0417
    112  CZ       -24.0760  -35.7300   53.1540 C.ar  168  TYR168      0.1957
    113  OH       -23.6860  -35.3690   51.8930 O.3   168  TYR168     -0.2866
    114  N        -19.5950  -36.8020   56.6600 N.3   172  SER172     -0.1217
    115  CA       -19.3450  -36.1080   55.3980 C.3   172  SER172      0.1889
    116  C        -18.2590  -35.0400   55.5460 C.2   172  SER172      0.2288
    117  O        -17.3770  -34.9420   54.6900 O.2   172  SER172     -0.2866
    118  CB       -20.6340  -35.4980   54.8340 C.3   172  SER172      0.2089
    119  OG       -21.0790  -34.3770   55.5990 O.3   172  SER172     -0.2183
    120  N        -14.6760  -35.3650   53.5980 N.3   176  SER176     -0.1217
    121  CA       -14.4800  -34.3670   52.5400 C.3   176  SER176      0.1889
    122  C        -13.4890  -33.2650   52.8910 C.2   176  SER176      0.2288
    123  O        -12.8360  -32.7390   51.9830 O.2   176  SER176     -0.2866
    124  CB       -15.8140  -33.7340   52.1380 C.3   176  SER176      0.2089
    125  OG       -16.7040  -34.7140   51.6550 O.3   176  SER176     -0.2183
    126  N        -12.3570  -22.7440   53.0660 N.3   229  TRP229     -0.1241
    127  CA       -13.2390  -23.8440   53.4990 C.3   229  TRP229      0.1605
    128  C        -13.3820  -24.0670   55.0040 C.2   229  TRP229      0.2264
    129  O        -14.4160  -24.5920   55.4160 O.2   229  TRP229     -0.2867
    130  CB       -12.8470  -25.1750   52.8360 C.3   229  TRP229      0.0550
    131  CG       -13.3410  -25.3210   51.4250 C.ar  229  TRP229      0.0003
    132  CD1      -12.5820  -25.4910   50.3160 C.ar  229  TRP229      0.0946
    133  CD2      -14.7040  -25.3030   50.9780 C.ar  229  TRP229      0.0152
    134  NE1      -13.3760  -25.5780   49.2010 N.ar  229  TRP229     -0.2442
    135  CE2      -14.6860  -25.4680   49.5790 C.ar  229  TRP229      0.0810
    136  CE3      -15.9410  -25.1580   51.6250 C.ar  229  TRP229      0.0012
    137  CZ2      -15.8560  -25.5020   48.8100 C.ar  229  TRP229      0.0191
    138  CZ3      -17.0990  -25.1900   50.8630 C.ar  229  TRP229      0.0001
    139  CH2      -17.0480  -25.3570   49.4680 C.ar  229  TRP229      0.0015
    140  N        -16.7170  -22.4990   56.7620 N.3   232  PHE232     -0.1227
    141  CA       -17.9110  -23.2570   56.3840 C.3   232  PHE232      0.1736
    142  C        -17.9970  -24.5940   57.1230 C.2   232  PHE232      0.2595
    143  O        -19.0220  -24.9050   57.7290 O.2   232  PHE232     -0.2718
    144  CB       -17.9480  -23.4990   54.8650 C.3   232  PHE232      0.0547
    145  CG       -19.0460  -24.4310   54.4230 C.ar  232  PHE232     -0.0202
    146  CD1      -20.2890  -23.9330   54.0410 C.ar  232  PHE232     -0.0042
    147  CD2      -18.8390  -25.8100   54.4020 C.ar  232  PHE232     -0.0042
    148  CE1      -21.3070  -24.7920   53.6440 C.ar  232  PHE232     -0.0003
    149  CE2      -19.8440  -26.6790   54.0120 C.ar  232  PHE232     -0.0003
    150  CZ       -21.0870  -26.1700   53.6320 C.ar  232  PHE232     -0.0000
    151  N        -16.9270  -25.3790   57.0550 N.am  233  PHE233     -0.1976
    152  CA       -16.9240  -26.7290   57.6320 C.3   233  PHE233      0.1639
    153  C        -16.8900  -26.7440   59.1640 C.2   233  PHE233      0.2290
    154  O        -17.2770  -27.7390   59.7860 O.2   233  PHE233     -0.2864
    155  CB       -15.7710  -27.5650   57.0600 C.3   233  PHE233      0.0560
    156  CG       -16.0760  -28.1710   55.7210 C.ar  233  PHE233     -0.0200
    157  CD1      -16.8530  -29.3220   55.6390 C.ar  233  PHE233     -0.0042
    158  CD2      -15.6070  -27.5930   54.5430 C.ar  233  PHE233     -0.0042
    159  CE1      -17.1510  -29.8950   54.4080 C.ar  233  PHE233     -0.0003
    160  CE2      -15.9050  -28.1590   53.3100 C.ar  233  PHE233     -0.0003
    161  CZ       -16.6780  -29.3120   53.2430 C.ar  233  PHE233     -0.0000
    162  N        -20.5630  -25.9150   59.8140 N.3   236  ASN236     -0.1240
    163  CA       -21.3910  -27.0700   59.4280 C.3   236  ASN236      0.1653
    164  C        -21.5440  -28.0750   60.5750 C.2   236  ASN236      0.2266
    165  O        -22.5940  -28.7000   60.6990 O.2   236  ASN236     -0.2867
    166  CB       -20.8210  -27.7710   58.1780 C.3   236  ASN236      0.1155
    167  CG       -21.8250  -28.6950   57.5050 C.2   236  ASN236      0.2627
    168  OD1      -22.9610  -28.2920   57.2090 O.2   236  ASN236     -0.2716
    169  ND2      -21.4090  -29.9340   57.2450 N.am  236  ASN236     -0.0877
    170  N        -24.2740  -19.0810   54.7810 N.3   252  VAL252     -0.1245
    171  CA       -24.3500  -18.9280   53.3290 C.3   252  VAL252      0.1561
    172  C        -23.0990  -18.2190   52.7990 C.2   252  VAL252      0.2260
    173  O        -22.4820  -18.6910   51.8470 O.2   252  VAL252     -0.2867
    174  CB       -25.6370  -18.1700   52.9020 C.3   252  VAL252      0.0252
    175  CG1      -25.5880  -17.7250   51.4420 C.3   252  VAL252      0.0019
    176  CG2      -26.8610  -19.0420   53.1400 C.3   252  VAL252      0.0019
    177  N        -20.1500  -20.4030   52.6630 N.3   255  ASN255     -0.1225
    178  CA       -20.2480  -21.3160   51.5130 C.3   255  ASN255      0.1785
    179  C        -19.7490  -20.6630   50.2200 C.2   255  ASN255      0.2597
    180  O        -19.1490  -21.3390   49.3940 O.2   255  ASN255     -0.2718
    181  CB       -21.6870  -21.8210   51.3190 C.3   255  ASN255      0.1169
    182  CG       -21.7670  -23.1320   50.5430 C.2   255  ASN255      0.2627
    183  OD1      -22.7890  -23.8170   50.5960 O.2   255  ASN255     -0.2716
    184  ND2      -20.7040  -23.4860   49.8190 N.am  255  ASN255     -0.0877
    185  N        -20.0060  -19.3650   50.0450 N.am  256  TRP256     -0.1976
    186  CA       -19.4850  -18.6170   48.8820 C.3   256  TRP256      0.1640
    187  C        -17.9610  -18.4650   48.8950 C.2   256  TRP256      0.2290
    188  O        -17.3250  -18.4010   47.8410 O.2   256  TRP256     -0.2864
    189  CB       -20.1700  -17.2500   48.7460 C.3   256  TRP256      0.0576
    190  CG       -21.5160  -17.4090   48.1520 C.ar  256  TRP256      0.0006
    191  CD1      -22.6910  -17.5770   48.8170 C.ar  256  TRP256      0.0946
    192  CD2      -21.8230  -17.4970   46.7590 C.ar  256  TRP256      0.0152
    193  NE1      -23.7240  -17.7360   47.9210 N.ar  256  TRP256     -0.2442
    194  CE2      -23.2190  -17.6820   46.6500 C.ar  256  TRP256      0.0810
    195  CE3      -21.0570  -17.4160   45.5890 C.ar  256  TRP256      0.0012
    196  CZ2      -23.8640  -17.8000   45.4170 C.ar  256  TRP256      0.0191
    197  CZ3      -21.6980  -17.5210   44.3630 C.ar  256  TRP256      0.0001
    198  CH2      -23.0870  -17.7170   44.2870 C.ar  256  TRP256      0.0015
    199  N        -16.6510  -21.6860   47.5060 N.3   259  TYR259     -0.1241
    200  CA       -16.7710  -21.6760   46.0460 C.3   259  TYR259      0.1605
    201  C        -15.6490  -20.8600   45.4070 C.2   259  TYR259      0.2264
    202  O        -15.2060  -21.1860   44.3050 O.2   259  TYR259     -0.2867
    203  CB       -18.1280  -21.1250   45.5760 C.3   259  TYR259      0.0534
    204  CG       -19.3650  -21.9440   45.9260 C.ar  259  TYR259     -0.0201
    205  CD1      -19.3280  -23.3400   46.0380 C.ar  259  TYR259     -0.0009
    206  CD2      -20.5970  -21.3130   46.0940 C.ar  259  TYR259     -0.0009
    207  CE1      -20.4720  -24.0670   46.3530 C.ar  259  TYR259      0.0417
    208  CE2      -21.7370  -22.0340   46.3910 C.ar  259  TYR259      0.0417
    209  CZ       -21.6720  -23.4060   46.5230 C.ar  259  TYR259      0.1957
    210  OH       -22.8090  -24.1130   46.8260 O.3   259  TYR259     -0.2866
@<TRIPOS>BOND
     1    26    28   ar
     2    26    25   ar
     3    20    21    1
     4    24    21    1
     5    24    25    1
     6    21    22    1
     7     1     2    1
     8    28    29   ar
     9    25    27   ar
    10     5     6    1
    11    23    22    2
    12    22    34   am
    13     3     2    1
    14     3     4    2
    15    29    27   ar
    16    29    31   ar
    17    27    30   ar
    18    41    42    1
    19   198   197   ar
    20   198   196   ar
    21   202   201    2
    22   197   195   ar
    23    42    45    1
    24    42    43    1
    25    31    33   ar
    26    34    35    1
    27     6     9    1
    28     6     7    1
    29    30    32   ar
    30   201   200    1
    31   196   194   ar
    32    56    57    1
    33   203   204    1
    34   203   200    1
    35   195   192   ar
    36    45    46    1
    37     9    10    1
    38    44    43    2
    39    43    49   am
    40    13     7   am
    41    13    14    1
    42   204   205   ar
    43   204   206   ar
    44    33    32   ar
    45   205   207   ar
    46     7     8    2
    47   200   199    1
    48   206   208   ar
    49    36    35    1
    50    36    37    2
    51    35    38    1
    52    15    14    1
    53    15    16    2
    54   207   209   ar
    55   208   209   ar
    56    48    46   ar
    57    46    47   ar
    58   209   210    1
    59    49    50    1
    60    57    58    1
    61    57    60    1
    62   194   192   ar
    63   194   193   ar
    64    14    17    1
    65   192   190   ar
    66    17    19    1
    67    17    18    1
    68    51    52    2
    69    51    50    1
    70    11    10    1
    71    65    66    2
    72    65    64    1
    73    62    60    1
    74    10    12    1
    75    82    81    1
    76    58    63   am
    77    58    59    2
    78    38    39    1
    79    38    40    1
    80    63    64    1
    81    50    53    1
    82    60    61    1
    83    81    78    1
    84   188   187    2
    85   193   191   ar
    86    64    67    1
    87   190   189    1
    88   190   191   ar
    89    67    69    1
    90    67    68    1
    91    53    54    1
    92    53    55    1
    93   189   186    1
    94   137   139   ar
    95   137   135   ar
    96   186   187    1
    97   186   185    1
    98    70    71    1
    99    78    77    1
   100    78    79    1
   101   134   135   ar
   102   134   132   ar
   103   180   179    2
   104   139   138   ar
   105   135   133   ar
   106    80    79    2
   107   184   182   am
   108    72    71    1
   109    72    73    2
   110   185   179   am
   111    79    83   am
   112    71    74    1
   113   179   178    1
   114   132   131   ar
   115    74    76    1
   116    74    75    1
   117   182   183    2
   118   182   181    1
   119   138   136   ar
   120   133   131   ar
   121   133   136   ar
   122   181   178    1
   123    83    84    1
   124   131   130    1
   125   175   174    1
   126   178   177    1
   127   125   124    1
   128   173   172    2
   129   113   112    1
   130   123   122    2
   131   124   121    1
   132    97    99   ar
   133    97    96   ar
   134    99   101   ar
   135    84    85    1
   136    84    87    1
   137    86    85    2
   138    89    88   ar
   139   121   122    1
   140   121   120    1
   141    85    91   am
   142   172   171    1
   143   130   127    1
   144    95    96    1
   145    95    92    1
   146   174   176    1
   147   174   171    1
   148    96    98   ar
   149    91    92    1
   150   126   127    1
   151   101   100   ar
   152   112   110   ar
   153   112   111   ar
   154   161   160   ar
   155   161   159   ar
   156   160   158   ar
   157    92    93    1
   158   171   170    1
   159   110   108   ar
   160   127   128    1
   161    88    87    1
   162    88    90   ar
   163   150   148   ar
   164   150   149   ar
   165   148   146   ar
   166    98   100   ar
   167   149   147   ar
   168   146   145   ar
   169   111   109   ar
   170   147   145   ar
   171   159   157   ar
   172   145   144    1
   173   158   156   ar
   174   117   116    2
   175   108   107   ar
   176    93    94    2
   177   118   115    1
   178   118   119    1
   179   144   141    1
   180   128   129    2
   181   109   107   ar
   182   115   116    1
   183   115   114    1
   184   157   156   ar
   185   107   106    1
   186   156   155    1
   187   141   140    1
   188   141   142    1
   189   151   142   am
   190   151   152    1
   191   155   152    1
   192   106   103    1
   193   142   143    2
   194   168   167    2
   195   169   167   am
   196   105   104    2
   197   167   166    1
   198   152   153    1
   199   103   104    1
   200   103   102    1
   201   166   163    1
   202   153   154    2
   203   163   162    1
   204   163   164    1
   205   164   165    2
