@<TRIPOS>MOLECULE
tmp/6h7oE05.pdb
 93 86 0 0 0
SMALL
GASTEIGER

@<TRIPOS>ATOM
      1  N         -1.2730  -34.3490   35.8070 N.3    38  LEU38      -0.1245
      2  CA        -2.3910  -35.2910   35.7600 C.3    38  LEU38       0.1561
      3  C         -3.3340  -35.1350   36.9690 C.2    38  LEU38       0.2260
      4  O         -4.5500  -35.1640   36.8120 O.2    38  LEU38      -0.2867
      5  CB        -1.8690  -36.7250   35.7050 C.3    38  LEU38       0.0270
      6  CG        -2.8590  -37.7900   35.2480 C.3    38  LEU38       0.0019
      7  CD1       -3.2260  -37.5960   33.7800 C.3    38  LEU38       0.0001
      8  CD2       -2.2460  -39.1630   35.4990 C.3    38  LEU38       0.0001
      9  N         -5.0480  -31.8170   36.6470 N.3    41  THR41      -0.1203
     10  CA        -6.1620  -31.9660   35.7150 C.3    41  THR41       0.1994
     11  C         -7.4340  -32.4450   36.4250 C.2    41  THR41       0.2618
     12  O         -8.5230  -31.9400   36.1520 O.2    41  THR41      -0.2717
     13  CB        -5.8150  -32.9230   34.5470 C.3    41  THR41       0.1784
     14  OG1       -4.6020  -32.5100   33.9000 O.3    41  THR41      -0.2211
     15  CG2       -6.9260  -32.9440   33.5180 C.3    41  THR41       0.0376
     16  N         -7.3020  -33.4130   37.3280 N.am   42  SER42      -0.1951
     17  CA        -8.4360  -33.8530   38.1700 C.3    42  SER42       0.1924
     18  C         -9.0270  -32.6800   38.9500 C.2    42  SER42       0.2314
     19  O        -10.2350  -32.4730   38.9380 O.2    42  SER42      -0.2863
     20  CB        -8.0080  -34.9770   39.1450 C.3    42  SER42       0.2116
     21  OG        -8.9930  -35.2660   40.1490 O.3    42  SER42      -0.2180
     22  N        -10.8590  -30.1430   36.6950 N.3    45  CYS45      -0.1235
     23  CA       -12.1600  -30.6870   36.3390 C.3    45  CYS45       0.1677
     24  C        -13.1810  -30.4230   37.4560 C.2    45  CYS45       0.2270
     25  O        -14.2770  -29.9210   37.1940 O.2    45  CYS45      -0.2867
     26  CB       -12.0740  -32.1870   36.0290 C.3    45  CYS45       0.0956
     27  SG       -11.2530  -32.5810   34.4750 S.3    45  CYS45      -0.0801
     28  N        -16.5440  -27.8500   37.1330 N.3    49  VAL49      -0.1245
     29  CA       -17.9520  -28.2440   37.3390 C.3    49  VAL49       0.1561
     30  C        -18.5990  -27.3940   38.4350 C.2    49  VAL49       0.2260
     31  O        -19.7990  -27.1290   38.3740 O.2    49  VAL49      -0.2867
     32  CB       -18.1160  -29.7480   37.6810 C.3    49  VAL49       0.0252
     33  CG1      -19.5780  -30.0880   38.0000 C.3    49  VAL49       0.0019
     34  CG2      -17.6180  -30.6430   36.5470 C.3    49  VAL49       0.0019
     35  N        -24.2540  -32.9630   43.4630 N.3    80  LEU80      -0.1245
     36  CA       -23.1700  -32.5210   42.5890 C.3    80  LEU80       0.1561
     37  C        -22.2590  -31.5130   43.2900 C.2    80  LEU80       0.2260
     38  O        -21.0520  -31.5000   43.0520 O.2    80  LEU80      -0.2867
     39  CB       -23.7360  -31.9000   41.3190 C.3    80  LEU80       0.0270
     40  CG       -22.7340  -31.7510   40.1820 C.3    80  LEU80       0.0019
     41  CD1      -22.6710  -33.0220   39.3440 C.3    80  LEU80       0.0001
     42  CD2      -23.1010  -30.5420   39.3340 C.3    80  LEU80       0.0001
     43  N        -20.1790  -33.6580   45.8870 N.3    83  LEU83      -0.1231
     44  CA       -19.2490  -34.4600   45.0790 C.3    83  LEU83       0.1693
     45  C        -18.0400  -33.6700   44.6050 C.2    83  LEU83       0.2592
     46  O        -16.9030  -34.0950   44.8100 O.2    83  LEU83      -0.2718
     47  CB       -19.9520  -35.0470   43.8530 C.3    83  LEU83       0.0284
     48  CG       -19.0560  -35.8280   42.8670 C.3    83  LEU83       0.0019
     49  CD1      -19.6140  -37.1860   42.4670 C.3    83  LEU83       0.0001
     50  CD2      -18.7950  -34.9890   41.6270 C.3    83  LEU83       0.0001
     51  N        -18.2880  -32.5410   43.9470 N.am   84  CYS84      -0.1970
     52  CA       -17.2010  -31.7380   43.3600 C.3    84  CYS84       0.1712
     53  C        -16.3020  -31.0870   44.4260 C.2    84  CYS84       0.2296
     54  O        -15.0710  -31.0870   44.2860 O.2    84  CYS84      -0.2864
     55  CB       -17.7500  -30.7030   42.3740 C.3    84  CYS84       0.0983
     56  SG       -18.3290  -31.4520   40.8400 S.3    84  CYS84      -0.0798
     57  N         -3.7440  -42.7740   37.6650 N.3   119  LYS119     -0.1245
     58  CA        -5.1080  -42.8570   37.1110 C.3   119  LYS119      0.1561
     59  C         -6.0720  -43.5590   38.0660 C.2   119  LYS119      0.2260
     60  O         -7.2190  -43.1400   38.2390 O.2   119  LYS119     -0.2867
     61  CB        -5.1170  -43.5840   35.7640 C.3   119  LYS119      0.0271
     62  CG        -4.4570  -42.8080   34.6250 C.3   119  LYS119      0.0035
     63  CD        -4.9900  -43.2540   33.2680 C.3   119  LYS119      0.0206
     64  CE        -4.3670  -42.4780   32.1200 C.3   119  LYS119      0.1093
     65  NZ        -2.9160  -42.7630   31.9850 N.3   119  LYS119     -0.1314
     66  N         -6.8090  -41.1590   40.9340 N.3   122  ILE122     -0.1231
     67  CA        -7.8040  -40.1630   40.5140 C.3   122  ILE122      0.1692
     68  C         -9.2080  -40.7710   40.5710 C.2   122  ILE122      0.2592
     69  O        -10.1200  -40.1730   41.1480 O.2   122  ILE122     -0.2718
     70  CB        -7.4870  -39.5890   39.1100 C.3   122  ILE122      0.0266
     71  CG1       -6.2190  -38.7250   39.1700 C.3   122  ILE122      0.0019
     72  CG2       -8.6550  -38.7650   38.5730 C.3   122  ILE122      0.0020
     73  CD1       -5.5290  -38.5490   37.8360 C.3   122  ILE122      0.0001
     74  N         -9.3590  -41.9670   40.0090 N.am  123  CYS123     -0.1970
     75  CA       -10.6450  -42.6550   39.9980 C.3   123  CYS123      0.1712
     76  C        -11.1470  -43.0100   41.4000 C.2   123  CYS123      0.2296
     77  O        -12.3430  -42.9130   41.6700 O.2   123  CYS123     -0.2864
     78  CB       -10.5730  -43.8900   39.1150 C.3   123  CYS123      0.0983
     79  SG       -10.3680  -43.4490   37.3750 S.3   123  CYS123     -0.0798
     80  N        -12.6670  -39.6410   42.9240 N.3   126  TRP126     -0.1241
     81  CA       -14.0120  -39.4020   42.4140 C.3   126  TRP126      0.1605
     82  C        -15.0240  -40.4390   42.9330 C.2   126  TRP126      0.2264
     83  O        -16.1580  -40.0810   43.2650 O.2   126  TRP126     -0.2867
     84  CB       -14.0270  -39.3410   40.8790 C.3   126  TRP126      0.0550
     85  CG       -13.4180  -38.0860   40.3390 C.ar  126  TRP126      0.0003
     86  CD1      -12.1410  -37.9210   39.9220 C.ar  126  TRP126      0.0946
     87  CD2      -14.0570  -36.8060   40.1830 C.ar  126  TRP126      0.0152
     88  NE1      -11.9340  -36.6300   39.5060 N.ar  126  TRP126     -0.2442
     89  CE2      -13.0950  -35.9230   39.6610 C.ar  126  TRP126      0.0810
     90  CE3      -15.3490  -36.3230   40.4310 C.ar  126  TRP126      0.0012
     91  CZ2      -13.3800  -34.5890   39.3760 C.ar  126  TRP126      0.0191
     92  CZ3      -15.6280  -34.9860   40.1460 C.ar  126  TRP126      0.0001
     93  CH2      -14.6520  -34.1430   39.6270 C.ar  126  TRP126      0.0015
@<TRIPOS>BOND
     1    65    64    1
     2    64    63    1
     3    63    62    1
     4    15    13    1
     5     7     6    1
     6    14    13    1
     7    27    26    1
     8    13    10    1
     9    62    61    1
    10     6     8    1
    11     6     5    1
    12     5     2    1
    13    10    11    1
    14    10     9    1
    15     2     1    1
    16     2     3    1
    17    61    58    1
    18    26    23    1
    19    12    11    2
    20    23    22    1
    21    23    24    1
    22    11    16   am
    23    34    32    1
    24     4     3    2
    25    58    57    1
    26    58    59    1
    27    28    29    1
    28    25    24    2
    29    16    17    1
    30    29    32    1
    31    29    30    1
    32    79    78    1
    33    32    33    1
    34    73    71    1
    35    59    60    2
    36    17    18    1
    37    17    20    1
    38    31    30    2
    39    72    70    1
    40    19    18    2
    41    70    71    1
    42    70    67    1
    43    78    75    1
    44    20    21    1
    45    42    40    1
    46    41    40    1
    47    91    93   ar
    48    91    89   ar
    49    88    89   ar
    50    88    86   ar
    51    93    92   ar
    52    89    87   ar
    53    86    85   ar
    54    75    74    1
    55    75    76    1
    56    74    68   am
    57    92    90   ar
    58    40    39    1
    59    87    85   ar
    60    87    90   ar
    61    85    84    1
    62    67    68    1
    63    67    66    1
    64    68    69    2
    65    56    55    1
    66    84    81    1
    67    39    36    1
    68    76    77    2
    69    50    48    1
    70    55    52    1
    71    81    80    1
    72    81    82    1
    73    49    48    1
    74    36    37    1
    75    36    35    1
    76    48    47    1
    77    82    83    2
    78    38    37    2
    79    52    51    1
    80    52    53    1
    81    47    44    1
    82    51    45   am
    83    54    53    2
    84    45    46    2
    85    45    44    1
    86    44    43    1
