@<TRIPOS>MOLECULE
tmp/6h7vB02.pdb
 83 82 0 0 0
SMALL
GASTEIGER

@<TRIPOS>ATOM
      1  N         57.9640   70.7360  -22.1670 N.3   261  ALA261     -0.1231
      2  CA        56.5950   71.2530  -22.2060 C.3   261  ALA261      0.1694
      3  C         56.3840   72.0950  -23.4480 C.2   261  ALA261      0.2592
      4  O         57.3150   72.6780  -23.9800 O.2   261  ALA261     -0.2718
      5  CB        56.3010   72.0760  -20.9560 C.3   261  ALA261      0.0304
      6  N         55.1480   72.2150  -23.8880 N.am  262  TYR262     -0.1962
      7  CA        54.8610   73.0630  -25.0400 C.3   262  TYR262      0.1771
      8  C         53.4750   73.6450  -24.9000 C.2   262  TYR262      0.2619
      9  O         52.6470   73.1220  -24.1570 O.2   262  TYR262     -0.2715
     10  CB        55.0030   72.2750  -26.3570 C.3   262  TYR262      0.0574
     11  CG        53.8890   71.2790  -26.6330 C.ar  262  TYR262     -0.0198
     12  CD1       53.9720   69.9570  -26.1890 C.ar  262  TYR262     -0.0009
     13  CD2       52.7550   71.6550  -27.3510 C.ar  262  TYR262     -0.0009
     14  CE1       52.9460   69.0480  -26.4330 C.ar  262  TYR262      0.0417
     15  CE2       51.7240   70.7510  -27.6050 C.ar  262  TYR262      0.0417
     16  CZ        51.8280   69.4450  -27.1650 C.ar  262  TYR262      0.1957
     17  OH        50.8170   68.5430  -27.4600 O.3   262  TYR262     -0.2866
     18  N         53.2450   74.7590  -25.5820 N.am  263  ALA263     -0.1977
     19  CA        51.9350   75.4030  -25.6070 C.3   263  ALA263      0.1597
     20  C         51.7450   76.1400  -26.9180 C.2   263  ALA263      0.2287
     21  O         52.6640   76.7740  -27.4320 O.2   263  ALA263     -0.2864
     22  CB        51.8090   76.3730  -24.4450 C.3   263  ALA263      0.0319
     23  N         48.1800   72.3910  -25.4140 N.3   307  ALA307     -0.1231
     24  CA        49.3190   72.4370  -24.5060 C.3   307  ALA307      0.1697
     25  C         49.6110   71.0350  -24.0030 C.2   307  ALA307      0.2632
     26  O         48.6980   70.2200  -23.8470 O.2   307  ALA307     -0.2714
     27  CB        49.0350   73.3740  -23.3420 C.3   307  ALA307      0.0304
     28  N         50.8740   70.7330  -23.7380 N.am  308  GLY308     -0.1718
     29  CA        51.1770   69.4150  -23.2230 C.2   308  GLY308      0.1480
     30  C         52.5870   69.2220  -22.7560 C.2   308  GLY308      0.2820
     31  O         53.3630   70.1740  -22.6760 O.2   308  GLY308     -0.2669
     32  N         52.8940   67.9690  -22.4350 N.am  309  PHE309     -0.1939
     33  CA        54.2370   67.5300  -22.0970 C.3   309  PHE309      0.1642
     34  C         54.6450   66.3540  -22.9940 C.2   309  PHE309      0.2290
     35  O         53.7970   65.5310  -23.3810 O.2   309  PHE309     -0.2864
     36  CB        54.2870   67.1010  -20.6200 C.3   309  PHE309      0.0560
     37  CG        54.0290   68.2170  -19.6540 C.ar  309  PHE309     -0.0200
     38  CD1       52.7530   68.4430  -19.1610 C.ar  309  PHE309     -0.0042
     39  CD2       55.0710   69.0070  -19.1820 C.ar  309  PHE309     -0.0042
     40  CE1       52.5120   69.4790  -18.2640 C.ar  309  PHE309     -0.0003
     41  CE2       54.8380   70.0360  -18.2690 C.ar  309  PHE309     -0.0003
     42  CZ        53.5590   70.2650  -17.7950 C.ar  309  PHE309     -0.0000
     43  N         51.4310   63.9280  -23.6580 N.3   324  ALA324     -0.1231
     44  CA        50.1230   64.1280  -23.0060 C.3   324  ALA324      0.1694
     45  C         49.6800   65.5590  -23.2790 C.2   324  ALA324      0.2592
     46  O         50.4580   66.4800  -23.0700 O.2   324  ALA324     -0.2718
     47  CB        50.2390   63.9050  -21.5010 C.3   324  ALA324      0.0304
     48  N         48.4770   65.7490  -23.8210 N.am  325  ASN325     -0.1960
     49  CA        48.0570   67.0880  -24.1890 C.3   325  ASN325      0.1819
     50  C         46.6100   67.4230  -23.8840 C.2   325  ASN325      0.2621
     51  O         45.8470   66.5750  -23.4520 O.2   325  ASN325     -0.2715
     52  CB        48.4210   67.3940  -25.6360 C.3   325  ASN325      0.1195
     53  CG        47.4160   66.8640  -26.6170 C.2   325  ASN325      0.2630
     54  OD1       46.7010   65.9040  -26.3240 O.2   325  ASN325     -0.2716
     55  ND2       47.4490   67.3930  -27.8360 N.am  325  ASN325     -0.0877
     56  N         46.3170   68.7170  -23.8870 N.am  326  ALA326     -0.1977
     57  CA        44.9480   69.2050  -23.8040 C.3   326  ALA326      0.1597
     58  C         44.7070   70.2060  -24.9190 C.2   326  ALA326      0.2287
     59  O         45.6100   70.9240  -25.2860 O.2   326  ALA326     -0.2864
     60  CB        44.7140   69.8540  -22.4490 C.3   326  ALA326      0.0319
     61  N         41.5760   65.6560  -24.1200 N.3   380  PHE380     -0.1227
     62  CA        42.7020   65.3200  -23.2760 C.3   380  PHE380      0.1736
     63  C         43.2100   64.0020  -23.8450 C.2   380  PHE380      0.2596
     64  O         42.4080   63.1500  -24.2010 O.2   380  PHE380     -0.2718
     65  CB        42.2640   65.2200  -21.7910 C.3   380  PHE380      0.0547
     66  CG        41.5630   66.4820  -21.2670 C.ar  380  PHE380     -0.0202
     67  CD1       40.2490   66.8170  -21.6840 C.ar  380  PHE380     -0.0042
     68  CD2       42.2090   67.3620  -20.3760 C.ar  380  PHE380     -0.0042
     69  CE1       39.6110   67.9740  -21.2170 C.ar  380  PHE380     -0.0003
     70  CE2       41.5730   68.5220  -19.9230 C.ar  380  PHE380     -0.0003
     71  CZ        40.2960   68.8430  -20.3720 C.ar  380  PHE380     -0.0000
     72  N         44.5100   63.9200  -24.1210 N.am  381  GLY381     -0.1942
     73  CA        45.0570   62.7980  -24.8470 C.3   381  GLY381      0.2014
     74  C         46.3700   62.3430  -24.2790 C.2   381  GLY381      0.2638
     75  O         47.0330   63.0750  -23.5540 O.2   381  GLY381     -0.2714
     76  N         46.6970   61.0780  -24.5360 N.am  382  LEU382     -0.1977
     77  CA        47.8730   60.4350  -23.9630 C.3   382  LEU382      0.1596
     78  C         48.3430   59.3470  -24.9200 C.2   382  LEU382      0.2287
     79  O         47.5400   58.6010  -25.4680 O.2   382  LEU382     -0.2864
     80  CB        47.5540   59.8400  -22.5910 C.3   382  LEU382      0.0297
     81  CG        48.7030   59.1090  -21.8810 C.3   382  LEU382      0.0022
     82  CD1       49.7890   60.0640  -21.3960 C.3   382  LEU382      0.0001
     83  CD2       48.2010   58.2880  -20.6930 C.3   382  LEU382      0.0001
@<TRIPOS>BOND
     1    55    53   am
     2    15    13   ar
     3    15    16   ar
     4    17    16    1
     5    21    20    2
     6    13    11   ar
     7    16    14   ar
     8    20    19    1
     9    11    10    1
    10    11    12   ar
    11    53    54    2
    12    53    52    1
    13    14    12   ar
    14    10     7    1
    15    52    49    1
    16    19    18    1
    17    19    22    1
    18    18     8   am
    19    79    78    2
    20    23    24    1
    21    59    58    2
    22     7     8    1
    23     7     6    1
    24    78    77    1
    25    58    57    1
    26     8     9    2
    27    73    74    1
    28    73    72    1
    29    76    74   am
    30    76    77    1
    31    24    25    1
    32    24    27    1
    33    74    75    2
    34    64    63    2
    35    49    50    1
    36    49    48    1
    37    72    63   am
    38    61    62    1
    39    25    26    2
    40    25    28    1
    41     4     3    2
    42    77    80    1
    43     6     3   am
    44    56    50   am
    45    56    57    1
    46    50    51    2
    47    63    62    1
    48    48    45   am
    49    57    60    1
    50    28    29    2
    51    43    44    1
    52     3     2    1
    53    35    34    2
    54    45    46    2
    55    45    44    1
    56    62    65    1
    57    29    30    1
    58    44    47    1
    59    34    33    1
    60    30    31    2
    61    30    32   am
    62    80    81    1
    63    32    33    1
    64     2     1    1
    65     2     5    1
    66    33    36    1
    67    81    82    1
    68    81    83    1
    69    65    66    1
    70    67    66   ar
    71    67    69   ar
    72    66    68   ar
    73    69    71   ar
    74    36    37    1
    75    68    70   ar
    76    71    70   ar
    77    37    39   ar
    78    37    38   ar
    79    39    41   ar
    80    38    40   ar
    81    41    42   ar
    82    40    42   ar
