@<TRIPOS>MOLECULE
tmp/6h7vC03.pdb
 119 116 0 0 0
SMALL
GASTEIGER

@<TRIPOS>ATOM
      1  N         35.6600   52.0310  -17.8560 N.3   470  GLN470     -0.1231
      2  CA        37.0230   52.3590  -18.3060 C.3   470  GLN470      0.1698
      3  C         37.7040   53.2800  -17.2850 C.2   470  GLN470      0.2592
      4  O         37.0990   54.2380  -16.8200 O.2   470  GLN470     -0.2718
      5  CB        37.0440   53.0890  -19.6570 C.3   470  GLN470      0.0381
      6  CG        35.8550   52.9350  -20.5730 C.3   470  GLN470      0.0905
      7  CD        36.0030   53.8140  -21.8010 C.2   470  GLN470      0.2608
      8  OE1       36.6420   53.4020  -22.7660 O.2   470  GLN470     -0.2717
      9  NE2       35.5600   55.0770  -21.7100 N.am  470  GLN470     -0.0878
     10  N         39.0110   53.1200  -17.1270 N.am  471  GLU471     -0.1966
     11  CA        39.7380   53.9160  -16.1670 C.3   471  GLU471      0.1733
     12  C         41.1340   54.2200  -16.6840 C.2   471  GLU471      0.2616
     13  O         41.7410   53.4040  -17.3720 O.2   471  GLU471     -0.2715
     14  CB        39.7990   53.1960  -14.8070 C.3   471  GLU471      0.0429
     15  CG        40.4500   54.0420  -13.7240 C.3   471  GLU471      0.1163
     16  CD        40.4360   53.3970  -12.3360 C.2   471  GLU471      0.3649
     17  OE1       41.1150   53.9590  -11.4130 O.co2 471  GLU471     -0.2457
     18  OE2       39.7710   52.3290  -12.1780 O.co2 471  GLU471     -0.2457
     19  N         41.5870   55.4520  -16.4580 N.am  472  LEU472     -0.1977
     20  CA        42.9500   55.8470  -16.7720 C.3   472  LEU472      0.1596
     21  C         43.4840   56.5300  -15.5310 C.2   472  LEU472      0.2287
     22  O         42.7390   57.2290  -14.8440 O.2   472  LEU472     -0.2864
     23  CB        42.9830   56.8110  -17.9480 C.3   472  LEU472      0.0297
     24  CG        44.3670   57.3780  -18.2830 C.3   472  LEU472      0.0022
     25  CD1       45.2980   56.2690  -18.7590 C.3   472  LEU472      0.0001
     26  CD2       44.3150   58.4900  -19.3320 C.3   472  LEU472      0.0001
     27  N         40.7700   58.9700  -13.8360 N.3   487  ALA487     -0.1231
     28  CA        39.5650   59.3630  -14.5390 C.3   487  ALA487      0.1694
     29  C         38.8380   58.0990  -14.9380 C.2   487  ALA487      0.2592
     30  O         39.4790   57.1010  -15.2720 O.2   487  ALA487     -0.2718
     31  CB        39.9230   60.1680  -15.7740 C.3   487  ALA487      0.0304
     32  N         37.5140   58.1160  -14.8510 N.am  488  PHE488     -0.1962
     33  CA        36.7690   56.9210  -15.1430 C.3   488  PHE488      0.1771
     34  C         35.4240   57.2450  -15.7550 C.2   488  PHE488      0.2619
     35  O         34.8690   58.3210  -15.5190 O.2   488  PHE488     -0.2715
     36  CB        36.6010   56.0580  -13.8860 C.3   488  PHE488      0.0574
     37  CG        35.7470   56.6840  -12.8240 C.ar  488  PHE488     -0.0200
     38  CD1       34.3700   56.5670  -12.8610 C.ar  488  PHE488     -0.0042
     39  CD2       36.3220   57.3860  -11.7790 C.ar  488  PHE488     -0.0042
     40  CE1       33.5850   57.2050  -11.9240 C.ar  488  PHE488     -0.0003
     41  CE2       35.5390   57.9730  -10.8020 C.ar  488  PHE488     -0.0003
     42  CZ        34.1710   57.9050  -10.8930 C.ar  488  PHE488     -0.0000
     43  N         34.8990   56.2790  -16.5020 N.am  489  GLU489     -0.1977
     44  CA        33.5160   56.2790  -16.9580 C.3   489  GLU489      0.1602
     45  C         32.9160   54.8900  -16.7000 C.2   489  GLU489      0.2287
     46  O         33.4870   53.8660  -17.1000 O.2   489  GLU489     -0.2864
     47  CB        33.4760   56.6030  -18.4600 C.3   489  GLU489      0.0415
     48  CG        32.1140   56.4980  -19.1090 C.3   489  GLU489      0.1163
     49  CD        32.0830   57.0180  -20.5560 C.2   489  GLU489      0.3649
     50  OE1       32.1070   58.2730  -20.8060 O.co2 489  GLU489     -0.2457
     51  OE2       31.8820   56.1660  -21.4390 O.co2 489  GLU489     -0.2457
     52  N         30.7410   59.5350  -14.7900 N.3   518  ARG518     -0.1231
     53  CA        32.0920   59.9380  -15.1670 C.3   518  ARG518      0.1694
     54  C         32.7140   60.6990  -14.0120 C.2   518  ARG518      0.2593
     55  O         32.0630   61.5280  -13.3760 O.2   518  ARG518     -0.2718
     56  CB        32.0550   60.8680  -16.3630 C.3   518  ARG518      0.0321
     57  CG        31.8040   60.2040  -17.6910 C.3   518  ARG518      0.0489
     58  CD        31.4170   61.2410  -18.7440 C.3   518  ARG518      0.2205
     59  NE        31.2280   60.6460  -20.0710 N.pl3 518  ARG518     -0.0865
     60  CZ        30.4400   61.1460  -21.0120 C.cat 518  ARG518      0.5346
     61  NH1       30.2870   60.4870  -22.1240 N.pl3 518  ARG518      0.1354
     62  NH2       29.8220   62.3060  -20.8510 N.pl3 518  ARG518      0.1354
     63  N         33.9890   60.4660  -13.7610 N.am  519  GLY519     -0.1942
     64  CA        34.6060   61.0510  -12.6100 C.3   519  GLY519      0.2014
     65  C         36.0700   61.2990  -12.7860 C.2   519  GLY519      0.2638
     66  O         36.7630   60.5930  -13.5190 O.2   519  GLY519     -0.2714
     67  N         36.5630   62.2460  -12.0050 N.am  520  ILE520     -0.1977
     68  CA        37.9910   62.4220  -11.8610 C.3   520  ILE520      0.1596
     69  C         38.3390   62.5770  -10.3760 C.2   520  ILE520      0.2287
     70  O         37.5660   63.1450   -9.6230 O.2   520  ILE520     -0.2864
     71  CB        38.4870   63.5480  -12.8120 C.3   520  ILE520      0.0276
     72  CG1       40.0050   63.4750  -12.9610 C.3   520  ILE520      0.0022
     73  CG2       37.9880   64.8970  -12.3510 C.3   520  ILE520      0.0022
     74  CD1       40.6970   64.7890  -13.2850 C.3   520  ILE520      0.0001
     75  N         35.4880   65.1900   -8.7880 N.3   539  TYR539     -0.1227
     76  CA        34.3360   65.6660   -9.5140 C.3   539  TYR539      0.1736
     77  C         33.6530   64.4330  -10.0730 C.2   539  TYR539      0.2595
     78  O         34.2810   63.6030  -10.7260 O.2   539  TYR539     -0.2718
     79  CB        34.7410   66.5630  -10.7040 C.3   539  TYR539      0.0548
     80  CG        35.4090   67.9100  -10.4480 C.ar  539  TYR539     -0.0200
     81  CD1       34.8310   69.0810  -10.9840 C.ar  539  TYR539     -0.0009
     82  CD2       36.7590   67.9940  -10.0250 C.ar  539  TYR539     -0.0009
     83  CE1       35.5300   70.2900  -11.0380 C.ar  539  TYR539      0.0417
     84  CE2       37.4400   69.2170  -10.0170 C.ar  539  TYR539      0.0417
     85  CZ        36.8170   70.3580  -10.5260 C.ar  539  TYR539      0.1957
     86  OH        37.4390   71.5760  -10.4870 O.3   539  TYR539     -0.2866
     87  N         32.3440   64.4220   -9.9960 N.am  540  LEU540     -0.1966
     88  CA        31.5690   63.3170  -10.4560 C.3   540  LEU540      0.1728
     89  C         30.3790   63.8330  -11.2950 C.2   540  LEU540      0.2616
     90  O         29.6850   64.7720  -10.8960 O.2   540  LEU540     -0.2715
     91  CB        31.0960   62.5360   -9.2230 C.3   540  LEU540      0.0311
     92  CG        30.1050   61.4010   -9.4290 C.3   540  LEU540      0.0022
     93  CD1       30.8350   60.2200  -10.0470 C.3   540  LEU540      0.0001
     94  CD2       29.4500   60.9850   -8.1240 C.3   540  LEU540      0.0001
     95  N         30.1450   63.2260  -12.4550 N.am  541  ASP541     -0.1971
     96  CA        28.9340   63.5120  -13.2330 C.3   541  ASP541      0.1709
     97  C         28.0970   62.2250  -13.3540 C.2   541  ASP541      0.2293
     98  O         28.3820   61.3660  -14.1860 O.2   541  ASP541     -0.2864
     99  CB        29.3160   64.0770  -14.6140 C.3   541  ASP541      0.1436
    100  CG        28.1160   64.2650  -15.5330 C.2   541  ASP541      0.3671
    101  OD1       26.9940   64.5630  -15.0480 O.co2 541  ASP541     -0.2456
    102  OD2       28.2640   63.9790  -16.7370 O.co2 541  ASP541     -0.2456
    103  N         28.0060   65.8620   -6.6170 N.3   562  LYS562     -0.1231
    104  CA        28.9420   65.9470   -7.7120 C.3   562  LYS562      0.1693
    105  C         30.3780   66.2470   -7.2690 C.2   562  LYS562      0.2592
    106  O         31.3130   66.0490   -8.0380 O.2   562  LYS562     -0.2718
    107  CB        28.4450   67.0240   -8.6810 C.3   562  LYS562      0.0285
    108  CG        27.1120   66.6570   -9.2860 C.3   562  LYS562      0.0035
    109  CD        26.6600   67.6440  -10.3350 C.3   562  LYS562      0.0206
    110  CE        27.0860   67.1890  -11.7080 C.3   562  LYS562      0.1093
    111  NZ        26.3900   67.9510  -12.7840 N.3   562  LYS562     -0.1314
    112  N         30.5420   66.9250   -6.1380 N.am  563  ASN563     -0.1974
    113  CA        31.8410   67.4740   -5.7610 C.3   563  ASN563      0.1688
    114  C         32.1100   67.0670   -4.3270 C.2   563  ASN563      0.2292
    115  O         31.2480   67.2090   -3.4790 O.2   563  ASN563     -0.2864
    116  CB        31.8580   69.0050   -5.8790 C.3   563  ASN563      0.1181
    117  CG        31.7200   69.4920   -7.3030 C.2   563  ASN563      0.2629
    118  OD1       32.0960   68.8270   -8.2370 O.2   563  ASN563     -0.2716
    119  ND2       31.1540   70.6350   -7.4640 N.am  563  ASN563     -0.0877
@<TRIPOS>BOND
     1     8     7    2
     2    61    60    1
     3     7     9   am
     4     7     6    1
     5    51    49   ar
     6    60    62    1
     7    60    59    2
     8    50    49   ar
     9     6     5    1
    10    49    48    1
    11    59    58    1
    12     5     2    1
    13    26    24    1
    14    48    47    1
    15    25    24    1
    16    58    57    1
    17    47    44    1
    18     2     1    1
    19     2     3    1
    20    24    23    1
    21    23    20    1
    22    57    56    1
    23    13    12    2
    24     3    10   am
    25     3     4    2
    26    10    11    1
    27    46    45    2
    28    44    45    1
    29    44    43    1
    30    20    19    1
    31    20    21    1
    32   102   100   ar
    33    12    19   am
    34    12    11    1
    35    43    34   am
    36    56    53    1
    37    11    14    1
    38    31    28    1
    39    34    35    2
    40    34    33    1
    41   100   101   ar
    42   100    99    1
    43    21    22    2
    44    30    29    2
    45    53    52    1
    46    53    54    1
    47    33    32    1
    48    33    36    1
    49    29    32   am
    50    29    28    1
    51    14    15    1
    52    99    96    1
    53    28    27    1
    54    98    97    2
    55    54    63   am
    56    54    55    2
    57    36    37    1
    58    63    64    1
    59    15    16    1
    60    66    65    2
    61    97    96    1
    62    74    72    1
    63    96    95    1
    64    72    71    1
    65    38    37   ar
    66    38    40   ar
    67    37    39   ar
    68    71    73    1
    69    71    68    1
    70    65    64    1
    71    65    67   am
    72   111   110    1
    73    95    89   am
    74    16    18   ar
    75    16    17   ar
    76    67    68    1
    77    40    42   ar
    78    68    69    1
    79    39    41   ar
    80   110   109    1
    81    89    90    2
    82    89    88    1
    83    83    81   ar
    84    83    85   ar
    85    81    80   ar
    86    42    41   ar
    87    78    77    2
    88    79    80    1
    89    79    76    1
    90    85    86    1
    91    85    84   ar
    92    88    87    1
    93    88    91    1
    94    80    82   ar
    95    69    70    2
    96   109   108    1
    97    77    87   am
    98    77    76    1
    99    93    92    1
   100    82    84   ar
   101    76    75    1
   102    92    91    1
   103    92    94    1
   104   108   107    1
   105   107   104    1
   106   118   117    2
   107   106   105    2
   108   104   105    1
   109   104   103    1
   110   119   117   am
   111   117   116    1
   112   105   112   am
   113   112   113    1
   114   116   113    1
   115   113   114    1
   116   114   115    2
