@<TRIPOS>MOLECULE
tmp/6h7vB05.pdb
 96 93 0 0 0
SMALL
GASTEIGER

@<TRIPOS>ATOM
      1  N         61.7220   88.0200  -55.5230 N.3   137  LEU137     -0.1245
      2  CA        60.5210   88.5270  -56.1840 C.3   137  LEU137      0.1561
      3  C         60.1070   87.5810  -57.3220 C.2   137  LEU137      0.2260
      4  O         60.9460   87.0920  -58.0700 O.2   137  LEU137     -0.2867
      5  CB        60.7970   89.9270  -56.7280 C.3   137  LEU137      0.0270
      6  CG        59.6740   90.5700  -57.5500 C.3   137  LEU137      0.0019
      7  CD1       58.4650   90.8810  -56.6870 C.3   137  LEU137      0.0001
      8  CD2       60.1630   91.8300  -58.2430 C.3   137  LEU137      0.0001
      9  N         52.1210   89.2120  -58.3240 N.3   148  GLY148     -0.1210
     10  CA        53.4740   89.2790  -57.7840 C.3   148  GLY148      0.1956
     11  C         53.5390   88.6630  -56.3930 C.2   148  GLY148      0.2612
     12  O         52.5300   88.5500  -55.7090 O.2   148  GLY148     -0.2717
     13  N         54.7230   88.2120  -56.0080 N.am  149  HIS149     -0.1961
     14  CA        54.9260   87.5840  -54.7200 C.3   149  HIS149      0.1787
     15  C         56.3320   87.9320  -54.2270 C.2   149  HIS149      0.2620
     16  O         57.2940   87.6670  -54.9240 O.2   149  HIS149     -0.2715
     17  CB        54.7530   86.0670  -54.8410 C.3   149  HIS149      0.0785
     18  CG        55.2500   85.3100  -53.6460 C.ar  149  HIS149      0.0821
     19  ND1       55.7990   84.0490  -53.7370 N.ar  149  HIS149     -0.2267
     20  CD2       55.2790   85.6360  -52.3310 C.ar  149  HIS149      0.1154
     21  CE1       56.1630   83.6390  -52.5350 C.ar  149  HIS149      0.1986
     22  NE2       55.8280   84.5700  -51.6620 N.ar  149  HIS149     -0.2212
     23  N         56.4400   88.5900  -53.0740 N.am  150  VAL150     -0.1977
     24  CA        57.7450   88.9110  -52.5000 C.3   150  VAL150      0.1596
     25  C         57.9390   88.1450  -51.1920 C.2   150  VAL150      0.2287
     26  O         56.9810   87.9120  -50.4520 O.2   150  VAL150     -0.2864
     27  CB        57.9290   90.4310  -52.2960 C.3   150  VAL150      0.0276
     28  CG1       56.8690   90.9970  -51.3820 C.3   150  VAL150      0.0022
     29  CG2       59.2820   90.7340  -51.6820 C.3   150  VAL150      0.0022
     30  N         54.4740   88.5870  -49.1580 N.3   168  GLY168     -0.1225
     31  CA        53.3680   89.3510  -49.7160 C.3   168  GLY168      0.1811
     32  C         53.0280   88.9050  -51.1310 C.2   168  GLY168      0.2280
     33  O         53.9150   88.7110  -51.9620 O.2   168  GLY168     -0.2866
     34  N         49.9210   89.4190  -54.3610 N.3   169  TYR169     -0.1241
     35  CA        48.7080   89.9870  -54.9280 C.3   169  TYR169      0.1605
     36  C         48.5460   89.3810  -56.3120 C.2   169  TYR169      0.2264
     37  O         49.5060   89.3420  -57.0800 O.2   169  TYR169     -0.2867
     38  CB        48.8370   91.5050  -55.0860 C.3   169  TYR169      0.0534
     39  CG        47.5810   92.1520  -55.6270 C.ar  169  TYR169     -0.0201
     40  CD1       46.3580   91.9630  -54.9920 C.ar  169  TYR169     -0.0009
     41  CD2       47.5990   92.9170  -56.7950 C.ar  169  TYR169     -0.0009
     42  CE1       45.1930   92.5110  -55.4890 C.ar  169  TYR169      0.0417
     43  CE2       46.4290   93.4680  -57.3020 C.ar  169  TYR169      0.0417
     44  CZ        45.2310   93.2570  -56.6450 C.ar  169  TYR169      0.1957
     45  OH        44.0580   93.7930  -57.1360 O.3   169  TYR169     -0.2866
     46  N         45.0350   87.8940  -52.3140 N.3   184  ARG184     -0.1231
     47  CA        45.9030   88.8360  -51.6100 C.3   184  ARG184      0.1694
     48  C         46.4020   88.1400  -50.3480 C.2   184  ARG184      0.2592
     49  O         45.6410   87.4860  -49.6730 O.2   184  ARG184     -0.2718
     50  CB        45.1230   90.1210  -51.2780 C.3   184  ARG184      0.0321
     51  CG        45.9270   91.3940  -51.3500 C.3   184  ARG184      0.0489
     52  CD        45.1780   92.6450  -50.8420 C.3   184  ARG184      0.2205
     53  NE        43.9080   92.9290  -51.5400 N.pl3 184  ARG184     -0.0865
     54  CZ        43.5420   94.1180  -52.0460 C.cat 184  ARG184      0.5346
     55  NH1       44.3720   95.1600  -52.0280 N.pl3 184  ARG184      0.1354
     56  NH2       42.3440   94.2560  -52.6070 N.pl3 184  ARG184      0.1354
     57  N         47.6970   88.1960  -50.0790 N.am  185  LEU185     -0.1966
     58  CA        48.2330   87.6230  -48.8550 C.3   185  LEU185      0.1728
     59  C         49.3680   88.4720  -48.2810 C.2   185  LEU185      0.2616
     60  O         50.2120   88.9850  -49.0120 O.2   185  LEU185     -0.2715
     61  CB        48.7230   86.2080  -49.1080 C.3   185  LEU185      0.0311
     62  CG        49.2760   85.4010  -47.9240 C.3   185  LEU185      0.0022
     63  CD1       48.1860   85.0100  -46.9490 C.3   185  LEU185      0.0001
     64  CD2       49.9600   84.1400  -48.4250 C.3   185  LEU185      0.0001
     65  N         49.3210   88.6880  -46.9700 N.am  186  PHE186     -0.1974
     66  CA        50.4540   89.2140  -46.2310 C.3   186  PHE186      0.1639
     67  C         50.6980   88.3050  -45.0280 C.2   186  PHE186      0.2290
     68  O         49.7760   87.9560  -44.2920 O.2   186  PHE186     -0.2864
     69  CB        50.1920   90.6620  -45.7970 C.3   186  PHE186      0.0560
     70  CG        51.3460   91.3070  -45.0860 C.ar  186  PHE186     -0.0200
     71  CD1       52.3920   91.8820  -45.8020 C.ar  186  PHE186     -0.0042
     72  CD2       51.3530   91.4130  -43.6910 C.ar  186  PHE186     -0.0042
     73  CE1       53.4620   92.4940  -45.1370 C.ar  186  PHE186     -0.0003
     74  CE2       52.4030   92.0430  -43.0200 C.ar  186  PHE186     -0.0003
     75  CZ        53.4660   92.5690  -43.7420 C.ar  186  PHE186     -0.0000
     76  N         47.1930   87.9110  -43.1110 N.3   205  ASP205     -0.1225
     77  CA        45.9600   88.4930  -43.6330 C.3   205  ASP205      0.1805
     78  C         45.7450   88.0550  -45.1130 C.2   205  ASP205      0.2598
     79  O         46.6290   88.2530  -45.9760 O.2   205  ASP205     -0.2718
     80  CB        46.0660   90.0240  -43.5470 C.3   205  ASP205      0.1424
     81  CG        44.7270   90.7340  -43.7750 C.2   205  ASP205      0.3668
     82  OD1       43.6790   90.0680  -43.7960 O.co2 205  ASP205     -0.2456
     83  OD2       44.7280   91.9480  -44.0410 O.co2 205  ASP205     -0.2456
     84  N         44.5670   87.5210  -45.4220 N.am  206  ALA206     -0.1966
     85  CA        44.3130   87.0070  -46.7530 C.3   206  ALA206      0.1728
     86  C         42.9730   87.4850  -47.3140 C.2   206  ALA206      0.2616
     87  O         41.9850   87.6040  -46.6030 O.2   206  ALA206     -0.2715
     88  CB        44.3750   85.4730  -46.7700 C.3   206  ALA206      0.0334
     89  N         42.9280   87.5570  -48.6410 N.am  207  LEU207     -0.1977
     90  CA        41.7140   87.8300  -49.3860 C.3   207  LEU207      0.1596
     91  C         41.6100   86.8410  -50.5540 C.2   207  LEU207      0.2287
     92  O         42.5890   86.5450  -51.2050 O.2   207  LEU207     -0.2864
     93  CB        41.7460   89.2730  -49.8930 C.3   207  LEU207      0.0297
     94  CG        40.6280   89.6010  -50.8700 C.3   207  LEU207      0.0022
     95  CD1       39.3510   89.7770  -50.0910 C.3   207  LEU207      0.0001
     96  CD2       40.8880   90.8800  -51.6460 C.3   207  LEU207      0.0001
@<TRIPOS>BOND
     1     9    10    1
     2     8     6    1
     3     4     3    2
     4    10    11    1
     5     6     5    1
     6     6     7    1
     7     3     2    1
     8    43    41   ar
     9    43    44   ar
    10    45    44    1
    11    37    36    2
    12    41    39   ar
    13     5     2    1
    14    44    42   ar
    15    11    13   am
    16    11    12    2
    17    36    35    1
    18     2     1    1
    19    13    14    1
    20    39    38    1
    21    39    40   ar
    22    42    40   ar
    23    38    35    1
    24    35    34    1
    25    16    15    2
    26    17    14    1
    27    17    18    1
    28    14    15    1
    29    15    23   am
    30    19    18   ar
    31    19    21   ar
    32    18    20   ar
    33    23    24    1
    34    56    54    1
    35    21    22   ar
    36    24    27    1
    37    24    25    1
    38    20    22   ar
    39    46    47    1
    40    27    29    1
    41    27    28    1
    42    54    55    1
    43    54    53    2
    44    33    32    2
    45    96    94    1
    46    47    50    1
    47    47    48    1
    48    53    52    1
    49    51    50    1
    50    51    52    1
    51    92    91    2
    52    25    26    2
    53    32    31    1
    54    94    95    1
    55    94    93    1
    56    91    90    1
    57    48    57   am
    58    48    49    2
    59    57    58    1
    60    93    90    1
    61    31    30    1
    62    90    89    1
    63    61    58    1
    64    61    62    1
    65    60    59    2
    66    58    59    1
    67    89    86   am
    68    64    62    1
    69    59    65   am
    70    62    63    1
    71    86    85    1
    72    86    87    2
    73    65    66    1
    74    88    85    1
    75    85    84    1
    76    66    69    1
    77    66    67    1
    78    79    78    2
    79    71    73   ar
    80    71    70   ar
    81    69    70    1
    82    84    78   am
    83    73    75   ar
    84    78    77    1
    85    70    72   ar
    86    67    68    2
    87    83    81   ar
    88    82    81   ar
    89    81    80    1
    90    75    74   ar
    91    72    74   ar
    92    77    80    1
    93    77    76    1
