@<TRIPOS>MOLECULE
tmp/6h7vC05.pdb
 92 90 0 0 0
SMALL
GASTEIGER

@<TRIPOS>ATOM
      1  N         40.1030   65.1530   -3.6860 N.3   537  PHE537     -0.1227
      2  CA        39.0540   65.9350   -4.3390 C.3   537  PHE537      0.1736
      3  C         38.5170   65.0720   -5.4690 C.2   537  PHE537      0.2596
      4  O         39.2750   64.3880   -6.1160 O.2   537  PHE537     -0.2718
      5  CB        39.6160   67.2750   -4.8920 C.3   537  PHE537      0.0547
      6  CG        40.3090   68.1380   -3.8460 C.ar  537  PHE537     -0.0202
      7  CD1       41.5960   67.8350   -3.3900 C.ar  537  PHE537     -0.0042
      8  CD2       39.6900   69.2780   -3.3300 C.ar  537  PHE537     -0.0042
      9  CE1       42.2090   68.6030   -2.3840 C.ar  537  PHE537     -0.0003
     10  CE2       40.3080   70.0640   -2.3480 C.ar  537  PHE537     -0.0003
     11  CZ        41.5650   69.7200   -1.8680 C.ar  537  PHE537     -0.0000
     12  N         37.2000   65.0400   -5.6470 N.am  538  THR538     -0.1939
     13  CA        36.5920   64.3760   -6.8020 C.3   538  THR538      0.2028
     14  C         35.5720   65.2870   -7.4710 C.2   538  THR538      0.2642
     15  O         34.8720   66.0410   -6.8140 O.2   538  THR538     -0.2714
     16  CB        35.8380   63.0950   -6.4140 C.3   538  THR538      0.1808
     17  OG1       34.9880   63.3880   -5.3090 O.3   538  THR538     -0.2208
     18  CG2       36.7840   62.0090   -6.0090 C.3   538  THR538      0.0379
     19  N         35.4880   65.1900   -8.7880 N.am  539  TYR539     -0.1973
     20  CA        34.3360   65.6660   -9.5140 C.3   539  TYR539      0.1639
     21  C         33.6530   64.4330  -10.0730 C.2   539  TYR539      0.2290
     22  O         34.2810   63.6030  -10.7260 O.2   539  TYR539     -0.2864
     23  CB        34.7410   66.5630  -10.7040 C.3   539  TYR539      0.0560
     24  CG        35.4090   67.9100  -10.4480 C.ar  539  TYR539     -0.0198
     25  CD1       34.8310   69.0810  -10.9840 C.ar  539  TYR539     -0.0009
     26  CD2       36.7590   67.9940  -10.0250 C.ar  539  TYR539     -0.0009
     27  CE1       35.5300   70.2900  -11.0380 C.ar  539  TYR539      0.0417
     28  CE2       37.4400   69.2170  -10.0170 C.ar  539  TYR539      0.0417
     29  CZ        36.8170   70.3580  -10.5260 C.ar  539  TYR539      0.1957
     30  OH        37.4390   71.5760  -10.4870 O.3   539  TYR539     -0.2866
     31  N         30.5420   66.9250   -6.1380 N.3   563  ASN563     -0.1225
     32  CA        31.8410   67.4740   -5.7610 C.3   563  ASN563      0.1785
     33  C         32.1100   67.0670   -4.3270 C.2   563  ASN563      0.2597
     34  O         31.2480   67.2090   -3.4790 O.2   563  ASN563     -0.2718
     35  CB        31.8580   69.0050   -5.8790 C.3   563  ASN563      0.1169
     36  CG        31.7200   69.4920   -7.3030 C.2   563  ASN563      0.2627
     37  OD1       32.0960   68.8270   -8.2370 O.2   563  ASN563     -0.2716
     38  ND2       31.1540   70.6350   -7.4640 N.am  563  ASN563     -0.0877
     39  N         33.3060   66.5840   -4.0540 N.am  564  GLN564     -0.1965
     40  CA        33.7130   66.2670   -2.6920 C.3   564  GLN564      0.1733
     41  C         35.1250   66.7350   -2.4700 C.2   564  GLN564      0.2616
     42  O         35.9730   66.6490   -3.3450 O.2   564  GLN564     -0.2715
     43  CB        33.6560   64.7670   -2.4110 C.3   564  GLN564      0.0408
     44  CG        32.2870   64.1520   -2.5450 C.3   564  GLN564      0.0908
     45  CD        32.1900   62.7960   -1.8650 C.2   564  GLN564      0.2608
     46  OE1       32.5030   62.6440   -0.6760 O.2   564  GLN564     -0.2717
     47  NE2       31.7160   61.8110   -2.6020 N.am  564  GLN564     -0.0878
     48  N         35.3940   67.1700   -1.2560 N.am  565  ALA565     -0.1977
     49  CA        36.7460   67.4920   -0.8450 C.3   565  ALA565      0.1597
     50  C         36.8980   66.9880    0.5840 C.2   565  ALA565      0.2287
     51  O         36.1370   67.3840    1.4710 O.2   565  ALA565     -0.2864
     52  CB        36.9900   68.9980   -0.9390 C.3   565  ALA565      0.0319
     53  N         33.7920   68.3540    2.8410 N.3   588  ALA588     -0.1231
     54  CA        32.9380   69.3140    2.1230 C.3   588  ALA588      0.1694
     55  C         32.2910   68.6640    0.9220 C.2   588  ALA588      0.2592
     56  O         32.9890   68.1660    0.0640 O.2   588  ALA588     -0.2718
     57  CB        33.7800   70.4900    1.6390 C.3   588  ALA588      0.0304
     58  N         30.9860   68.7890    0.7770 N.am  589  VAL589     -0.1966
     59  CA        30.3220   68.2580   -0.4030 C.3   589  VAL589      0.1727
     60  C         29.3030   69.2220   -0.9460 C.2   589  VAL589      0.2616
     61  O         28.8290   70.1100   -0.2350 O.2   589  VAL589     -0.2715
     62  CB        29.6270   66.9070   -0.1260 C.3   589  VAL589      0.0290
     63  CG1       30.5900   65.9760    0.5650 C.3   589  VAL589      0.0023
     64  CG2       28.3630   67.0750    0.6970 C.3   589  VAL589      0.0023
     65  N         29.0350   69.0880   -2.2410 N.am  590  SER590     -0.1950
     66  CA        28.0630   69.9400   -2.9150 C.3   590  SER590      0.1924
     67  C         26.6560   69.3410   -2.8160 C.2   590  SER590      0.2314
     68  O         26.4340   68.3290   -2.1250 O.2   590  SER590     -0.2863
     69  CB        28.4790   70.1610   -4.3600 C.3   590  SER590      0.2116
     70  OG        28.5200   68.9580   -5.0920 O.3   590  SER590     -0.2180
     71  N         24.6610   71.5720   -0.3900 N.3   604  GLY604     -0.1210
     72  CA        25.9650   71.1180    0.1030 C.3   604  GLY604      0.1956
     73  C         26.1250   71.2960    1.5980 C.2   604  GLY604      0.2612
     74  O         25.3740   72.0270    2.2240 O.2   604  GLY604     -0.2717
     75  N         27.1790   70.7260    2.1530 N.am  605  ARG605     -0.1965
     76  CA        27.4950   70.9960    3.5280 C.3   605  ARG605      0.1729
     77  C         28.9180   70.5590    3.8410 C.2   605  ARG605      0.2616
     78  O         29.4700   69.6560    3.2150 O.2   605  ARG605     -0.2715
     79  CB        26.4850   70.2780    4.4130 C.3   605  ARG605      0.0348
     80  CG        26.9590   68.9790    5.0590 C.3   605  ARG605      0.0492
     81  CD        26.6590   67.6780    4.2950 C.3   605  ARG605      0.2205
     82  NE        25.3290   67.5980    3.7220 N.pl3 605  ARG605     -0.0865
     83  CZ        24.8710   66.5520    3.0240 C.cat 605  ARG605      0.5346
     84  NH1       23.6430   66.6150    2.4910 N.pl3 605  ARG605      0.1354
     85  NH2       25.6100   65.4330    2.8890 N.pl3 605  ARG605      0.1354
     86  N         29.4660   71.1680    4.8680 N.am  606  THR606     -0.1951
     87  CA        30.8180   70.9730    5.2650 C.3   606  THR606      0.1897
     88  C         30.8560   70.6140    6.7400 C.2   606  THR606      0.2313
     89  O         30.2890   71.3200    7.5830 O.2   606  THR606     -0.2863
     90  CB        31.5910   72.2610    5.0640 C.3   606  THR606      0.1794
     91  OG1       31.7310   72.5150    3.6530 O.3   606  THR606     -0.2208
     92  CG2       32.9400   72.1590    5.7310 C.3   606  THR606      0.0378
@<TRIPOS>BOND
     1    27    25   ar
     2    27    29   ar
     3    25    24   ar
     4    22    21    2
     5    23    24    1
     6    23    20    1
     7    29    30    1
     8    29    28   ar
     9    24    26   ar
    10    21    20    1
    11    26    28   ar
    12    20    19    1
    13    19    14   am
    14    37    36    2
    15    14    15    2
    16    14    13    1
    17    38    36   am
    18    36    35    1
    19    13    16    1
    20    13    12    1
    21    16    18    1
    22    16    17    1
    23    31    32    1
    24     4     3    2
    25    35    32    1
    26    32    33    1
    27    12     3   am
    28     3     2    1
    29    70    69    1
    30     5     2    1
    31     5     6    1
    32    69    66    1
    33     2     1    1
    34    33    39   am
    35    33    34    2
    36    39    40    1
    37     6     7   ar
    38     6     8   ar
    39     7     9   ar
    40    42    41    2
    41     8    10   ar
    42    66    67    1
    43    66    65    1
    44    67    68    2
    45    40    41    1
    46    40    43    1
    47    47    45   am
    48    44    43    1
    49    44    45    1
    50    41    48   am
    51     9    11   ar
    52    10    11   ar
    53    65    60   am
    54    45    46    2
    55    48    49    1
    56    60    59    1
    57    60    61    2
    58    52    49    1
    59    49    50    1
    60    59    62    1
    61    59    58    1
    62    71    72    1
    63    62    63    1
    64    62    64    1
    65    56    55    2
    66    72    73    1
    67    50    51    2
    68    58    55   am
    69    55    54    1
    70    73    75   am
    71    73    74    2
    72    57    54    1
    73    54    53    1
    74    75    76    1
    75    84    83    1
    76    85    83    1
    77    83    82    2
    78    78    77    2
    79    76    77    1
    80    76    79    1
    81    91    90    1
    82    82    81    1
    83    77    86   am
    84    81    80    1
    85    79    80    1
    86    86    87    1
    87    90    87    1
    88    90    92    1
    89    87    88    1
    90    88    89    2
