@<TRIPOS>MOLECULE
tmp/6h7vC06.pdb
 114 109 0 0 0
SMALL
GASTEIGER

@<TRIPOS>ATOM
      1  N         43.5560   45.7810   26.4790 N.3   137  LEU137     -0.1245
      2  CA        42.2160   46.1800   26.8900 C.3   137  LEU137      0.1561
      3  C         41.9650   47.6510   26.5350 C.2   137  LEU137      0.2260
      4  O         42.8480   48.4790   26.6760 O.2   137  LEU137     -0.2867
      5  CB        42.0610   45.9560   28.3770 C.3   137  LEU137      0.0270
      6  CG        40.7370   46.3940   29.0170 C.3   137  LEU137      0.0019
      7  CD1       39.6050   45.4980   28.5540 C.3   137  LEU137      0.0001
      8  CD2       40.8340   46.3680   30.5490 C.3   137  LEU137      0.0001
      9  N         33.7810   48.1520   26.1440 N.3   148  GLY148     -0.1210
     10  CA        35.1000   47.5560   26.3460 C.3   148  GLY148      0.1956
     11  C         35.4360   46.6090   25.2050 C.2   148  GLY148      0.2612
     12  O         34.5560   46.1430   24.4700 O.2   148  GLY148     -0.2717
     13  N         36.7280   46.4050   24.9920 N.am  149  HIS149     -0.1961
     14  CA        37.2020   45.6100   23.8800 C.3   149  HIS149      0.1787
     15  C         38.4780   44.9300   24.3280 C.2   149  HIS149      0.2620
     16  O         39.4170   45.6030   24.7140 O.2   149  HIS149     -0.2715
     17  CB        37.4490   46.5000   22.6640 C.3   149  HIS149      0.0785
     18  CG        38.2310   45.8330   21.5700 C.ar  149  HIS149      0.0821
     19  ND1       39.0830   46.5270   20.7400 N.ar  149  HIS149     -0.2267
     20  CD2       38.3260   44.5320   21.1990 C.ar  149  HIS149      0.1154
     21  CE1       39.6840   45.6830   19.9210 C.ar  149  HIS149      0.1986
     22  NE2       39.2220   44.4700   20.1610 N.ar  149  HIS149     -0.2212
     23  N         38.4990   43.6030   24.3270 N.am  150  VAL150     -0.1977
     24  CA        39.7280   42.8710   24.6640 C.3   150  VAL150      0.1596
     25  C         40.2600   42.1090   23.4480 C.2   150  VAL150      0.2287
     26  O         39.4910   41.6560   22.6170 O.2   150  VAL150     -0.2864
     27  CB        39.5320   41.9580   25.8890 C.3   150  VAL150      0.0276
     28  CG1       38.4510   40.9410   25.6220 C.3   150  VAL150      0.0022
     29  CG2       40.8290   41.2500   26.2480 C.3   150  VAL150      0.0022
     30  N         37.0610   40.2570   21.8930 N.3   168  GLY168     -0.1225
     31  CA        35.7300   40.4620   22.4720 C.3   168  GLY168      0.1811
     32  C         35.3910   41.9390   22.6250 C.2   168  GLY168      0.2280
     33  O         36.2030   42.7220   23.1220 O.2   168  GLY168     -0.2866
     34  N         31.9820   44.6380   23.8170 N.3   169  TYR169     -0.1241
     35  CA        30.6280   44.9560   24.2060 C.3   169  TYR169      0.1605
     36  C         30.4920   46.4810   24.2850 C.2   169  TYR169      0.2264
     37  O         31.3360   47.1400   24.8620 O.2   169  TYR169     -0.2867
     38  CB        30.3560   44.3950   25.5890 C.3   169  TYR169      0.0534
     39  CG        28.9380   44.6210   26.0580 C.ar  169  TYR169     -0.0201
     40  CD1       27.8690   44.2930   25.2500 C.ar  169  TYR169     -0.0009
     41  CD2       28.6640   45.1440   27.3110 C.ar  169  TYR169     -0.0009
     42  CE1       26.5580   44.5250   25.6440 C.ar  169  TYR169      0.0417
     43  CE2       27.3460   45.3020   27.7500 C.ar  169  TYR169      0.0417
     44  CZ        26.2990   44.9970   26.8950 C.ar  169  TYR169      0.1957
     45  OH        24.9840   45.1810   27.2340 O.3   169  TYR169     -0.2866
     46  N         27.8570   43.8420   20.1680 N.3   184  ARG184     -0.1231
     47  CA        28.5670   42.7180   20.7980 C.3   184  ARG184      0.1694
     48  C         29.3480   42.0140   19.7050 C.2   184  ARG184      0.2592
     49  O         28.8500   41.8160   18.6040 O.2   184  ARG184     -0.2718
     50  CB        27.5920   41.7390   21.4450 C.3   184  ARG184      0.0321
     51  CG        27.0930   42.1020   22.8240 C.3   184  ARG184      0.0489
     52  CD        25.7060   41.5140   23.1250 C.3   184  ARG184      0.2205
     53  NE        25.6100   40.7970   24.4180 N.pl3 184  ARG184     -0.0865
     54  CZ        24.4670   40.4920   25.0490 C.cat 184  ARG184      0.5346
     55  NH1       23.2870   40.8560   24.5460 N.pl3 184  ARG184      0.1354
     56  NH2       24.5030   39.8650   26.2220 N.pl3 184  ARG184      0.1354
     57  N         30.6020   41.6970   19.9820 N.am  185  LEU185     -0.1966
     58  CA        31.3710   40.8690   19.0840 C.3   185  LEU185      0.1728
     59  C         32.2410   39.8650   19.8470 C.2   185  LEU185      0.2616
     60  O         32.8670   40.1900   20.8510 O.2   185  LEU185     -0.2715
     61  CB        32.2120   41.7550   18.1800 C.3   185  LEU185      0.0311
     62  CG        33.0650   41.0150   17.1290 C.3   185  LEU185      0.0022
     63  CD1       32.2300   40.4550   15.9730 C.3   185  LEU185      0.0001
     64  CD2       34.1440   41.9460   16.6040 C.3   185  LEU185      0.0001
     65  N         32.2210   38.6150   19.4070 N.am  186  PHE186     -0.1974
     66  CA        33.2500   37.6520   19.8190 C.3   186  PHE186      0.1639
     67  C         33.8410   37.0430   18.5640 C.2   186  PHE186      0.2290
     68  O         33.1150   36.5960   17.6720 O.2   186  PHE186     -0.2864
     69  CB        32.6660   36.5580   20.7110 C.3   186  PHE186      0.0560
     70  CG        33.6910   35.5740   21.2230 C.ar  186  PHE186     -0.0200
     71  CD1       34.4420   35.8630   22.3720 C.ar  186  PHE186     -0.0042
     72  CD2       33.8900   34.3330   20.5870 C.ar  186  PHE186     -0.0042
     73  CE1       35.3570   34.9430   22.8750 C.ar  186  PHE186     -0.0003
     74  CE2       34.8240   33.4290   21.0740 C.ar  186  PHE186     -0.0003
     75  CZ        35.5350   33.7190   22.2320 C.ar  186  PHE186     -0.0000
     76  N         30.8140   35.8240   16.2390 N.3   205  ASP205     -0.1225
     77  CA        29.4230   36.0230   16.6400 C.3   205  ASP205      0.1805
     78  C         29.1720   37.5270   16.9090 C.2   205  ASP205      0.2598
     79  O         29.9090   38.1600   17.6840 O.2   205  ASP205     -0.2718
     80  CB        29.1800   35.2050   17.9160 C.3   205  ASP205      0.1424
     81  CG        27.7260   35.0190   18.2250 C.2   205  ASP205      0.3668
     82  OD1       26.8710   35.4620   17.4300 O.co2 205  ASP205     -0.2456
     83  OD2       27.4210   34.3380   19.2260 O.co2 205  ASP205     -0.2456
     84  N         28.1420   38.0930   16.2950 N.am  206  ALA206     -0.1966
     85  CA        27.9050   39.5340   16.4310 C.3   206  ALA206      0.1728
     86  C         26.4590   39.8610   16.7320 C.2   206  ALA206      0.2616
     87  O         25.5430   39.2620   16.1900 O.2   206  ALA206     -0.2715
     88  CB        28.3760   40.3150   15.1970 C.3   206  ALA206      0.0334
     89  N         26.2830   40.9190   17.5190 N.am  207  LEU207     -0.1977
     90  CA        24.9860   41.5360   17.7260 C.3   207  LEU207      0.1596
     91  C         25.0520   43.0510   17.4420 C.2   207  LEU207      0.2287
     92  O         26.0020   43.7190   17.8000 O.2   207  LEU207     -0.2864
     93  CB        24.5520   41.2690   19.1530 C.3   207  LEU207      0.0297
     94  CG        23.3340   42.0720   19.6000 C.3   207  LEU207      0.0022
     95  CD1       22.1140   41.3920   19.0300 C.3   207  LEU207      0.0001
     96  CD2       23.2460   42.1380   21.1130 C.3   207  LEU207      0.0001
     97  N         21.3990   39.8340   14.3710 N.3   245  LYS245     -0.1245
     98  CA        22.4170   38.8750   14.8510 C.3   245  LYS245      0.1561
     99  C         23.1240   38.1820   13.6820 C.2   245  LYS245      0.2260
    100  O         22.4750   37.6990   12.7500 O.2   245  LYS245     -0.2867
    101  CB        21.7610   37.8010   15.7140 C.3   245  LYS245      0.0271
    102  CG        21.1060   38.3220   16.9700 C.3   245  LYS245      0.0035
    103  CD        20.4270   37.1890   17.7180 C.3   245  LYS245      0.0206
    104  CE        19.6230   37.6940   18.9080 C.3   245  LYS245      0.1093
    105  NZ        19.0790   36.5330   19.6670 N.3   245  LYS245     -0.1314
    106  N         26.3490   35.4630   12.5020 N.3   247  LYS247     -0.1245
    107  CA        27.3450   34.4590   12.8680 C.3   247  LYS247      0.1561
    108  C         28.0200   34.0310   11.5860 C.2   247  LYS247      0.2260
    109  O         27.3370   33.6790   10.6230 O.2   247  LYS247     -0.2867
    110  CB        26.6910   33.2170   13.4730 C.3   247  LYS247      0.0271
    111  CG        26.2000   33.3970   14.8830 C.3   247  LYS247      0.0035
    112  CD        25.3180   32.2320   15.3290 C.3   247  LYS247      0.0206
    113  CE        23.9670   32.7190   15.8520 C.3   247  LYS247      0.1093
    114  NZ        23.9710   32.9200   17.3320 N.3   247  LYS247     -0.1314
@<TRIPOS>BOND
     1   109   108    2
     2   108   107    1
     3   106   107    1
     4   100    99    2
     5   107   110    1
     6   110   111    1
     7    99    98    1
     8    97    98    1
     9    98   101    1
    10   111   112    1
    11    88    85    1
    12   112   113    1
    13   101   102    1
    14   113   114    1
    15    63    62    1
    16    87    86    2
    17    76    77    1
    18    84    85    1
    19    84    78   am
    20    85    86    1
    21    64    62    1
    22    77    78    1
    23    77    80    1
    24    86    89   am
    25    78    79    2
    26   102   103    1
    27    62    61    1
    28    82    81   ar
    29    91    90    1
    30    91    92    2
    31    89    90    1
    32    68    67    2
    33   103   104    1
    34    90    93    1
    35    80    81    1
    36    61    58    1
    37    81    83   ar
    38    67    66    1
    39    49    48    2
    40   104   105    1
    41    95    94    1
    42    58    59    1
    43    58    57    1
    44    93    94    1
    45    65    66    1
    46    65    59   am
    47    94    96    1
    48    48    57   am
    49    48    47    1
    50    66    69    1
    51    59    60    2
    52    21    22   ar
    53    21    19   ar
    54    22    20   ar
    55    46    47    1
    56    72    74   ar
    57    72    70   ar
    58    69    70    1
    59    19    18   ar
    60    47    50    1
    61    74    75   ar
    62    20    18   ar
    63    70    71   ar
    64    50    51    1
    65    18    17    1
    66    30    31    1
    67    75    73   ar
    68    71    73   ar
    69    31    32    1
    70    26    25    2
    71    32    33    2
    72    17    14    1
    73    51    52    1
    74    52    53    1
    75    25    24    1
    76    34    35    1
    77    14    15    1
    78    14    13    1
    79    35    36    1
    80    35    38    1
    81    36    37    2
    82    23    15   am
    83    23    24    1
    84    15    16    2
    85    53    54    2
    86    12    11    2
    87    55    54    1
    88    24    27    1
    89    13    11   am
    90    54    56    1
    91    11    10    1
    92    40    42   ar
    93    40    39   ar
    94    38    39    1
    95    28    27    1
    96    42    44   ar
    97    27    29    1
    98    39    41   ar
    99     9    10    1
   100     1     2    1
   101     3     4    2
   102     3     2    1
   103     2     5    1
   104    44    45    1
   105    44    43   ar
   106    41    43   ar
   107     5     6    1
   108     7     6    1
   109     6     8    1
