@<TRIPOS>MOLECULE
tmp/6h7yA04.pdb
 243 232 0 0 0
SMALL
GASTEIGER

@<TRIPOS>ATOM
      1  N         28.0520   49.4100   35.7550 N.3   153  LYS153     -0.1245
      2  CA        27.9620   50.8920   35.7300 C.3   153  LYS153      0.1561
      3  C         26.6010   51.4330   36.0880 C.2   153  LYS153      0.2260
      4  O         26.4950   52.2280   37.0260 O.2   153  LYS153     -0.2867
      5  CB        28.4030   51.5210   34.3920 C.3   153  LYS153      0.0271
      6  CG        29.8160   51.1570   33.9430 C.3   153  LYS153      0.0035
      7  CD        30.7900   51.7000   34.9250 C.3   153  LYS153      0.0206
      8  CE        32.2110   51.7190   34.4010 C.3   153  LYS153      0.1093
      9  NZ        32.4750   52.9360   33.6330 N.3   153  LYS153     -0.1314
     10  N         21.9690   50.7640   36.0250 N.3   155  PHE155     -0.1227
     11  CA        20.8260   49.8440   35.9880 C.3   155  PHE155      0.1736
     12  C         20.5080   49.3490   34.5840 C.2   155  PHE155      0.2598
     13  O         20.3980   50.1460   33.6180 O.2   155  PHE155     -0.2717
     14  CB        19.5940   50.5140   36.6170 C.3   155  PHE155      0.0547
     15  CG        18.3150   49.7060   36.5740 C.ar  155  PHE155     -0.0202
     16  CD1       18.1940   48.4900   37.2830 C.ar  155  PHE155     -0.0042
     17  CD2       17.1770   50.2350   35.9480 C.ar  155  PHE155     -0.0042
     18  CE1       16.9960   47.7710   37.2540 C.ar  155  PHE155     -0.0003
     19  CE2       15.9710   49.5140   35.9340 C.ar  155  PHE155     -0.0003
     20  CZ        15.8940   48.2830   36.5890 C.ar  155  PHE155     -0.0000
     21  N         20.2430   48.0500   34.4640 N.am  156  ARG156     -0.1934
     22  CA        20.0010   47.4680   33.1150 C.3   156  ARG156      0.1813
     23  C         18.7920   48.0470   32.3330 C.2   156  ARG156      0.2332
     24  O         18.8400   48.0790   31.0830 O.2   156  ARG156     -0.2860
     25  CB        19.9210   45.9220   33.1620 C.2   156  ARG156      0.0019
     26  CG        18.6890   45.3440   33.8700 C.2   156  ARG156      0.0178
     27  CD        18.7000   43.8090   34.0740 C.3   156  ARG156      0.2464
     28  NE        19.4270   43.3850   35.3110 N.pl3 156  ARG156     -0.0815
     29  CZ        18.9960   43.6230   36.5590 C.cat 156  ARG156      0.5349
     30  NH1       17.8210   44.2450   36.7850 N.pl3 156  ARG156      0.1354
     31  NH2       19.7230   43.1840   37.6070 N.pl3 156  ARG156      0.1354
     32  N         17.2190   39.5830   35.7090 N.3   202  GLY202     -0.1210
     33  CA        16.7030   40.8700   36.2720 C.3   202  GLY202      0.1956
     34  C         15.7360   41.5910   35.3370 C.2   202  GLY202      0.2611
     35  O         15.7750   41.4130   34.0830 O.2   202  GLY202     -0.2717
     36  N         14.8380   42.3790   35.9220 N.am  203  ASN203     -0.1974
     37  CA        13.8440   43.0930   35.1050 C.3   203  ASN203      0.1688
     38  C         14.5250   44.2520   34.3380 C.2   203  ASN203      0.2292
     39  O         15.5350   44.7930   34.7680 O.2   203  ASN203     -0.2864
     40  CB        12.6070   43.5580   35.9410 C.3   203  ASN203      0.1181
     41  CG        12.8160   44.9060   36.6540 C.2   203  ASN203      0.2629
     42  OD1       12.8000   45.9680   36.0170 O.2   203  ASN203     -0.2716
     43  ND2       13.0060   44.8720   37.9740 N.am  203  ASN203     -0.0877
     44  N         10.0590   52.1770   35.1780 N.3   207  LEU207     -0.1245
     45  CA         8.8180   52.5190   35.8690 C.3   207  LEU207      0.1561
     46  C          8.7600   53.9350   36.3940 C.2   207  LEU207      0.2260
     47  O          7.6650   54.4790   36.6050 O.2   207  LEU207     -0.2867
     48  CB         8.5790   51.5770   37.0760 C.3   207  LEU207      0.0270
     49  CG         8.2320   50.1360   36.6860 C.3   207  LEU207      0.0019
     50  CD1        8.1700   49.2760   37.9360 C.3   207  LEU207      0.0001
     51  CD2        6.9070   50.1070   35.9350 C.3   207  LEU207      0.0001
     52  N         20.7480   37.8230   48.1230 N.3   333  ASP333     -0.1239
     53  CA        19.6480   38.7090   47.7350 C.3   333  ASP333      0.1674
     54  C         18.3170   37.9330   47.6260 C.2   333  ASP333      0.2266
     55  O         18.1350   37.2470   46.5820 O.2   333  ASP333     -0.2867
     56  CB        20.0360   39.3490   46.3770 C.3   333  ASP333      0.1410
     57  CG        19.0330   40.4210   45.8830 C.2   333  ASP333      0.3668
     58  OD1       18.0600   40.6670   46.6240 O.co2 333  ASP333     -0.2456
     59  OD2       19.1980   40.9190   44.7160 O.co2 333  ASP333     -0.2456
     60  N         11.7650   42.0450   42.8830 N.3   371  GLU371     -0.1245
     61  CA        12.6410   41.8020   41.7270 C.3   371  GLU371      0.1567
     62  C         11.9530   42.1770   40.4120 C.2   371  GLU371      0.2260
     63  O         12.6400   42.3250   39.3850 O.2   371  GLU371     -0.2867
     64  CB        13.1370   40.3210   41.6870 C.3   371  GLU371      0.0388
     65  CG        14.0320   39.8220   42.8500 C.3   371  GLU371      0.1160
     66  CD        15.4000   40.5300   42.9200 C.2   371  GLU371      0.3649
     67  OE1       15.6250   41.5150   42.1760 O.co2 371  GLU371     -0.2457
     68  OE2       16.2240   40.1610   43.7540 O.co2 371  GLU371     -0.2457
     69  N         10.0470   44.9730   40.0000 N.3   373  GLY373     -0.1210
     70  CA         9.8480   46.4490   39.9600 C.3   373  GLY373      0.1956
     71  C          9.3840   47.1290   41.2440 C.2   373  GLY373      0.2611
     72  O          8.6430   48.1300   41.1980 O.2   373  GLY373     -0.2717
     73  N          9.7680   46.5790   42.3870 N.am  374  LEU374     -0.1979
     74  CA         9.3720   47.1570   43.6740 C.3   374  LEU374      0.1596
     75  C          7.8200   47.1270   43.8410 C.2   374  LEU374      0.2287
     76  O          7.1910   48.0360   44.4280 O.2   374  LEU374     -0.2864
     77  CB         9.9120   48.5950   43.8110 C.3   374  LEU374      0.0297
     78  CG        11.3000   48.9270   43.2760 C.3   374  LEU374      0.0022
     79  CD1       11.6730   50.3960   43.4410 C.3   374  LEU374      0.0001
     80  CD2       12.3910   48.0390   43.8870 C.3   374  LEU374      0.0001
     81  N         17.1550   44.7700   52.6120 N.3   399  ASP399     -0.1225
     82  CA        17.5590   43.7960   51.6030 C.3   399  ASP399      0.1805
     83  C         18.9560   43.2440   52.0550 C.2   399  ASP399      0.2598
     84  O         19.2960   43.3050   53.2910 O.2   399  ASP399     -0.2718
     85  CB        17.4870   44.4190   50.1890 C.3   399  ASP399      0.1424
     86  CG        17.3970   43.3920   49.0390 C.2   399  ASP399      0.3668
     87  OD1       17.4240   42.1920   49.3240 O.co2 399  ASP399     -0.2456
     88  OD2       17.3810   43.7680   47.8230 O.co2 399  ASP399     -0.2456
     89  N         19.7320   42.7650   51.0940 N.am  400  SER400     -0.1952
     90  CA        20.9850   42.0020   51.3470 C.3   400  SER400      0.1924
     91  C         21.8280   42.6480   52.4910 C.2   400  SER400      0.2314
     92  O         22.0870   43.8700   52.5020 O.2   400  SER400     -0.2863
     93  CB        21.7900   41.8190   50.0700 C.3   400  SER400      0.2116
     94  OG        21.0090   41.4470   48.9600 O.3   400  SER400     -0.2180
     95  N         27.4670   42.5250   50.8160 N.3   403  GLU403     -0.1196
     96  CA        27.8910   42.4610   49.3950 C.3   403  GLU403      0.1783
     97  C         29.4620   42.3690   49.3230 C.2   403  GLU403      0.2306
     98  O         30.0370   42.5420   48.2650 O.2   403  GLU403     -0.2863
     99  CB        27.3590   43.6760   48.5880 C.2   403  GLU403      0.0071
    100  CG        27.9150   45.0360   49.0150 C.2   403  GLU403      0.0834
    101  CD        27.1950   46.2500   48.4180 C.2   403  GLU403      0.3877
    102  OE1       26.1550   46.1000   47.6880 O.co2 403  GLU403     -0.2406
    103  OE2       27.6600   47.3860   48.7420 O.co2 403  GLU403     -0.2406
    104  N         28.6020   50.0620   54.9540 N.3   409  ARG409     -0.1245
    105  CA        28.0790   51.0010   53.9640 C.3   409  ARG409      0.1563
    106  C         26.7180   51.4920   54.5110 C.2   409  ARG409      0.2260
    107  O         25.9170   50.6800   54.9240 O.2   409  ARG409     -0.2867
    108  CB        27.8540   50.2660   52.6250 C.3   409  ARG409      0.0307
    109  CG        26.8930   50.9820   51.6500 C.3   409  ARG409      0.0489
    110  CD        26.7490   50.3170   50.2840 C.3   409  ARG409      0.2205
    111  NE        25.6500   50.9430   49.5050 N.pl3 409  ARG409     -0.0865
    112  CZ        25.0380   50.4030   48.4400 C.cat 409  ARG409      0.5346
    113  NH1       25.3780   49.1970   47.9650 N.pl3 409  ARG409      0.1354
    114  NH2       24.0500   51.0730   47.8520 N.pl3 409  ARG409      0.1354
    115  N         18.0990   54.4780   43.9240 N.3   463  SER463     -0.1202
    116  CA        16.9030   53.6530   43.9150 C.3   463  SER463      0.2020
    117  C         17.2310   52.2130   43.5200 C.2   463  SER463      0.2619
    118  O         18.3770   51.7680   43.7070 O.2   463  SER463     -0.2717
    119  CB        15.8350   54.2750   43.0700 C.3   463  SER463      0.2103
    120  OG        14.6480   53.5270   43.1450 O.3   463  SER463     -0.2182
    121  N         16.2620   51.4530   42.9990 N.am  464  GLY464     -0.1942
    122  CA        16.5200   50.0070   42.7520 C.3   464  GLY464      0.2014
    123  C         16.2850   49.1870   44.0180 C.2   464  GLY464      0.2638
    124  O         16.8070   48.0530   44.1520 O.2   464  GLY464     -0.2714
    125  N         15.5020   49.7290   44.9330 N.am  465  ASN465     -0.1972
    126  CA        15.0530   48.9520   46.1300 C.3   465  ASN465      0.1688
    127  C         13.8050   49.5400   46.7810 C.2   465  ASN465      0.2292
    128  O         13.3890   50.6560   46.4150 O.2   465  ASN465     -0.2864
    129  CB        16.1950   48.7270   47.1210 C.3   465  ASN465      0.1181
    130  CG        16.1930   47.3020   47.6790 C.2   465  ASN465      0.2629
    131  OD1       15.2600   46.9070   48.4020 O.2   465  ASN465     -0.2716
    132  ND2       17.1730   46.5270   47.2730 N.am  465  ASN465     -0.0877
    133  N         19.3520   52.9060   54.7710 N.3   480  ARG480     -0.1245
    134  CA        19.7500   51.4990   54.5370 C.3   480  ARG480      0.1563
    135  C         21.2330   51.3010   54.9760 C.2   480  ARG480      0.2260
    136  O         22.0210   52.2680   55.0170 O.2   480  ARG480     -0.2867
    137  CB        19.6190   51.1490   53.0310 C.3   480  ARG480      0.0307
    138  CG        20.7080   51.7330   52.1290 C.3   480  ARG480      0.0489
    139  CD        20.4100   51.6390   50.6300 C.3   480  ARG480      0.2205
    140  NE        20.1970   50.2380   50.1950 N.pl3 480  ARG480     -0.0865
    141  CZ        20.1520   49.8310   48.9270 C.cat 480  ARG480      0.5346
    142  NH1       20.2750   50.6820   47.9260 N.pl3 480  ARG480      0.1354
    143  NH2       19.9180   48.5530   48.6520 N.pl3 480  ARG480      0.1354
    144  N         24.5250   48.0100   55.1060 N.3   482  ARG482     -0.1245
    145  CA        24.9720   46.6380   54.9050 C.3   482  ARG482      0.1563
    146  C         26.4860   46.5900   55.0290 C.2   482  ARG482      0.2260
    147  O         27.1430   47.6440   55.0150 O.2   482  ARG482     -0.2867
    148  CB        24.5850   46.0830   53.5090 C.3   482  ARG482      0.0307
    149  CG        24.9820   46.9190   52.3150 C.3   482  ARG482      0.0489
    150  CD        24.8210   46.1670   50.9920 C.3   482  ARG482      0.2205
    151  NE        23.3850   45.8660   50.7390 N.pl3 482  ARG482     -0.0865
    152  CZ        22.7570   45.9120   49.5660 C.cat 482  ARG482      0.5346
    153  NH1       23.3710   46.2520   48.4230 N.pl3 482  ARG482      0.1354
    154  NH2       21.4430   45.6000   49.5330 N.pl3 482  ARG482      0.1354
    155  N         36.2230   49.1430   47.3690 N.3   487  TRP487     -0.1241
    156  CA        35.8180   49.2660   45.9520 C.3   487  TRP487      0.1605
    157  C         37.0410   49.3640   44.9530 C.2   487  TRP487      0.2264
    158  O         37.0460   50.1880   44.0400 O.2   487  TRP487     -0.2867
    159  CB        34.7100   50.3130   45.8100 C.3   487  TRP487      0.0550
    160  CG        33.3440   49.7630   46.3190 C.ar  487  TRP487      0.0003
    161  CD1       32.9750   49.5130   47.6260 C.ar  487  TRP487      0.0946
    162  CD2       32.2200   49.3870   45.5150 C.ar  487  TRP487      0.0152
    163  NE1       31.6800   49.0150   47.6770 N.ar  487  TRP487     -0.2442
    164  CE2       31.1970   48.9190   46.3980 C.ar  487  TRP487      0.0810
    165  CE3       31.9730   49.3900   44.1270 C.ar  487  TRP487      0.0012
    166  CZ2       29.9400   48.4640   45.9310 C.ar  487  TRP487      0.0191
    167  CZ3       30.7150   48.9430   43.6630 C.ar  487  TRP487      0.0001
    168  CH2       29.7240   48.4730   44.5720 C.ar  487  TRP487      0.0015
    169  N         35.1610   47.7810   40.3140 N.3   491  LYS491     -0.1231
    170  CA        34.6350   48.9960   40.9560 C.3   491  LYS491      0.1693
    171  C         33.2900   49.5120   40.4160 C.2   491  LYS491      0.2592
    172  O         32.7460   50.4610   40.9610 O.2   491  LYS491     -0.2718
    173  CB        35.6840   50.1360   40.9710 C.3   491  LYS491      0.0285
    174  CG        36.3480   50.5050   39.6430 C.3   491  LYS491      0.0035
    175  CD        37.8030   50.0230   39.5500 C.3   491  LYS491      0.0206
    176  CE        38.8010   51.0220   40.1200 C.3   491  LYS491      0.1093
    177  NZ        38.6920   51.1560   41.5940 N.3   491  LYS491     -0.1314
    178  N         32.7440   48.8670   39.3860 N.am  492  PHE492     -0.1976
    179  CA        31.5490   49.3280   38.7080 C.3   492  PHE492      0.1639
    180  C         30.3730   48.3090   38.6930 C.2   492  PHE492      0.2290
    181  O         29.5510   48.3030   37.7750 O.2   492  PHE492     -0.2864
    182  CB        31.9660   49.6710   37.2930 C.3   492  PHE492      0.0560
    183  CG        33.0690   50.7020   37.2200 C.ar  492  PHE492     -0.0200
    184  CD1       32.8930   51.9860   37.7840 C.ar  492  PHE492     -0.0042
    185  CD2       34.2870   50.4090   36.5710 C.ar  492  PHE492     -0.0042
    186  CE1       33.9100   52.9440   37.7060 C.ar  492  PHE492     -0.0003
    187  CE2       35.3060   51.3730   36.4980 C.ar  492  PHE492     -0.0003
    188  CZ        35.1160   52.6330   37.0630 C.ar  492  PHE492     -0.0000
    189  N         28.0700   45.1030   41.3290 N.3   494  GLY494     -0.1210
    190  CA        27.8420   44.4810   42.6120 C.3   494  GLY494      0.1956
    191  C         28.6950   43.2130   42.6500 C.2   494  GLY494      0.2611
    192  O         29.6090   43.0250   41.8480 O.2   494  GLY494     -0.2717
    193  N         28.3700   42.3500   43.5770 N.am  495  TYR495     -0.1976
    194  CA        29.1260   41.1110   43.8040 C.3   495  TYR495      0.1639
    195  C         29.0000   40.1540   42.5960 C.2   495  TYR495      0.2290
    196  O         28.0070   40.1980   41.8510 O.2   495  TYR495     -0.2864
    197  CB        28.7010   40.5160   45.1590 C.3   495  TYR495      0.0560
    198  CG        27.2220   40.1790   45.2550 C.ar  495  TYR495     -0.0198
    199  CD1       26.2640   41.1820   45.5590 C.ar  495  TYR495     -0.0009
    200  CD2       26.7600   38.9000   44.9940 C.ar  495  TYR495     -0.0009
    201  CE1       24.9320   40.8910   45.6310 C.ar  495  TYR495      0.0417
    202  CE2       25.3900   38.6130   45.0730 C.ar  495  TYR495      0.0417
    203  CZ        24.4930   39.6170   45.3870 C.ar  495  TYR495      0.1957
    204  OH        23.1170   39.4220   45.4360 O.3   495  TYR495     -0.2866
    205  N         22.2260   37.6500   41.2640 N.3   499  HIS499     -0.1241
    206  CA        21.0340   37.2240   40.5100 C.3   499  HIS499      0.1621
    207  C         21.2760   35.9490   39.6540 C.2   499  HIS499      0.2264
    208  O         20.5320   35.6620   38.6950 O.2   499  HIS499     -0.2867
    209  CB        20.4670   38.3670   39.6270 C.3   499  HIS499      0.0745
    210  CG        19.7190   39.4470   40.3760 C.ar  499  HIS499      0.0817
    211  ND1       19.0680   40.4550   39.6990 N.ar  499  HIS499     -0.2268
    212  CD2       19.4610   39.6770   41.6980 C.ar  499  HIS499      0.1154
    213  CE1       18.4390   41.2460   40.5490 C.ar  499  HIS499      0.1986
    214  NE2       18.6350   40.7890   41.7680 N.ar  499  HIS499     -0.2212
    215  N         20.6280   56.4170   35.3220 N.3   644  ASN644     -0.1225
    216  CA        21.0380   55.2610   36.1110 C.3   644  ASN644      0.1785
    217  C         20.2100   55.1880   37.3910 C.2   644  ASN644      0.2597
    218  O         20.5400   55.8650   38.3670 O.2   644  ASN644     -0.2718
    219  CB        22.5350   55.3720   36.5190 C.3   644  ASN644      0.1169
    220  CG        22.9790   54.2360   37.4370 C.2   644  ASN644      0.2627
    221  OD1       22.2830   53.2290   37.5900 O.2   644  ASN644     -0.2716
    222  ND2       24.1520   54.3850   38.0280 N.am  644  ASN644     -0.0877
    223  N         19.1740   54.3410   37.3980 N.am  645  LYS645     -0.1966
    224  CA        18.2530   54.2260   38.5400 C.3   645  LYS645      0.1728
    225  C         18.9360   53.9170   39.8620 C.2   645  LYS645      0.2616
    226  O         18.4290   54.3180   40.9260 O.2   645  LYS645     -0.2715
    227  CB        17.1830   53.1280   38.2320 C.3   645  LYS645      0.0311
    228  CG        16.0090   53.0700   39.2170 C.3   645  LYS645      0.0038
    229  CD        14.9700   52.0260   38.8160 C.3   645  LYS645      0.0206
    230  CE        13.6670   52.1700   39.5740 C.3   645  LYS645      0.1093
    231  NZ        12.6540   51.1420   39.2310 N.3   645  LYS645     -0.1314
    232  N         20.0970   53.2360   39.8460 N.am  646  TYR646     -0.1974
    233  CA        20.8330   52.9690   41.1300 C.3   646  TYR646      0.1639
    234  C         21.4310   54.1700   41.8140 C.2   646  TYR646      0.2290
    235  O         21.5880   54.1600   43.0540 O.2   646  TYR646     -0.2864
    236  CB        21.9520   51.9290   40.9480 C.3   646  TYR646      0.0560
    237  CG        21.5160   50.5260   40.5190 C.ar  646  TYR646     -0.0198
    238  CD1       20.3820   49.8980   41.1070 C.ar  646  TYR646     -0.0009
    239  CD2       22.2510   49.7980   39.5520 C.ar  646  TYR646     -0.0009
    240  CE1       20.0010   48.5890   40.7400 C.ar  646  TYR646      0.0417
    241  CE2       21.8930   48.4870   39.2030 C.ar  646  TYR646      0.0417
    242  CZ        20.7580   47.8880   39.7950 C.ar  646  TYR646      0.1957
    243  OH        20.3970   46.6170   39.3930 O.3   646  TYR646     -0.2866
@<TRIPOS>BOND
     1    24    23    2
     2    23    22    1
     3    22    25    1
     4    22    21    1
     5    25    26    2
     6    13    12    2
     7     9     8    1
     8    26    27    1
     9     6     5    1
    10     6     7    1
    11    27    28    1
    12    35    34    2
    13    38    39    2
    14    38    37    1
    15     5     2    1
    16     8     7    1
    17    21    12   am
    18    12    11    1
    19    37    36    1
    20    37    40    1
    21    44    45    1
    22    28    29    2
    23   215   216    1
    24    34    36   am
    25    34    33    1
    26    32    33    1
    27     2     1    1
    28     2     3    1
    29    45    46    1
    30    45    48    1
    31    19    17   ar
    32    19    20   ar
    33    51    49    1
    34    40    41    1
    35    17    15   ar
    36    11    10    1
    37    11    14    1
    38    42    41    2
    39     3     4    2
    40   216   219    1
    41   216   217    1
    42    46    47    2
    43   187   185   ar
    44   187   188   ar
    45   219   220    1
    46    29    30    1
    47    29    31    1
    48   185   183   ar
    49    15    14    1
    50    15    16   ar
    51    20    18   ar
    52    41    43   am
    53    49    48    1
    54    49    50    1
    55   188   186   ar
    56   183   182    1
    57   183   184   ar
    58    18    16   ar
    59   182   179    1
    60   217   223   am
    61   217   218    2
    62   223   224    1
    63   220   221    2
    64   220   222   am
    65   186   184   ar
    66   181   180    2
    67   227   224    1
    68   227   228    1
    69   224   225    1
    70   180   179    1
    71   208   207    2
    72   179   178    1
    73   229   228    1
    74   229   230    1
    75   241   239   ar
    76   241   242   ar
    77   231   230    1
    78    63    62    2
    79   178   171   am
    80   243   242    1
    81   175   174    1
    82   175   176    1
    83   239   237   ar
    84   209   210    1
    85   209   206    1
    86   174   173    1
    87   207   206    1
    88   211   210   ar
    89   211   213   ar
    90   242   240   ar
    91   232   225   am
    92   232   233    1
    93   225   226    2
    94    70    69    1
    95    70    71    1
    96   176   177    1
    97   169   170    1
    98   210   212   ar
    99    62    61    1
   100   171   170    1
   101   171   172    2
   102   206   205    1
   103   237   236    1
   104   237   238   ar
   105   213   214   ar
   106   240   238   ar
   107   236   233    1
   108   170   173    1
   109   233   234    1
   110    72    71    2
   111    71    73   am
   112   189   190    1
   113    64    61    1
   114    64    65    1
   115   212   214   ar
   116    61    60    1
   117   234   235    2
   118   192   191    2
   119   196   195    2
   120    67    66   ar
   121    73    74    1
   122   195   194    1
   123   190   191    1
   124   191   193   am
   125   122   121    1
   126   122   123    1
   127    65    66    1
   128    66    68   ar
   129   121   117   am
   130   119   120    1
   131   119   116    1
   132    78    79    1
   133    78    77    1
   134    78    80    1
   135   117   118    2
   136   117   116    1
   137   193   194    1
   138   167   165   ar
   139   167   168   ar
   140    74    77    1
   141    74    75    1
   142   194   197    1
   143    75    76    2
   144   116   115    1
   145   123   124    2
   146   123   125   am
   147   158   157    2
   148   165   162   ar
   149   168   166   ar
   150    59    57   ar
   151   125   126    1
   152   157   156    1
   153   200   202   ar
   154   200   198   ar
   155   202   203   ar
   156   197   198    1
   157   198   199   ar
   158   203   204    1
   159   203   201   ar
   160   162   160   ar
   161   162   164   ar
   162   199   201   ar
   163   159   156    1
   164   159   160    1
   165    57    56    1
   166    57    58   ar
   167   166   164   ar
   168   156   155    1
   169   126   127    1
   170   126   129    1
   171   160   161   ar
   172    56    53    1
   173   164   163   ar
   174   128   127    2
   175    55    54    2
   176   129   130    1
   177   132   130   am
   178   161   163   ar
   179    54    53    1
   180   130   131    2
   181   102   101   ar
   182    53    52    1
   183    88    86   ar
   184   114   112    1
   185   142   141    1
   186   113   112    1
   187    98    97    2
   188   101   103   ar
   189   101   100    1
   190   153   152    1
   191   112   111    2
   192    99   100    2
   193    99    96    1
   194   143   141    1
   195   141   140    2
   196    94    93    1
   197    86    87   ar
   198    86    85    1
   199    97    96    1
   200    96    95    1
   201   111   110    1
   202   154   152    1
   203   152   151    2
   204    93    90    1
   205    85    82    1
   206   140   139    1
   207   110   109    1
   208   139   138    1
   209   151   150    1
   210   150   149    1
   211    89    90    1
   212    89    83   am
   213    90    91    1
   214    82    83    1
   215    82    81    1
   216   109   108    1
   217    83    84    2
   218   138   137    1
   219   149   148    1
   220    91    92    2
   221   108   105    1
   222   137   134    1
   223   148   145    1
   224   105   106    1
   225   105   104    1
   226   106   107    2
   227   134   133    1
   228   134   135    1
   229   145   146    1
   230   145   144    1
   231   135   136    2
   232   147   146    2
