@<TRIPOS>MOLECULE
tmp/6h7yA02.pdb
 78 72 0 0 0
SMALL
GASTEIGER

@<TRIPOS>ATOM
      1  N         10.4890   32.4230   43.8900 N.3    29  LEU29      -0.1245
      2  CA        10.1450   33.3750   42.8640 C.3    29  LEU29       0.1561
      3  C          8.7770   33.9720   43.0960 C.2    29  LEU29       0.2260
      4  O          7.8230   33.2790   43.4490 O.2    29  LEU29      -0.2867
      5  CB        10.1990   32.7180   41.4530 C.3    29  LEU29       0.0270
      6  CG        10.0120   33.5850   40.1680 C.3    29  LEU29       0.0019
      7  CD1       11.2150   34.4470   40.0240 C.3    29  LEU29       0.0001
      8  CD2        9.9510   32.6120   38.9050 C.3    29  LEU29       0.0001
      9  N          5.1120   35.1630   42.8310 N.3    31  GLY31      -0.1210
     10  CA         3.9580   34.6150   42.1920 C.3    31  GLY31       0.1956
     11  C          3.9000   33.1020   42.2130 C.2    31  GLY31       0.2612
     12  O          2.9200   32.5370   41.7360 O.2    31  GLY31      -0.2717
     13  N          4.8960   32.4260   42.7570 N.am   32  THR32      -0.1952
     14  CA         4.8830   30.9640   42.8170 C.3    32  THR32       0.1897
     15  C          4.3310   30.4360   44.1280 C.2    32  THR32       0.2313
     16  O          4.3440   31.1130   45.1390 O.2    32  THR32      -0.2863
     17  CB         6.3050   30.3650   42.5730 C.3    32  THR32       0.1794
     18  OG1        7.2120   30.7560   43.5860 O.3    32  THR32      -0.2208
     19  CG2        6.8520   30.7290   41.2390 C.3    32  THR32       0.0378
     20  N          7.2250   35.7090   32.8390 N.3    65  TYR65      -0.1228
     21  CA         7.8960   34.4320   32.9750 C.3    65  TYR65       0.1721
     22  C          8.2370   33.8380   31.5910 C.2    65  TYR65       0.2437
     23  O          7.4730   33.9850   30.6540 O.2    65  TYR65      -0.2733
     24  CB         6.9830   33.4190   33.6730 C.3    65  TYR65       0.0547
     25  CG         6.4540   33.7950   35.0410 C.ar   65  TYR65      -0.0200
     26  CD1        7.2490   33.6860   36.1700 C.ar   65  TYR65      -0.0009
     27  CD2        5.1260   34.2380   35.1920 C.ar   65  TYR65      -0.0009
     28  CE1        6.7640   34.0010   37.4230 C.ar   65  TYR65       0.0417
     29  CE2        4.6320   34.5390   36.4420 C.ar   65  TYR65       0.0417
     30  CZ         5.4340   34.4150   37.5620 C.ar   65  TYR65       0.1957
     31  OH         4.9240   34.6660   38.8200 O.3    65  TYR65      -0.2866
     32  N          9.3210   33.0680   31.5080 N.am   66  PRO66      -0.2729
     33  CA         9.5800   32.3220   30.2470 C.3    66  PRO66       0.1401
     34  C          8.5250   31.2530   29.9660 C.2    66  PRO66       0.2269
     35  O          7.8430   30.8100   30.8780 O.2    66  PRO66      -0.2865
     36  CB        10.9630   31.6340   30.4990 C.3    66  PRO66       0.0296
     37  CG        11.4810   32.1910   31.7600 C.3    66  PRO66       0.0237
     38  CD        10.3710   32.8490   32.5270 C.3    66  PRO66       0.0939
     39  N          7.8640   27.5860   29.4150 N.3    68  LYS68      -0.1245
     40  CA         8.4320   26.2470   29.7380 C.3    68  LYS68       0.1561
     41  C          8.6660   25.3290   28.5310 C.2    68  LYS68       0.2260
     42  O          9.7070   24.6650   28.4100 O.2    68  LYS68      -0.2867
     43  CB         7.5160   25.5180   30.7280 C.3    68  LYS68       0.0271
     44  CG         7.7050   25.9950   32.1590 C.3    68  LYS68       0.0035
     45  CD         6.4090   26.0110   32.9690 C.3    68  LYS68       0.0206
     46  CE         6.4190   27.1900   33.9410 C.3    68  LYS68       0.1093
     47  NZ         5.1940   27.2890   34.7770 N.3    68  LYS68      -0.1314
     48  N         11.9400   23.6540   39.3550 N.3   102  ASP102     -0.1239
     49  CA        11.4490   25.0000   39.2230 C.3   102  ASP102      0.1674
     50  C         12.5270   26.0670   39.3600 C.2   102  ASP102      0.2266
     51  O         12.2030   27.1510   39.8200 O.2   102  ASP102     -0.2867
     52  CB        10.2790   25.2920   40.1980 C.3   102  ASP102      0.1410
     53  CG         9.0590   24.3700   40.0000 C.2   102  ASP102      0.3668
     54  OD1        8.7600   23.9420   38.8650 O.co2 102  ASP102     -0.2456
     55  OD2        8.3660   24.1060   41.0070 O.co2 102  ASP102     -0.2456
     56  N         14.0220   28.9460   37.6520 N.3   104  VAL104     -0.1245
     57  CA        13.6760   29.6840   36.4330 C.3   104  VAL104      0.1561
     58  C         14.9600   29.8850   35.5780 C.2   104  VAL104      0.2260
     59  O         15.9730   30.3500   36.0830 O.2   104  VAL104     -0.2867
     60  CB        12.9160   31.0310   36.7540 C.3   104  VAL104      0.0252
     61  CG1       13.8610   32.1060   37.2930 C.3   104  VAL104      0.0019
     62  CG2       12.1790   31.4840   35.4980 C.3   104  VAL104      0.0019
     63  N          1.9180   38.2280   32.6870 N.3   297  GLU297     -0.1245
     64  CA         0.7300   37.6320   33.2710 C.3   297  GLU297      0.1567
     65  C          0.3740   38.3210   34.5690 C.2   297  GLU297      0.2260
     66  O          1.2340   38.4830   35.4240 O.2   297  GLU297     -0.2867
     67  CB         0.9820   36.1660   33.6150 C.3   297  GLU297      0.0388
     68  CG         1.3790   35.3080   32.4460 C.3   297  GLU297      0.1160
     69  CD         1.2260   33.8300   32.7430 C.2   297  GLU297      0.3649
     70  OE1        1.3120   33.4370   33.9260 O.co2 297  GLU297     -0.2457
     71  OE2        1.0120   33.0730   31.7780 O.co2 297  GLU297     -0.2457
     72  N         -0.7220   38.3150   38.1710 N.3   299  THR299     -0.1218
     73  CA        -0.4230   37.2300   39.1160 C.3   299  THR299      0.1862
     74  C         -0.5270   37.7560   40.5440 C.2   299  THR299      0.2287
     75  O         -0.1430   38.9210   40.8160 O.2   299  THR299     -0.2866
     76  CB         1.0010   36.6760   38.8870 C.3   299  THR299      0.1770
     77  OG1        1.1650   36.2990   37.4960 O.3   299  THR299     -0.2211
     78  CG2        1.2980   35.4420   39.7530 C.3   299  THR299      0.0375
@<TRIPOS>BOND
     1    42    41    2
     2    41    40    1
     3    39    40    1
     4    40    43    1
     5    34    33    1
     6    34    35    2
     7    33    36    1
     8    33    32    1
     9    36    37    1
    10    23    22    2
    11    43    44    1
    12    32    22   am
    13    32    38    1
    14    22    21    1
    15    37    38    1
    16    71    69   ar
    17    44    45    1
    18    68    69    1
    19    68    67    1
    20    63    64    1
    21    69    70   ar
    22    20    21    1
    23    45    46    1
    24    21    24    1
    25    64    67    1
    26    64    65    1
    27    24    25    1
    28    46    47    1
    29    65    66    2
    30    25    27   ar
    31    25    26   ar
    32    27    29   ar
    33    62    60    1
    34    58    59    2
    35    58    57    1
    36    26    28   ar
    37    57    60    1
    38    57    56    1
    39    29    30   ar
    40    60    61    1
    41    28    30   ar
    42    77    76    1
    43    30    31    1
    44    72    73    1
    45    54    53   ar
    46    76    73    1
    47    76    78    1
    48     8     6    1
    49    73    74    1
    50    49    48    1
    51    49    50    1
    52    49    52    1
    53    50    51    2
    54    53    52    1
    55    53    55   ar
    56     7     6    1
    57     6     5    1
    58    74    75    2
    59    19    17    1
    60     5     2    1
    61    12    11    2
    62    10    11    1
    63    10     9    1
    64    11    13   am
    65    17    14    1
    66    17    18    1
    67    13    14    1
    68    14    15    1
    69     2     3    1
    70     2     1    1
    71     3     4    2
    72    15    16    2
