@<TRIPOS>MOLECULE
tmp/6h8rA00.pdb
 98 90 0 0 0
SMALL
GASTEIGER

@<TRIPOS>ATOM
      1  N        -28.7350    1.5530   14.4150 N.3    91  GLU91      -0.1245
      2  CA       -28.0530    2.5500   13.5890 C.3    91  GLU91       0.1567
      3  C        -27.1030    1.8680   12.6020 C.2    91  GLU91       0.2260
      4  O        -26.2770    1.0470   13.0070 O.2    91  GLU91      -0.2867
      5  CB       -27.2970    3.5670   14.4570 C.3    91  GLU91       0.0388
      6  CG       -26.7310    4.7270   13.6500 C.3    91  GLU91       0.1160
      7  CD       -25.8590    5.6970   14.4210 C.2    91  GLU91       0.3649
      8  OE1      -25.5200    6.7650   13.8610 O.co2  91  GLU91      -0.2457
      9  OE2      -25.5220    5.3980   15.5890 O.co2  91  GLU91      -0.2457
     10  N        -22.2400    1.4930   12.1800 N.3    94  VAL94      -0.1231
     11  CA       -21.5270    2.0720   13.3290 C.3    94  VAL94       0.1692
     12  C        -20.1060    1.4770   13.3790 C.2    94  VAL94       0.2592
     13  O        -19.1420    2.1970   13.6530 O.2    94  VAL94      -0.2718
     14  CB       -22.3250    1.9250   14.6590 C.3    94  VAL94       0.0266
     15  CG1      -21.5330    2.4480   15.8570 C.3    94  VAL94       0.0020
     16  CG2      -23.6630    2.6560   14.5690 C.3    94  VAL94       0.0020
     17  N        -19.9830    0.1860   13.0230 N.am   95  TYR95      -0.1976
     18  CA       -18.7090   -0.5260   13.0050 C.3    95  TYR95       0.1639
     19  C        -18.5120   -1.2750   11.7050 C.2    95  TYR95       0.2290
     20  O        -19.4570   -1.5070   10.9470 O.2    95  TYR95      -0.2864
     21  CB       -18.6200   -1.5720   14.1490 C.3    95  TYR95       0.0560
     22  CG       -19.2520   -1.1560   15.4590 C.ar   95  TYR95      -0.0198
     23  CD1      -20.6070   -1.3740   15.7020 C.ar   95  TYR95      -0.0009
     24  CD2      -18.4930   -0.5690   16.4670 C.ar   95  TYR95      -0.0009
     25  CE1      -21.1960   -0.9970   16.9070 C.ar   95  TYR95       0.0417
     26  CE2      -19.0680   -0.2050   17.6860 C.ar   95  TYR95       0.0417
     27  CZ       -20.4230   -0.4070   17.8940 C.ar   95  TYR95       0.1957
     28  OH       -21.0080   -0.0380   19.0790 O.3    95  TYR95      -0.2866
     29  N        -13.2260    4.3750   23.7160 N.3   204  VAL204     -0.1231
     30  CA       -13.6230    4.3600   22.3030 C.3   204  VAL204      0.1692
     31  C        -14.9710    5.0740   22.1120 C.2   204  VAL204      0.2591
     32  O        -15.1130    5.8160   21.1410 O.2   204  VAL204     -0.2718
     33  CB       -13.5740    2.9320   21.6960 C.3   204  VAL204      0.0266
     34  CG1      -14.2770    2.8620   20.3370 C.3   204  VAL204      0.0020
     35  CG2      -12.1250    2.4520   21.5800 C.3   204  VAL204      0.0020
     36  N        -15.9280    4.8840   23.0520 N.am  205  GLU205     -0.1979
     37  CA       -17.2430    5.5570   23.0320 C.3   205  GLU205      0.1602
     38  C        -17.0480    7.0680   23.0530 C.2   205  GLU205      0.2287
     39  O        -17.7110    7.7770   22.2950 O.2   205  GLU205     -0.2864
     40  CB       -18.0720    5.1850   24.2680 C.3   205  GLU205      0.0415
     41  CG       -18.6230    3.7810   24.2740 C.3   205  GLU205      0.1163
     42  CD       -19.8340    3.6960   25.1740 C.2   205  GLU205      0.3649
     43  OE1      -20.9490    3.9270   24.6580 O.co2 205  GLU205     -0.2457
     44  OE2      -19.6710    3.4460   26.3910 O.co2 205  GLU205     -0.2457
     45  N        -15.4910    8.2320   19.7720 N.3   208  ALA208     -0.1231
     46  CA       -16.5380    8.1300   18.7480 C.3   208  ALA208      0.1694
     47  C        -17.4950    9.3210   18.8240 C.2   208  ALA208      0.2591
     48  O        -17.7830    9.9340   17.7940 O.2   208  ALA208     -0.2718
     49  CB       -17.3020    6.8240   18.8990 C.3   208  ALA208      0.0304
     50  N        -17.9410    9.6760   20.0430 N.am  209  GLN209     -0.1979
     51  CA       -18.8260   10.8270   20.2740 C.3   209  GLN209      0.1601
     52  C        -18.1500   12.1300   19.8420 C.2   209  GLN209      0.2287
     53  O        -18.7920   12.9510   19.1870 O.2   209  GLN209     -0.2864
     54  CB       -19.2680   10.8970   21.7440 C.3   209  GLN209      0.0394
     55  CG       -20.3220    9.8530   22.1360 C.3   209  GLN209      0.0908
     56  CD       -20.4350    9.6380   23.6380 C.2   209  GLN209      0.2608
     57  OE1      -20.1290   10.5110   24.4520 O.2   209  GLN209     -0.2717
     58  NE2      -20.8780    8.4630   24.0500 N.am  209  GLN209     -0.0878
     59  N        -20.7750    9.8760   12.7080 N.3   215  CYS215     -0.1235
     60  CA       -19.4160    9.3580   12.7840 C.3   215  CYS215      0.1677
     61  C        -19.2800    8.2180   11.7830 C.2   215  CYS215      0.2270
     62  O        -20.1680    7.3670   11.6980 O.2   215  CYS215     -0.2867
     63  CB       -19.1090    8.8990   14.2060 C.3   215  CYS215      0.0956
     64  SG       -17.4840    8.1360   14.4060 S.3   215  CYS215     -0.0801
     65  N        -16.3490    2.5710   12.5610 N.3   218  ILE218     -0.1245
     66  CA       -15.2060    2.2500   13.4220 C.3   218  ILE218      0.1561
     67  C        -14.7830    0.8180   13.0800 C.2   218  ILE218      0.2260
     68  O        -15.5970   -0.1020   13.1690 O.2   218  ILE218     -0.2867
     69  CB       -15.5730    2.4180   14.9250 C.3   218  ILE218      0.0252
     70  CG1      -15.9270    3.8870   15.2470 C.3   218  ILE218      0.0019
     71  CG2      -14.4540    1.8960   15.8470 C.3   218  ILE218      0.0019
     72  CD1      -16.9260    4.0660   16.4190 C.3   218  ILE218      0.0001
     73  N        -19.8690   -2.5530   23.7280 N.3   236  SER236     -0.1217
     74  CA       -20.0780   -1.1590   23.3250 C.3   236  SER236      0.1889
     75  C        -21.5610   -0.8120   23.1660 C.2   236  SER236      0.2288
     76  O        -22.0000    0.2250   23.6630 O.2   236  SER236     -0.2866
     77  CB       -19.3090   -0.8530   22.0430 C.3   236  SER236      0.2089
     78  OG       -17.9130   -1.0180   22.2350 O.3   236  SER236     -0.2183
     79  N        -24.3960    1.4480   26.0440 N.3   240  GLN240     -0.1245
     80  CA       -25.3540    2.4480   25.5820 C.3   240  GLN240      0.1566
     81  C        -26.7590    2.0430   26.0170 C.2   240  GLN240      0.2260
     82  O        -27.4840    2.8760   26.5550 O.2   240  GLN240     -0.2867
     83  CB       -25.2860    2.6090   24.0670 C.3   240  GLN240      0.0367
     84  CG       -24.0370    3.3450   23.6040 C.3   240  GLN240      0.0905
     85  CD       -23.8270    3.1630   22.1290 C.2   240  GLN240      0.2608
     86  OE1      -24.3070    3.9510   21.3160 O.2   240  GLN240     -0.2717
     87  NE2      -23.1230    2.1040   21.7560 N.am  240  GLN240     -0.0878
     88  N        -27.1490    2.6730   29.8200 N.3   243  ARG243     -0.1245
     89  CA       -27.2950    4.0940   30.1440 C.3   243  ARG243      0.1563
     90  C        -28.6680    4.6480   29.7490 C.2   243  ARG243      0.2260
     91  O        -29.2730    5.3840   30.5190 O.2   243  ARG243     -0.2867
     92  CB       -26.1870    4.9210   29.4850 C.3   243  ARG243      0.0307
     93  CG       -24.8190    4.7480   30.1340 C.3   243  ARG243      0.0489
     94  CD       -23.8430    5.8180   29.6650 C.3   243  ARG243      0.2205
     95  NE       -23.7130    5.8410   28.2040 N.pl3 243  ARG243     -0.0865
     96  CZ       -22.8640    5.1010   27.5020 C.cat 243  ARG243      0.5346
     97  NH1      -22.8180    5.2090   26.1820 N.pl3 243  ARG243      0.1354
     98  NH2      -22.0520    4.2480   28.1140 N.pl3 243  ARG243      0.1354
@<TRIPOS>BOND
     1    20    19    2
     2    62    61    2
     3    19    18    1
     4    61    60    1
     5    10    11    1
     6    65    66    1
     7     3     4    2
     8     3     2    1
     9    59    60    1
    10    60    63    1
    11    18    17    1
    12    18    21    1
    13    17    12   am
    14    67    68    2
    15    67    66    1
    16    11    12    1
    17    11    14    1
    18    12    13    2
    19    66    69    1
    20     2     1    1
    21     2     5    1
    22     6     7    1
    23     6     5    1
    24     8     7   ar
    25    21    22    1
    26    63    64    1
    27     7     9   ar
    28    16    14    1
    29    14    15    1
    30    69    70    1
    31    69    71    1
    32    70    72    1
    33    22    23   ar
    34    22    24   ar
    35    23    25   ar
    36    24    26   ar
    37    25    27   ar
    38    26    27   ar
    39    48    47    2
    40    27    28    1
    41    46    47    1
    42    46    49    1
    43    46    45    1
    44    47    50   am
    45    53    52    2
    46    52    51    1
    47    50    51    1
    48    51    54    1
    49    34    33    1
    50    32    31    2
    51    86    85    2
    52    35    33    1
    53    33    30    1
    54    54    55    1
    55    87    85   am
    56    77    78    1
    57    77    74    1
    58    31    30    1
    59    31    36   am
    60    85    84    1
    61    55    56    1
    62    39    38    2
    63    30    29    1
    64    37    36    1
    65    37    38    1
    66    37    40    1
    67    75    74    1
    68    75    76    2
    69    74    73    1
    70    84    83    1
    71    56    58   am
    72    56    57    2
    73    83    80    1
    74    40    41    1
    75    41    42    1
    76    43    42   ar
    77    42    44   ar
    78    80    81    1
    79    80    79    1
    80    81    82    2
    81    97    96    1
    82    96    98    1
    83    96    95    2
    84    95    94    1
    85    92    93    1
    86    92    89    1
    87    94    93    1
    88    90    89    1
    89    90    91    2
    90    88    89    1
