@<TRIPOS>MOLECULE
tmp/6h8sA00.pdb
 153 146 0 0 0
SMALL
GASTEIGER

@<TRIPOS>ATOM
      1  N          0.0120   10.1870   17.6710 N.3    93  GLU93      -0.1231
      2  CA         1.4660    9.9670   17.6610 C.3    93  GLU93       0.1699
      3  C          2.1360   10.9100   18.6720 C.2    93  GLU93       0.2592
      4  O          1.8640   12.1150   18.6740 O.2    93  GLU93      -0.2718
      5  CB         2.0550   10.1890   16.2630 C.3    93  GLU93       0.0402
      6  CG         3.5490    9.8910   16.1880 C.3    93  GLU93       0.1161
      7  CD         4.2590   10.3170   14.9150 C.2    93  GLU93       0.3649
      8  OE1        3.5740   10.5180   13.8890 O.co2  93  GLU93      -0.2457
      9  OE2        5.5030   10.4420   14.9380 O.co2  93  GLU93      -0.2457
     10  N          2.9850   10.3480   19.5340 N.am   94  GLU94      -0.1966
     11  CA         3.6680   11.0770   20.6020 C.3    94  GLU94       0.1733
     12  C          4.6980   12.0640   20.0860 C.2    94  GLU94       0.2616
     13  O          5.3620   11.7990   19.0790 O.2    94  GLU94      -0.2715
     14  CB         4.3900   10.0880   21.5530 C.3    94  GLU94       0.0429
     15  CG         3.4970    9.1120   22.3090 C.3    94  GLU94       0.1163
     16  CD         2.5430    9.6800   23.3460 C.2    94  GLU94       0.3649
     17  OE1        2.7780   10.8050   23.8450 O.co2  94  GLU94      -0.2457
     18  OE2        1.5540    8.9810   23.6670 O.co2  94  GLU94      -0.2457
     19  N          4.8490   13.1920   20.8160 N.am   95  LYS95      -0.1963
     20  CA         5.8790   14.2250   20.6320 C.3    95  LYS95       0.1728
     21  C          5.9970   14.7930   19.2120 C.2    95  LYS95       0.2616
     22  O          7.1070   15.0970   18.7640 O.2    95  LYS95      -0.2715
     23  CB         7.2540   13.6750   21.1020 C.3    95  LYS95       0.0311
     24  CG         7.2960   13.2610   22.5710 C.3    95  LYS95       0.0038
     25  CD         8.6930   12.8310   22.9890 C.3    95  LYS95       0.0206
     26  CE         8.8280   12.7680   24.4880 C.3    95  LYS95       0.1093
     27  NZ        10.2380   12.4890   24.8830 N.3    95  LYS95      -0.1314
     28  N          4.8700   14.9510   18.5060 N.am   96  VAL96      -0.1963
     29  CA         4.9170   15.5180   17.1480 C.3    96  VAL96       0.1727
     30  C          5.2430   17.0310   17.2420 C.2    96  VAL96       0.2616
     31  O          6.0340   17.5460   16.4470 O.2    96  VAL96      -0.2715
     32  CB         3.6460   15.1880   16.3280 C.3    96  VAL96       0.0290
     33  CG1        3.6810   15.8350   14.9340 C.3    96  VAL96       0.0023
     34  CG2        3.4920   13.6750   16.1860 C.3    96  VAL96       0.0023
     35  N          4.7080   17.7040   18.2760 N.am   97  TYR97      -0.1974
     36  CA         4.9330   19.1340   18.4980 C.3    97  TYR97       0.1639
     37  C          5.3140   19.4050   19.9470 C.2    97  TYR97       0.2290
     38  O          5.1450   18.5490   20.8100 O.2    97  TYR97      -0.2864
     39  CB         3.6480   19.9520   18.2080 C.3    97  TYR97       0.0560
     40  CG         2.9090   19.5620   16.9480 C.ar   97  TYR97      -0.0198
     41  CD1        1.9140   18.5890   16.9730 C.ar   97  TYR97      -0.0009
     42  CD2        3.1900   20.1810   15.7300 C.ar   97  TYR97      -0.0009
     43  CE1        1.2280   18.2250   15.8180 C.ar   97  TYR97       0.0417
     44  CE2        2.5060   19.8260   14.5660 C.ar   97  TYR97       0.0417
     45  CZ         1.5300   18.8430   14.6170 C.ar   97  TYR97       0.1957
     46  OH         0.8550   18.4610   13.4920 O.3    97  TYR97      -0.2866
     47  N          0.5230   26.3500    7.5680 N.3   203  VAL203     -0.1245
     48  CA         0.3280   24.9920    8.0800 C.3   203  VAL203      0.1561
     49  C          0.8100   23.9700    7.0210 C.2   203  VAL203      0.2260
     50  O          1.5900   23.0660    7.3400 O.2   203  VAL203     -0.2867
     51  CB        -1.1580   24.7830    8.4930 C.3   203  VAL203      0.0252
     52  CG1       -1.5280   23.3000    8.5720 C.3   203  VAL203      0.0019
     53  CG2       -1.4670   25.4860    9.8140 C.3   203  VAL203      0.0019
     54  N          4.6580   24.1560    6.3610 N.3   206  VAL206     -0.1231
     55  CA         5.3190   23.4750    7.4810 C.3   206  VAL206      0.1692
     56  C          5.1990   21.9420    7.3160 C.2   206  VAL206      0.2592
     57  O          6.1880   21.2330    7.4880 O.2   206  VAL206     -0.2718
     58  CB         4.8220   23.9850    8.8640 C.3   206  VAL206      0.0266
     59  CG1        5.2510   23.0520    9.9980 C.3   206  VAL206      0.0020
     60  CG2        5.3070   25.4110    9.1280 C.3   206  VAL206      0.0020
     61  N          4.0150   21.4510    6.9190 N.am  207  GLU207     -0.1966
     62  CA         3.8190   20.0190    6.6830 C.3   207  GLU207      0.1733
     63  C          4.7600   19.4790    5.5890 C.2   207  GLU207      0.2616
     64  O          5.3500   18.4080    5.7560 O.2   207  GLU207     -0.2715
     65  CB         2.3740   19.7360    6.3010 C.3   207  GLU207      0.0429
     66  CG         2.0200   18.2900    6.5420 C.3   207  GLU207      0.1163
     67  CD         0.7390   17.8180    5.9020 C.2   207  GLU207      0.3649
     68  OE1        0.7150   16.6380    5.4920 O.co2 207  GLU207     -0.2457
     69  OE2       -0.2240   18.6110    5.7900 O.co2 207  GLU207     -0.2457
     70  N          4.8990   20.2230    4.4800 N.am  208  GLU208     -0.1977
     71  CA         5.7870   19.8330    3.3860 C.3   208  GLU208      0.1602
     72  C          7.2420   19.8350    3.8340 C.2   208  GLU208      0.2287
     73  O          7.9820   18.9250    3.4670 O.2   208  GLU208     -0.2864
     74  CB         5.5390   20.6740    2.1280 C.3   208  GLU208      0.0415
     75  CG         4.1970   20.3710    1.4680 C.3   208  GLU208      0.1163
     76  CD         3.8560   18.8960    1.3250 C.2   208  GLU208      0.3649
     77  OE1        4.6150   18.1720    0.6430 O.co2 208  GLU208     -0.2457
     78  OE2        2.8440   18.4590    1.9170 O.co2 208  GLU208     -0.2457
     79  N          8.1570   19.2820    7.0000 N.3   210  ALA210     -0.1231
     80  CA         8.2640   18.1440    7.9190 C.3   210  ALA210      0.1694
     81  C          8.4220   16.8320    7.1370 C.2   210  ALA210      0.2591
     82  O          9.2250   15.9820    7.5240 O.2   210  ALA210     -0.2718
     83  CB         7.0540   18.0790    8.8390 C.3   210  ALA210      0.0304
     84  N          7.7050   16.7000    6.0020 N.am  211  GLN211     -0.1979
     85  CA         7.7980   15.5390    5.1110 C.3   211  GLN211      0.1601
     86  C          9.2640   15.3570    4.6600 C.2   211  GLN211      0.2287
     87  O          9.7660   14.2320    4.6310 O.2   211  GLN211     -0.2864
     88  CB         6.8590   15.7220    3.9020 C.3   211  GLN211      0.0394
     89  CG         6.5830   14.4400    3.1100 C.3   211  GLN211      0.0908
     90  CD         7.6120   14.1300    2.0410 C.2   211  GLN211      0.2608
     91  OE1        8.3390   15.0060    1.5420 O.2   211  GLN211     -0.2717
     92  NE2        7.6880   12.8660    1.6530 N.am  211  GLN211     -0.0878
     93  N         10.2960    9.7260   11.3670 N.3   216  HIS216     -0.1226
     94  CA        10.8440   10.0300   12.6950 C.3   216  HIS216      0.1752
     95  C         11.2290   11.5290   12.8640 C.2   216  HIS216      0.2596
     96  O         12.1520   11.8440   13.6300 O.2   216  HIS216     -0.2718
     97  CB        12.0080    9.0820   13.0700 C.3   216  HIS216      0.0759
     98  CG        11.6950    7.6280   12.8830 C.ar  216  HIS216      0.0818
     99  ND1       12.1420    6.9300   11.7720 N.ar  216  HIS216     -0.2268
    100  CD2       10.9810    6.7880   13.6680 C.ar  216  HIS216      0.1154
    101  CE1       11.6990    5.6920   11.9240 C.ar  216  HIS216      0.1986
    102  NE2       10.9910    5.5600   13.0470 N.ar  216  HIS216     -0.2212
    103  N         10.4830   12.4480   12.1920 N.am  217  CYS217     -0.1970
    104  CA        10.6580   13.9080   12.2910 C.3   217  CYS217      0.1712
    105  C         10.5920   14.3040   13.7680 C.2   217  CYS217      0.2296
    106  O          9.6220   13.9600   14.4470 O.2   217  CYS217     -0.2864
    107  CB         9.5960   14.6390   11.4690 C.3   217  CYS217      0.0983
    108  SG         9.6860   16.4510   11.5530 S.3   217  CYS217     -0.0798
    109  N          8.2850   19.6100   16.4830 N.3   220  ILE220     -0.1245
    110  CA         8.1610   20.9310   15.8630 C.3   220  ILE220      0.1561
    111  C          7.7260   21.8980   16.9630 C.2   220  ILE220      0.2260
    112  O          6.6510   21.7180   17.5490 O.2   220  ILE220     -0.2867
    113  CB         7.1680   20.9020   14.6660 C.3   220  ILE220      0.0252
    114  CG1        7.7070   20.0270   13.5080 C.3   220  ILE220      0.0019
    115  CG2        6.7980   22.3340   14.1930 C.3   220  ILE220      0.0019
    116  CD1        6.6660   19.6780   12.3720 C.3   220  ILE220      0.0001
    117  N         -3.0040   21.7400   11.6670 N.3   238  SER238     -0.1217
    118  CA        -1.9620   20.8220   11.1950 C.3   238  SER238      0.1889
    119  C         -2.4030   19.3660   11.2740 C.2   238  SER238      0.2288
    120  O         -2.2310   18.6260   10.3050 O.2   238  SER238     -0.2866
    121  CB        -0.6670   21.0370   11.9720 C.3   238  SER238      0.2089
    122  OG        -0.1690   22.3500   11.7820 O.3   238  SER238     -0.2183
    123  N         -4.1620   16.5750    7.9460 N.3   242  GLN242     -0.1245
    124  CA        -3.7790   15.1840    7.7370 C.3   242  GLN242      0.1566
    125  C         -4.9980   14.2660    7.8100 C.2   242  GLN242      0.2260
    126  O         -5.1410   13.3810    6.9660 O.2   242  GLN242     -0.2867
    127  CB        -2.7130   14.7670    8.7500 C.3   242  GLN242      0.0367
    128  CG        -1.3690   15.4290    8.4870 C.3   242  GLN242      0.0905
    129  CD        -0.4840   15.3610    9.6920 C.2   242  GLN242      0.2608
    130  OE1       -0.3970   16.3150   10.4680 O.2   242  GLN242     -0.2717
    131  NE2        0.1800   14.2280    9.8760 N.am  242  GLN242     -0.0878
    132  N         -7.2110   14.8590    4.6040 N.3   245  ARG245     -0.1231
    133  CA        -6.5130   14.3150    3.4480 C.3   245  ARG245      0.1694
    134  C         -6.5120   12.7770    3.4300 C.2   245  ARG245      0.2591
    135  O         -6.7970   12.2070    2.3820 O.2   245  ARG245     -0.2718
    136  CB        -5.1010   14.9020    3.3940 C.3   245  ARG245      0.0321
    137  CG        -4.3910   14.8300    2.0600 C.3   245  ARG245      0.0489
    138  CD        -3.0440   15.5140    2.1770 C.3   245  ARG245      0.2205
    139  NE        -2.2580   14.9330    3.2610 N.pl3 245  ARG245     -0.0865
    140  CZ        -1.9290   15.5510    4.3920 C.cat 245  ARG245      0.5346
    141  NH1       -1.2520   14.9060    5.3270 N.pl3 245  ARG245      0.1354
    142  NH2       -2.2740   16.8250    4.5930 N.pl3 245  ARG245      0.1354
    143  N         -6.2850   12.1140    4.5870 N.am  246  ARG246     -0.1980
    144  CA        -6.2170   10.6430    4.6980 C.3   246  ARG246      0.1597
    145  C         -7.5540    9.9040    4.9700 C.2   246  ARG246      0.2287
    146  O         -7.6910    8.7480    4.5620 O.2   246  ARG246     -0.2864
    147  CB        -5.1890   10.2250    5.7620 C.3   246  ARG246      0.0334
    148  CG        -3.7510   10.6550    5.4570 C.3   246  ARG246      0.0492
    149  CD        -2.7660   10.1820    6.5080 C.3   246  ARG246      0.2205
    150  NE        -2.5230    8.7410    6.4140 N.pl3 246  ARG246     -0.0865
    151  CZ        -1.5850    8.0890    7.0950 C.cat 246  ARG246      0.5346
    152  NH1       -0.7840    8.7420    7.9280 N.pl3 246  ARG246      0.1354
    153  NH2       -1.4380    6.7800    6.9420 N.pl3 246  ARG246      0.1354
@<TRIPOS>BOND
     1    77    76   ar
     2    76    75    1
     3    76    78   ar
     4    75    74    1
     5    91    90    2
     6    92    90   am
     7    90    89    1
     8   137   138    1
     9   137   136    1
    10    74    71    1
    11   138   139    1
    12   135   134    2
    13    89    88    1
    14   139   140    2
    15    71    72    1
    16    71    70    1
    17   136   133    1
    18   134   133    1
    19   134   143   am
    20   133   132    1
    21    73    72    2
    22    88    85    1
    23   140   142    1
    24   140   141    1
    25    70    63   am
    26   146   145    2
    27   143   144    1
    28    87    86    2
    29    86    85    1
    30   144   145    1
    31   144   147    1
    32    85    84    1
    33   148   147    1
    34   148   149    1
    35    68    67   ar
    36    63    64    2
    37    63    62    1
    38    69    67   ar
    39    67    66    1
    40    84    81   am
    41    65    66    1
    42    65    62    1
    43    54    55    1
    44   150   149    1
    45   150   151    2
    46    62    61    1
    47    61    56   am
    48   153   151    1
    49   126   125    2
    50    79    80    1
    51    49    50    2
    52    49    48    1
    53   151   152    1
    54    81    82    2
    55    81    80    1
    56    56    55    1
    57    56    57    2
    58    55    58    1
    59    47    48    1
    60   124   125    1
    61   124   123    1
    62   124   127    1
    63    80    83    1
    64    48    51    1
    65   128   127    1
    66   128   129    1
    67    51    52    1
    68    51    53    1
    69    58    60    1
    70    58    59    1
    71   129   131   am
    72   129   130    2
    73   120   119    2
    74   118   119    1
    75   118   117    1
    76   118   121    1
    77    93    94    1
    78   107   108    1
    79   107   104    1
    80    99   101   ar
    81    99    98   ar
    82   122   121    1
    83   101   102   ar
    84   103   104    1
    85   103    95   am
    86   104   105    1
    87   116   114    1
    88    94    95    1
    89    94    97    1
    90    95    96    2
    91    98    97    1
    92    98   100   ar
    93   102   100   ar
    94    46    45    1
    95   114   113    1
    96   105   106    2
    97     8     7   ar
    98   115   113    1
    99    44    45   ar
   100    44    42   ar
   101    45    43   ar
   102   113   110    1
   103     7     9   ar
   104     7     6    1
   105    33    32    1
   106    42    40   ar
   107    43    41   ar
   108   110   109    1
   109   110   111    1
   110    34    32    1
   111     6     5    1
   112     5     2    1
   113    32    29    1
   114    31    30    2
   115    40    41   ar
   116    40    39    1
   117   111   112    2
   118    29    30    1
   119    29    28    1
   120    30    35   am
   121     2     1    1
   122     2     3    1
   123    39    36    1
   124    35    36    1
   125    36    37    1
   126    28    21   am
   127     3     4    2
   128     3    10   am
   129    22    21    2
   130    13    12    2
   131    21    20    1
   132    10    11    1
   133    37    38    2
   134    12    11    1
   135    12    19   am
   136    11    14    1
   137    20    19    1
   138    20    23    1
   139    23    24    1
   140    14    15    1
   141    15    16    1
   142    24    25    1
   143    25    26    1
   144    16    18   ar
   145    16    17   ar
   146    26    27    1
