@<TRIPOS>MOLECULE
tmp/6h8tB00.pdb
 91 90 0 0 0
SMALL
GASTEIGER

@<TRIPOS>ATOM
      1  N        -38.4980   -9.2290  -20.8010 N.3    19  GLN19      -0.1245
      2  CA       -38.3320   -7.7930  -20.5910 C.3    19  GLN19       0.1566
      3  C        -39.3290   -6.9400  -21.3750 C.2    19  GLN19       0.2260
      4  O        -39.4900   -5.7560  -21.0630 O.2    19  GLN19      -0.2867
      5  CB       -36.9070   -7.3800  -20.9560 C.3    19  GLN19       0.0367
      6  CG       -36.5440   -7.6860  -22.3720 C.3    19  GLN19       0.0905
      7  CD       -35.1050   -7.3090  -22.6650 C.2    19  GLN19       0.2608
      8  OE1      -34.1920   -8.1080  -22.4450 O.2    19  GLN19      -0.2717
      9  NE2      -34.8980   -6.0780  -23.1520 N.am   19  GLN19      -0.0878
     10  N        -35.7240   -1.4570  -23.1760 N.3    23  GLY23      -0.1225
     11  CA       -34.3090   -1.7730  -23.3250 C.3    23  GLY23       0.1811
     12  C        -33.6160   -2.0630  -22.0150 C.2    23  GLY23       0.2280
     13  O        -32.5810   -1.4670  -21.6790 O.2    23  GLY23      -0.2866
     14  N        -32.3630   -5.0250  -20.7700 N.3    25  CYS25      -0.1221
     15  CA       -31.4790   -6.2270  -20.7090 C.3    25  CYS25       0.1808
     16  C        -30.4780   -6.1270  -19.6350 C.2    25  CYS25       0.2601
     17  O        -30.3130   -7.0340  -18.8780 O.2    25  CYS25      -0.2717
     18  CB       -30.8490   -6.4130  -22.0850 C.3    25  CYS25       0.0970
     19  SG       -29.5630   -5.3050  -22.6380 S.3    25  CYS25      -0.0800
     20  N        -29.8290   -4.9670  -19.5300 N.am   26  TRP26      -0.1976
     21  CA       -28.7910   -4.7610  -18.5220 C.3    26  TRP26       0.1640
     22  C        -29.2900   -4.9450  -17.0770 C.2    26  TRP26       0.2290
     23  O        -28.5520   -5.4410  -16.2340 O.2    26  TRP26      -0.2864
     24  CB       -28.1780   -3.3580  -18.6810 C.3    26  TRP26       0.0576
     25  CG       -29.2090   -2.2680  -18.5510 C.ar   26  TRP26       0.0006
     26  CD1      -30.0480   -1.8250  -19.5200 C.ar   26  TRP26       0.0946
     27  CD2      -29.4910   -1.4730  -17.3850 C.ar   26  TRP26       0.0152
     28  NE1      -30.8370   -0.8040  -19.0400 N.ar   26  TRP26      -0.2442
     29  CE2      -30.5250   -0.5850  -17.7250 C.ar   26  TRP26       0.0810
     30  CE3      -28.9840   -1.4470  -16.0830 C.ar   26  TRP26       0.0012
     31  CZ2      -31.0560    0.3330  -16.8170 C.ar   26  TRP26       0.0191
     32  CZ3      -29.5220   -0.5350  -15.1760 C.ar   26  TRP26       0.0001
     33  CH2      -30.5450    0.3430  -15.5520 C.ar   26  TRP26       0.0015
     34  N        -29.3870    4.3800  -18.8540 N.3    61  TYR61      -0.1241
     35  CA       -30.3020    5.2440  -19.6010 C.3    61  TYR61       0.1605
     36  C        -31.7200    4.6750  -19.6660 C.2    61  TYR61       0.2264
     37  O        -32.4250    4.8220  -20.6700 O.2    61  TYR61      -0.2867
     38  CB       -29.7660    5.5010  -21.0060 C.3    61  TYR61       0.0534
     39  CG       -28.3500    5.9770  -21.0060 C.ar   61  TYR61      -0.0201
     40  CD1      -28.0340    7.2580  -20.6040 C.ar   61  TYR61      -0.0009
     41  CD2      -27.3120    5.1260  -21.3520 C.ar   61  TYR61      -0.0009
     42  CE1      -26.7220    7.6980  -20.5790 C.ar   61  TYR61       0.0417
     43  CE2      -25.9910    5.5500  -21.3180 C.ar   61  TYR61       0.0417
     44  CZ       -25.7000    6.8490  -20.9470 C.ar   61  TYR61       0.1957
     45  OH       -24.3780    7.2990  -20.9130 O.3    61  TYR61      -0.2866
     46  N        -33.5770    3.0630  -22.6950 N.3    64  ASN64      -0.1225
     47  CA       -32.6850    3.1860  -23.8420 C.3    64  ASN64       0.1785
     48  C        -31.4420    2.3030  -23.7390 C.2    64  ASN64       0.2598
     49  O        -30.6610    2.2510  -24.6940 O.2    64  ASN64      -0.2718
     50  CB       -32.2520    4.6390  -24.0530 C.3    64  ASN64       0.1169
     51  CG       -33.3230    5.4690  -24.7370 C.2    64  ASN64       0.2627
     52  OD1      -33.3780    5.5330  -25.9640 O.2    64  ASN64      -0.2716
     53  ND2      -34.1770    6.1120  -23.9440 N.am   64  ASN64      -0.0877
     54  N        -31.2110    1.6490  -22.6090 N.am   65  GLY65      -0.1942
     55  CA       -30.0650    0.7740  -22.4350 C.3    65  GLY65       0.2014
     56  C        -29.2070    1.1890  -21.2530 C.2    65  GLY65       0.2639
     57  O        -29.4170    2.2270  -20.6270 O.2    65  GLY65      -0.2714
     58  N        -28.2210    0.3430  -20.9580 N.am   66  GLY66      -0.1939
     59  CA       -27.5200    0.4870  -19.7000 C.3    66  GLY66       0.2014
     60  C        -26.3970   -0.5140  -19.5660 C.2    66  GLY66       0.2638
     61  O        -26.0370   -1.2040  -20.5220 O.2    66  GLY66      -0.2714
     62  N        -25.8620   -0.5820  -18.3490 N.am   67  TYR67      -0.1973
     63  CA       -24.6210   -1.2920  -18.0420 C.3    67  TYR67       0.1639
     64  C        -24.8810   -2.2070  -16.8570 C.2    67  TYR67       0.2290
     65  O        -25.2470   -1.7210  -15.7620 O.2    67  TYR67      -0.2864
     66  CB       -23.4800   -0.3010  -17.7430 C.3    67  TYR67       0.0560
     67  CG       -23.3700    0.6960  -18.8730 C.ar   67  TYR67      -0.0198
     68  CD1      -22.7480    0.3420  -20.0670 C.ar   67  TYR67      -0.0009
     69  CD2      -23.9660    1.9410  -18.7870 C.ar   67  TYR67      -0.0009
     70  CE1      -22.6940    1.2170  -21.1280 C.ar   67  TYR67       0.0417
     71  CE2      -23.9200    2.8310  -19.8540 C.ar   67  TYR67       0.0417
     72  CZ       -23.2880    2.4580  -21.0210 C.ar   67  TYR67       0.1957
     73  OH       -23.2450    3.3220  -22.0910 O.3    67  TYR67      -0.2866
     74  N        -24.6410   -6.6140  -28.3560 N.3   158  ASP158     -0.1225
     75  CA       -25.6940   -5.6130  -28.2390 C.3   158  ASP158      0.1805
     76  C        -26.7380   -5.9370  -27.1690 C.2   158  ASP158      0.2597
     77  O        -27.7770   -5.2620  -27.1290 O.2   158  ASP158     -0.2718
     78  CB       -26.3500   -5.4380  -29.6260 C.3   158  ASP158      0.1424
     79  CG       -26.9260   -6.7490  -30.1840 C.2   158  ASP158      0.3668
     80  OD1      -27.3780   -7.6040  -29.3880 O.co2 158  ASP158     -0.2456
     81  OD2      -26.9230   -6.9320  -31.4240 O.co2 158  ASP158     -0.2456
     82  N        -26.5060   -6.9240  -26.3040 N.am  159  HIS159     -0.1975
     83  CA       -27.5650   -7.5140  -25.4780 C.3   159  HIS159      0.1656
     84  C        -26.9050   -8.2070  -24.2930 C.2   159  HIS159      0.2291
     85  O        -26.0110   -9.0330  -24.4980 O.2   159  HIS159     -0.2864
     86  CB       -28.3850   -8.5100  -26.3120 C.3   159  HIS159      0.0771
     87  CG       -29.5570   -9.1220  -25.5940 C.ar  159  HIS159      0.0820
     88  ND1      -30.5940   -8.3730  -25.0730 N.ar  159  HIS159     -0.2267
     89  CD2      -29.8760  -10.4190  -25.3520 C.ar  159  HIS159      0.1154
     90  CE1      -31.4830   -9.1760  -24.5120 C.ar  159  HIS159      0.1986
     91  NE2      -31.0730  -10.4260  -24.6700 N.ar  159  HIS159     -0.2212
@<TRIPOS>BOND
     1    81    79   ar
     2    79    78    1
     3    79    80   ar
     4    78    75    1
     5    74    75    1
     6    75    76    1
     7    76    77    2
     8    76    82   am
     9    86    87    1
    10    86    83    1
    11    82    83    1
    12    52    51    2
    13    87    89   ar
    14    87    88   ar
    15    83    84    1
    16    89    91   ar
    17    88    90   ar
    18    51    50    1
    19    51    53   am
    20    49    48    2
    21    91    90   ar
    22    85    84    2
    23    50    47    1
    24    47    48    1
    25    47    46    1
    26    48    54   am
    27    11    10    1
    28    11    12    1
    29     9     7   am
    30     7     8    2
    31     7     6    1
    32    19    18    1
    33    54    55    1
    34    55    56    1
    35     6     5    1
    36    73    72    1
    37    18    15    1
    38    12    13    2
    39     3     4    2
    40     3     2    1
    41    41    43   ar
    42    41    39   ar
    43    43    44   ar
    44    56    58   am
    45    56    57    2
    46    70    72   ar
    47    70    68   ar
    48    72    71   ar
    49    39    38    1
    50    39    40   ar
    51    38    35    1
    52    58    59    1
    53     5     2    1
    54    44    45    1
    55    44    42   ar
    56     1     2    1
    57    14    15    1
    58    15    16    1
    59    37    36    2
    60    40    42   ar
    61    61    60    2
    62    68    67   ar
    63    71    69   ar
    64    59    60    1
    65    36    35    1
    66    16    20   am
    67    16    17    2
    68    35    34    1
    69    60    62   am
    70    20    21    1
    71    26    28   ar
    72    26    25   ar
    73    28    29   ar
    74    67    69   ar
    75    67    66    1
    76    24    25    1
    77    24    21    1
    78    25    27   ar
    79    21    22    1
    80    62    63    1
    81    63    66    1
    82    63    64    1
    83    29    27   ar
    84    29    31   ar
    85    27    30   ar
    86    22    23    2
    87    64    65    2
    88    31    33   ar
    89    30    32   ar
    90    33    32   ar
