@<TRIPOS>MOLECULE
tmp/6h8tA00.pdb
 87 87 0 0 0
SMALL
GASTEIGER

@<TRIPOS>ATOM
      1  N          5.2450   -3.9770  -23.0990 N.3    23  GLY23      -0.1225
      2  CA         3.8540   -3.6530  -23.3120 C.3    23  GLY23       0.1811
      3  C          3.1430   -3.3470  -22.0150 C.2    23  GLY23       0.2280
      4  O          2.0590   -3.8810  -21.7410 O.2    23  GLY23      -0.2866
      5  N          1.9150   -0.3820  -20.7170 N.3    25  CYS25      -0.1221
      6  CA         1.1690    0.8670  -20.5440 C.3    25  CYS25       0.1808
      7  C          0.0650    0.7350  -19.5000 C.2    25  CYS25       0.2601
      8  O         -0.2500    1.7040  -18.7980 O.2    25  CYS25      -0.2717
      9  CB         0.5560    1.3240  -21.8680 C.3    25  CYS25       0.0970
     10  SG        -0.5950    0.1470  -22.6310 S.3    25  CYS25      -0.0800
     11  N         -0.5190   -0.4540  -19.3750 N.am   26  TRP26      -0.1976
     12  CA        -1.6350   -0.6540  -18.4530 C.3    26  TRP26       0.1640
     13  C         -1.2130   -0.4700  -17.0000 C.2    26  TRP26       0.2290
     14  O         -2.0170   -0.0100  -16.1730 O.2    26  TRP26      -0.2864
     15  CB        -2.2100   -2.0470  -18.6730 C.3    26  TRP26       0.0576
     16  CG        -1.1800   -3.1300  -18.5410 C.ar   26  TRP26       0.0006
     17  CD1       -0.3350   -3.5900  -19.5120 C.ar   26  TRP26       0.0946
     18  CD2       -0.9090   -3.9040  -17.3720 C.ar   26  TRP26       0.0152
     19  NE1        0.4390   -4.6210  -19.0200 N.ar   26  TRP26      -0.2442
     20  CE2        0.1110   -4.8250  -17.7050 C.ar   26  TRP26       0.0810
     21  CE3       -1.4270   -3.9090  -16.0720 C.ar   26  TRP26       0.0012
     22  CZ2        0.6090   -5.7440  -16.7930 C.ar   26  TRP26       0.0191
     23  CZ3       -0.9230   -4.8150  -15.1600 C.ar   26  TRP26       0.0001
     24  CH2        0.0910   -5.7200  -15.5250 C.ar   26  TRP26       0.0015
     25  N         -1.2350   -9.7560  -18.8750 N.3    61  TYR61      -0.1241
     26  CA        -0.2690  -10.5690  -19.5750 C.3    61  TYR61       0.1605
     27  C          1.1470  -10.0480  -19.6350 C.2    61  TYR61       0.2264
     28  O          1.8120  -10.2070  -20.6610 O.2    61  TYR61      -0.2867
     29  CB        -0.7740  -10.9120  -20.9600 C.3    61  TYR61       0.0534
     30  CG        -2.2170  -11.3660  -20.9600 C.ar   61  TYR61      -0.0201
     31  CD1       -2.5250  -12.6780  -20.6130 C.ar   61  TYR61      -0.0009
     32  CD2       -3.2340  -10.4760  -21.2950 C.ar   61  TYR61      -0.0009
     33  CE1       -3.8560  -13.0900  -20.6090 C.ar   61  TYR61       0.0417
     34  CE2       -4.5510  -10.8990  -21.2860 C.ar   61  TYR61       0.0417
     35  CZ        -4.8560  -12.2010  -20.9420 C.ar   61  TYR61       0.1957
     36  OH        -6.1670  -12.6230  -20.9330 O.3    61  TYR61      -0.2866
     37  N          3.0230   -8.4200  -22.7170 N.3    64  ASN64      -0.1225
     38  CA         2.1220   -8.5220  -23.8570 C.3    64  ASN64       0.1785
     39  C          0.9550   -7.5580  -23.7490 C.2    64  ASN64       0.2598
     40  O          0.2520   -7.3580  -24.7380 O.2    64  ASN64      -0.2718
     41  CB         1.5220   -9.9290  -23.9960 C.3    64  ASN64       0.1169
     42  CG         2.5100  -10.9620  -24.4410 C.2    64  ASN64       0.2627
     43  OD1        3.0620  -11.6980  -23.6240 O.2    64  ASN64      -0.2716
     44  ND2        2.7120  -11.0620  -25.7480 N.am   64  ASN64      -0.0877
     45  N          0.7660   -6.9240  -22.6020 N.am   65  GLY65      -0.1942
     46  CA        -0.3480   -6.0250  -22.3920 C.3    65  GLY65       0.2014
     47  C         -1.2110   -6.4750  -21.2270 C.2    65  GLY65       0.2639
     48  O         -0.9960   -7.5270  -20.6230 O.2    65  GLY65      -0.2714
     49  N         -2.1970   -5.6350  -20.9130 N.am   66  GLY66      -0.1939
     50  CA        -2.9170   -5.8140  -19.6640 C.3    66  GLY66       0.2014
     51  C         -4.0460   -4.8160  -19.4930 C.2    66  GLY66       0.2638
     52  O         -4.4440   -4.1360  -20.4350 O.2    66  GLY66      -0.2714
     53  N         -4.5450   -4.7350  -18.2570 N.am   67  TYR67      -0.1973
     54  CA        -5.7610   -3.9860  -17.9330 C.3    67  TYR67       0.1639
     55  C         -5.5230   -3.0660  -16.7420 C.2    67  TYR67       0.2290
     56  O         -5.1640   -3.5490  -15.6480 O.2    67  TYR67      -0.2864
     57  CB        -6.9230   -4.9390  -17.6400 C.3    67  TYR67       0.0560
     58  CG        -7.0960   -5.9220  -18.7430 C.ar   67  TYR67      -0.0198
     59  CD1       -6.5400   -7.1970  -18.6520 C.ar   67  TYR67      -0.0009
     60  CD2       -7.7680   -5.5690  -19.9090 C.ar   67  TYR67      -0.0009
     61  CE1       -6.6660   -8.1050  -19.6890 C.ar   67  TYR67       0.0417
     62  CE2       -7.9090   -6.4700  -20.9480 C.ar   67  TYR67       0.0417
     63  CZ        -7.3510   -7.7370  -20.8340 C.ar   67  TYR67       0.1957
     64  OH        -7.4740   -8.6430  -21.8660 O.3    67  TYR67      -0.2866
     65  N         -5.8860    1.2470  -28.2630 N.3   158  ASP158     -0.1225
     66  CA        -4.7850    0.3020  -28.1210 C.3   158  ASP158      0.1805
     67  C         -3.7760    0.6660  -27.0320 C.2   158  ASP158      0.2598
     68  O         -2.7450   -0.0130  -26.9350 O.2   158  ASP158     -0.2718
     69  CB        -4.0470    0.1850  -29.4700 C.3   158  ASP158      0.1424
     70  CG        -3.4770    1.5310  -29.9560 C.2   158  ASP158      0.3668
     71  OD1       -3.2470    2.4410  -29.1380 O.co2 158  ASP158     -0.2456
     72  OD2       -3.2370    1.6790  -31.1660 O.co2 158  ASP158     -0.2456
     73  N         -4.0370    1.6620  -26.1870 N.am  159  HIS159     -0.1961
     74  CA        -2.9860    2.2540  -25.3590 C.3   159  HIS159      0.1787
     75  C         -3.6300    2.9160  -24.1490 C.2   159  HIS159      0.2620
     76  O         -4.4680    3.8140  -24.3130 O.2   159  HIS159     -0.2715
     77  CB        -2.2030    3.2710  -26.1950 C.3   159  HIS159      0.0785
     78  CG        -1.0500    3.9130  -25.4830 C.ar  159  HIS159      0.0821
     79  ND1       -0.0230    3.1880  -24.9150 N.ar  159  HIS159     -0.2267
     80  CD2       -0.7350    5.2200  -25.2970 C.ar  159  HIS159      0.1154
     81  CE1        0.8560    4.0160  -24.3740 C.ar  159  HIS159      0.1986
     82  NE2        0.4530    5.2550  -24.6020 N.ar  159  HIS159     -0.2212
     83  N         -3.2310    2.4930  -22.9420 N.am  160  ALA160     -0.1977
     84  CA        -3.7630    3.0640  -21.7160 C.3   160  ALA160      0.1597
     85  C         -2.8640    4.2030  -21.2450 C.2   160  ALA160      0.2287
     86  O         -1.6320    4.0960  -21.2720 O.2   160  ALA160     -0.2864
     87  CB        -3.8900    2.0010  -20.6210 C.3   160  ALA160      0.0319
@<TRIPOS>BOND
     1    72    70   ar
     2    70    69    1
     3    70    71   ar
     4    69    66    1
     5    65    66    1
     6    66    67    1
     7    67    68    2
     8    67    73   am
     9    77    78    1
    10    77    74    1
    11    73    74    1
    12    44    42   am
    13    78    80   ar
    14    78    79   ar
    15    74    75    1
    16    80    82   ar
    17    79    81   ar
    18    40    39    2
    19    82    81   ar
    20    42    41    1
    21    42    43    2
    22    76    75    2
    23    75    83   am
    24    41    38    1
    25    38    39    1
    26    38    37    1
    27    39    45   am
    28     2     1    1
    29     2     3    1
    30    83    84    1
    31    10     9    1
    32    45    46    1
    33    46    47    1
    34     3     4    2
    35     9     6    1
    36    64    63    1
    37    84    85    1
    38    84    87    1
    39    32    34   ar
    40    32    30   ar
    41    34    35   ar
    42    86    85    2
    43    47    49   am
    44    47    48    2
    45    30    29    1
    46    30    31   ar
    47    29    26    1
    48    62    63   ar
    49    62    60   ar
    50    35    36    1
    51    35    33   ar
    52    49    50    1
    53    63    61   ar
    54     5     6    1
    55    28    27    2
    56    31    33   ar
    57     6     7    1
    58    52    51    2
    59    60    58   ar
    60    61    59   ar
    61    50    51    1
    62    27    26    1
    63    26    25    1
    64    17    19   ar
    65    17    16   ar
    66     7    11   am
    67     7     8    2
    68    51    53   am
    69    11    12    1
    70    19    20   ar
    71    58    59   ar
    72    58    57    1
    73    15    16    1
    74    15    12    1
    75    16    18   ar
    76    12    13    1
    77    53    54    1
    78    54    57    1
    79    54    55    1
    80    20    18   ar
    81    20    22   ar
    82    18    21   ar
    83    13    14    2
    84    22    24   ar
    85    55    56    2
    86    21    23   ar
    87    24    23   ar
