@<TRIPOS>MOLECULE
tmp/6h9bD01.pdb
 161 152 0 0 0
SMALL
GASTEIGER

@<TRIPOS>ATOM
      1  N        -24.1850  143.1160  116.3360 N.3   236  VAL236     -0.1245
      2  CA       -25.0800  142.0500  115.8900 C.3   236  VAL236      0.1561
      3  C        -25.0060  141.7740  114.3310 C.2   236  VAL236      0.2260
      4  O        -25.2430  140.6270  113.8600 O.2   236  VAL236     -0.2867
      5  CB       -26.4720  142.4950  116.4090 C.3   236  VAL236      0.0252
      6  CG1      -27.5590  142.4870  115.3580 C.3   236  VAL236      0.0019
      7  CG2      -26.8690  141.7860  117.6930 C.3   236  VAL236      0.0019
      8  N        -21.0000  140.0460  111.4360 N.3   239  CYS239     -0.1221
      9  CA       -20.7690  138.8540  110.6430 C.3   239  CYS239      0.1808
     10  C        -21.5280  138.8070  109.3560 C.2   239  CYS239      0.2601
     11  O        -21.2050  137.9550  108.5250 O.2   239  CYS239     -0.2717
     12  CB       -20.9970  137.6090  111.4770 C.3   239  CYS239      0.0970
     13  SG       -19.8700  137.4960  112.8780 S.3   239  CYS239     -0.0800
     14  N        -22.4750  139.7240  109.1430 N.am  240  LEU240     -0.1979
     15  CA       -23.1750  139.8210  107.8640 C.3   240  LEU240      0.1596
     16  C        -22.3670  140.7490  106.8940 C.2   240  LEU240      0.2287
     17  O        -22.4350  140.6110  105.6840 O.2   240  LEU240     -0.2864
     18  CB       -24.5630  140.4480  108.0740 C.3   240  LEU240      0.0297
     19  CG       -25.5940  139.7870  108.9750 C.3   240  LEU240      0.0022
     20  CD1      -26.7850  140.6440  109.0590 C.3   240  LEU240      0.0001
     21  CD2      -26.0580  138.4880  108.4450 C.3   240  LEU240      0.0001
     22  N        -16.4270  131.0910  108.8730 N.3   246  LEU246     -0.1245
     23  CA       -17.8370  131.4560  108.7000 C.3   246  LEU246      0.1561
     24  C        -18.0860  132.4610  107.6310 C.2   246  LEU246      0.2260
     25  O        -17.1870  133.1610  107.1650 O.2   246  LEU246     -0.2867
     26  CB       -18.5160  131.8590  109.9910 C.3   246  LEU246      0.0270
     27  CG       -19.5940  130.8990  110.5660 C.3   246  LEU246      0.0019
     28  CD1      -19.0940  129.4390  110.7280 C.3   246  LEU246      0.0001
     29  CD2      -20.1890  131.4630  111.8750 C.3   246  LEU246      0.0001
     30  N        -21.3520  134.3840  107.4130 N.3   248  ALA248     -0.1231
     31  CA       -22.6730  134.3910  107.9650 C.3   248  ALA248      0.1694
     32  C        -23.6920  135.1040  107.1380 C.2   248  ALA248      0.2592
     33  O        -23.3730  136.0440  106.4160 O.2   248  ALA248     -0.2718
     34  CB       -22.6380  134.9090  109.3630 C.3   248  ALA248      0.0304
     35  N        -24.8980  134.5860  107.1420 N.am  249  ASP249     -0.1974
     36  CA       -25.9990  135.2430  106.4780 C.3   249  ASP249      0.1709
     37  C        -27.2000  135.2080  107.4240 C.2   249  ASP249      0.2293
     38  O        -27.0400  134.7440  108.5600 O.2   249  ASP249     -0.2864
     39  CB       -26.2540  134.7580  105.0230 C.3   249  ASP249      0.1436
     40  CG       -26.6920  133.3350  104.8410 C.2   249  ASP249      0.3671
     41  OD1      -27.6490  132.9100  105.5440 O.co2 249  ASP249     -0.2456
     42  OD2      -26.0980  132.6420  103.9780 O.co2 249  ASP249     -0.2456
     43  N        -28.6740  131.4640  107.8600 N.3   252  LYS252     -0.1231
     44  CA       -27.7180  130.7150  108.6800 C.3   252  LYS252      0.1693
     45  C        -27.8880  131.1390  110.1480 C.2   252  LYS252      0.2591
     46  O        -27.9650  130.2700  111.0150 O.2   252  LYS252     -0.2718
     47  CB       -26.2640  130.9030  108.2030 C.3   252  LYS252      0.0285
     48  CG       -25.8670  129.9650  107.0870 C.3   252  LYS252      0.0035
     49  CD       -24.6130  130.4620  106.3730 C.3   252  LYS252      0.0206
     50  CE       -23.7780  129.3620  105.7790 C.3   252  LYS252      0.1093
     51  NZ       -22.7020  129.9340  104.9280 N.3   252  LYS252     -0.1314
     52  N        -28.0220  132.4350  110.4260 N.am  253  LEU253     -0.1980
     53  CA       -28.2550  132.9320  111.7810 C.3   253  LEU253      0.1596
     54  C        -29.5610  132.3220  112.3100 C.2   253  LEU253      0.2287
     55  O        -29.5380  131.7450  113.4010 O.2   253  LEU253     -0.2864
     56  CB       -28.3480  134.4660  111.7980 C.3   253  LEU253      0.0297
     57  CG       -28.6290  135.1620  113.1500 C.3   253  LEU253      0.0022
     58  CD1      -27.4220  135.1360  114.0700 C.3   253  LEU253      0.0001
     59  CD2      -29.0920  136.6010  112.9390 C.3   253  LEU253      0.0001
     60  N        -29.3850  128.3000  113.0450 N.3   256  ASN256     -0.1225
     61  CA       -28.5600  127.9750  114.2130 C.3   256  ASN256      0.1785
     62  C        -28.9790  128.6130  115.5340 C.2   256  ASN256      0.2597
     63  O        -28.4720  128.2010  116.5790 O.2   256  ASN256     -0.2718
     64  CB       -27.1310  128.3720  113.9540 C.3   256  ASN256      0.1169
     65  CG       -26.5320  127.5670  112.8830 C.2   256  ASN256      0.2627
     66  OD1      -26.0870  126.4920  113.1490 O.2   256  ASN256     -0.2716
     67  ND2      -26.5390  128.0490  111.6360 N.am  256  ASN256     -0.0877
     68  N        -29.8320  129.6380  115.4880 N.am  257  MET257     -0.1979
     69  CA       -30.2630  130.3710  116.6820 C.3   257  MET257      0.1605
     70  C        -31.6770  130.0270  117.1290 C.2   257  MET257      0.2287
     71  O        -31.9880  130.1890  118.3100 O.2   257  MET257     -0.2864
     72  CB       -30.1670  131.8920  116.4450 C.3   257  MET257      0.0413
     73  CG       -28.7500  132.4620  116.4850 C.3   257  MET257      0.0598
     74  SD       -27.9550  132.3070  118.0930 S.3   257  MET257     -0.1393
     75  CE       -28.8870  133.3560  119.0590 C.3   257  MET257      0.0692
     76  N        -29.5580  128.9500  122.7520 N.3   308  THR308     -0.1203
     77  CA       -28.4300  129.1760  121.8420 C.3   308  THR308      0.1994
     78  C        -27.8180  130.5910  122.1150 C.2   308  THR308      0.2618
     79  O        -28.5450  131.5130  122.4980 O.2   308  THR308     -0.2717
     80  CB       -28.9110  129.1760  120.3740 C.3   308  THR308      0.1784
     81  OG1      -30.0150  130.0840  120.2100 O.3   308  THR308     -0.2211
     82  CG2      -29.2510  127.8170  119.8590 C.3   308  THR308      0.0376
     83  N        -26.5000  130.7720  121.8300 N.am  309  VAL309     -0.1965
     84  CA       -25.7410  132.0180  121.9730 C.3   309  VAL309      0.1727
     85  C        -24.7810  132.1820  120.7950 C.2   309  VAL309      0.2616
     86  O        -24.0340  131.2560  120.4590 O.2   309  VAL309     -0.2715
     87  CB       -24.9470  132.0860  123.3200 C.3   309  VAL309      0.0290
     88  CG1      -24.3360  133.4630  123.5560 C.3   309  VAL309      0.0023
     89  CG2      -25.8240  131.7460  124.5010 C.3   309  VAL309      0.0023
     90  N        -24.7950  133.3610  120.1550 N.am  310  ALA310     -0.1963
     91  CA       -23.8090  133.7280  119.1270 C.3   310  ALA310      0.1728
     92  C        -23.0920  134.9980  119.6750 C.2   310  ALA310      0.2617
     93  O        -23.7590  135.9260  120.0940 O.2   310  ALA310     -0.2715
     94  CB       -24.4660  133.9920  117.7960 C.3   310  ALA310      0.0334
     95  N        -21.7540  134.9550  119.8220 N.am  311  THR311     -0.1937
     96  CA       -20.9720  136.0360  120.3810 C.3   311  THR311      0.2028
     97  C        -19.9330  136.5390  119.4210 C.2   311  THR311      0.2642
     98  O        -19.2060  135.7780  118.7930 O.2   311  THR311     -0.2714
     99  CB       -20.3690  135.7170  121.7780 C.3   311  THR311      0.1808
    100  OG1      -19.0320  135.2130  121.6690 O.3   311  THR311     -0.2208
    101  CG2      -21.2370  134.8110  122.6260 C.3   311  THR311      0.0379
    102  N        -19.8590  137.8710  119.3400 N.am  312  ILE312     -0.1977
    103  CA       -18.9170  138.5670  118.4830 C.3   312  ILE312      0.1596
    104  C        -17.9040  139.3530  119.3000 C.2   312  ILE312      0.2287
    105  O        -18.2610  140.1160  120.1770 O.2   312  ILE312     -0.2864
    106  CB       -19.6170  139.4360  117.4280 C.3   312  ILE312      0.0276
    107  CG1      -20.8450  138.6970  116.8220 C.3   312  ILE312      0.0022
    108  CG2      -18.5940  139.8840  116.3790 C.3   312  ILE312      0.0022
    109  CD1      -21.4090  139.1510  115.3410 C.3   312  ILE312      0.0001
    110  N        -26.5490  120.3570  122.2440 N.3   342  PRO342     -0.2102
    111  CA       -25.0760  120.2950  122.3780 C.3   342  PRO342      0.1504
    112  C        -24.3040  121.4430  121.6930 C.2   342  PRO342      0.2576
    113  O        -24.6930  121.8960  120.6200 O.2   342  PRO342     -0.2718
    114  CB       -24.7180  118.9380  121.7230 C.3   342  PRO342      0.0282
    115  CG       -25.9420  118.1580  121.7840 C.3   342  PRO342      0.0208
    116  CD       -27.0610  119.1310  121.6040 C.3   342  PRO342      0.0893
    117  N        -23.1910  121.8840  122.2970 N.am  343  ASN343     -0.1961
    118  CA       -22.3340  122.9450  121.7500 C.3   343  ASN343      0.1819
    119  C        -23.2010  124.1390  121.2250 C.2   343  ASN343      0.2621
    120  O        -23.1970  124.4420  120.0280 O.2   343  ASN343     -0.2715
    121  CB       -21.3430  122.3300  120.7250 C.3   343  ASN343      0.1195
    122  CG       -20.7910  123.1810  119.5950 C.2   343  ASN343      0.2630
    123  OD1      -20.6820  122.7080  118.4520 O.2   343  ASN343     -0.2716
    124  ND2      -20.4110  124.4390  119.8630 N.am  343  ASN343     -0.0877
    125  N        -23.9970  124.7440  122.1340 N.am  344  ASN344     -0.1972
    126  CA       -24.9610  125.7800  121.7920 C.3   344  ASN344      0.1688
    127  C        -24.4220  127.2300  121.8590 C.2   344  ASN344      0.2292
    128  O        -25.1970  128.1840  121.6750 O.2   344  ASN344     -0.2864
    129  CB       -26.2450  125.6310  122.6080 C.3   344  ASN344      0.1181
    130  CG       -26.0880  125.6800  124.1080 C.2   344  ASN344      0.2629
    131  OD1      -24.9990  125.5200  124.6640 O.2   344  ASN344     -0.2716
    132  ND2      -27.1960  125.9030  124.7950 N.am  344  ASN344     -0.0877
    133  N        -21.6640  129.7530  119.9330 N.3   346  LYS346     -0.1231
    134  CA       -20.7460  129.9680  118.8100 C.3   346  LYS346      0.1693
    135  C        -20.0830  131.3600  118.8980 C.2   346  LYS346      0.2593
    136  O        -20.7570  132.3850  119.0890 O.2   346  LYS346     -0.2718
    137  CB       -21.4560  129.7900  117.4690 C.3   346  LYS346      0.0285
    138  CG       -20.5430  129.8360  116.2270 C.3   346  LYS346      0.0035
    139  CD       -19.6800  128.5680  115.9740 C.3   346  LYS346      0.0206
    140  CE       -18.2250  128.9200  115.7280 C.3   346  LYS346      0.1093
    141  NZ       -17.4680  127.7900  115.0910 N.3   346  LYS346     -0.1314
    142  N        -18.7550  131.3850  118.7120 N.am  347  THR347     -0.1939
    143  CA       -17.9570  132.6090  118.7710 C.3   347  THR347      0.2028
    144  C        -17.3070  132.9800  117.4530 C.2   347  THR347      0.2642
    145  O        -16.7170  132.1340  116.7680 O.2   347  THR347     -0.2714
    146  CB       -16.9190  132.4640  119.8640 C.3   347  THR347      0.1808
    147  OG1      -17.6080  132.1490  121.0800 O.3   347  THR347     -0.2208
    148  CG2      -16.1260  133.7220  120.0640 C.3   347  THR347      0.0379
    149  N        -17.3870  134.2580  117.1230 N.am  348  ALA348     -0.1977
    150  CA       -16.7900  134.8860  115.9340 C.3   348  ALA348      0.1597
    151  C        -15.8770  136.0380  116.4080 C.2   348  ALA348      0.2287
    152  O        -16.1690  136.7150  117.4230 O.2   348  ALA348     -0.2864
    153  CB       -17.8820  135.4430  115.0390 C.3   348  ALA348      0.0319
    154  N        -25.6420  137.6990  121.2340 N.3   364  ILE364     -0.1245
    155  CA       -26.9690  137.4720  120.6420 C.3   364  ILE364      0.1561
    156  C        -27.4190  136.2120  121.3560 C.2   364  ILE364      0.2260
    157  O        -26.8220  135.1700  121.1550 O.2   364  ILE364     -0.2867
    158  CB       -26.9870  137.2420  119.1060 C.3   364  ILE364      0.0252
    159  CG1      -26.1400  138.2810  118.3330 C.3   364  ILE364      0.0019
    160  CG2      -28.4490  137.2110  118.6330 C.3   364  ILE364      0.0019
    161  CD1      -26.0280  138.0320  116.8060 C.3   364  ILE364      0.0001
@<TRIPOS>BOND
     1    42    40   ar
     2    40    39    1
     3    40    41   ar
     4    51    50    1
     5    39    36    1
     6    17    16    2
     7    50    49    1
     8    49    48    1
     9    33    32    2
    10    36    35    1
    11    36    37    1
    12    16    15    1
    13    48    47    1
    14    32    35   am
    15    32    31    1
    16    25    24    2
    17    30    31    1
    18    37    38    2
    19    24    23    1
    20    43    44    1
    21    15    18    1
    22    15    14    1
    23    31    34    1
    24    18    19    1
    25    47    44    1
    26    21    19    1
    27    11    10    2
    28    44    45    1
    29    23    22    1
    30    23    26    1
    31    19    20    1
    32    14    10   am
    33    10     9    1
    34    26    27    1
    35    45    52   am
    36    45    46    2
    37    52    53    1
    38    27    28    1
    39    27    29    1
    40     9     8    1
    41     9    12    1
    42    12    13    1
    43    67    65   am
    44    53    56    1
    45    53    54    1
    46    56    57    1
    47    54    55    2
    48    65    66    2
    49    65    64    1
    50    59    57    1
    51    60    61    1
    52    57    58    1
    53     4     3    2
    54    64    61    1
    55    61    62    1
    56     3     2    1
    57   153   150    1
    58   141   140    1
    59   109   107    1
    60     6     5    1
    61    68    62   am
    62    68    69    1
    63    62    63    2
    64   140   139    1
    65     2     1    1
    66     2     5    1
    67   150   151    1
    68   150   149    1
    69   139   138    1
    70   138   137    1
    71   108   106    1
    72   151   152    2
    73     5     7    1
    74    72    73    1
    75    72    69    1
    76    73    74    1
    77    69    70    1
    78   145   144    2
    79   161   159    1
    80   107   106    1
    81   149   144   am
    82    70    71    2
    83   106   103    1
    84   144   143    1
    85   137   134    1
    86    94    91    1
    87    74    75    1
    88   159   158    1
    89   123   122    2
    90   103   104    1
    91   103   102    1
    92   160   158    1
    93   142   143    1
    94   142   135   am
    95   143   146    1
    96    98    97    2
    97   134   135    1
    98   134   133    1
    99   135   136    2
   100   158   155    1
   101    91    92    1
   102    91    90    1
   103   104   105    2
   104   102    97   am
   105    97    96    1
   106   122   124   am
   107   122   121    1
   108    92    95   am
   109    92    93    2
   110    95    96    1
   111    82    80    1
   112   146   148    1
   113   146   147    1
   114   120   119    2
   115    90    85   am
   116    81    80    1
   117    80    77    1
   118    96    99    1
   119    86    85    2
   120   113   112    2
   121   155   154    1
   122   155   156    1
   123   121   118    1
   124    85    84    1
   125   157   156    2
   126   119   118    1
   127   119   125   am
   128   116   115    1
   129   116   110    1
   130   100    99    1
   131   128   127    2
   132   112   117   am
   133   112   111    1
   134   114   115    1
   135   114   111    1
   136   118   117    1
   137    99   101    1
   138   126   127    1
   139   126   125    1
   140   126   129    1
   141    83    84    1
   142    83    78   am
   143    77    78    1
   144    77    76    1
   145    84    87    1
   146    78    79    2
   147   110   111    1
   148   129   130    1
   149    87    88    1
   150    87    89    1
   151   130   131    2
   152   130   132   am
