@<TRIPOS>MOLECULE
tmp/6h9hB00.pdb
 78 74 0 0 0
SMALL
GASTEIGER

@<TRIPOS>ATOM
      1  N         10.2310   16.9000   85.6070 N.3    80  ILE80      -0.1231
      2  CA         9.7430   15.8710   84.6840 C.3    80  ILE80       0.1678
      3  C          8.2180   15.9170   84.6300 C.2    80  ILE80       0.2434
      4  O          7.5700   15.9060   85.6820 O.2    80  ILE80      -0.2733
      5  CB        10.2510   14.4960   85.1240 C.3    80  ILE80       0.0265
      6  CG1       11.7860   14.5200   85.0500 C.3    80  ILE80       0.0019
      7  CG2        9.6050   13.3850   84.2690 C.3    80  ILE80       0.0020
      8  CD1       12.4590   13.3250   85.6180 C.3    80  ILE80       0.0001
      9  N          7.5990   15.9510   83.4490 N.am   81  PRO81      -0.2729
     10  CA         6.1320   16.0750   83.3780 C.3    81  PRO81       0.1401
     11  C          5.4170   14.8660   83.9660 C.2    81  PRO81       0.2269
     12  O          5.5440   13.7430   83.4770 O.2    81  PRO81      -0.2865
     13  CB         5.8610   16.2180   81.8690 C.3    81  PRO81       0.0296
     14  CG         7.1420   16.7280   81.3000 C.3    81  PRO81       0.0237
     15  CD         8.2280   16.0860   82.1270 C.3    81  PRO81       0.0939
     16  N          1.5780   13.4980   80.6330 N.3    84  ARG84      -0.1245
     17  CA         1.9610   13.6720   79.2400 C.3    84  ARG84       0.1563
     18  C          0.7810   13.2700   78.3670 C.2    84  ARG84       0.2260
     19  O          0.0660   12.3240   78.6980 O.2    84  ARG84      -0.2867
     20  CB         3.1810   12.8220   78.8980 C.3    84  ARG84       0.0307
     21  CG         4.4590   13.2010   79.6510 C.3    84  ARG84       0.0489
     22  CD         5.6130   12.3110   79.1560 C.3    84  ARG84       0.2205
     23  NE         6.9030   12.5620   79.8100 N.pl3  84  ARG84      -0.0865
     24  CZ         7.3280   11.9110   80.8920 C.cat  84  ARG84       0.5346
     25  NH1        6.5450   11.0070   81.4800 N.pl3  84  ARG84       0.1354
     26  NH2        8.5330   12.1740   81.4020 N.pl3  84  ARG84       0.1354
     27  N         18.7400   11.5210   79.1630 N.3   172  ALA172     -0.1245
     28  CA        17.3410   11.3770   79.5370 C.3   172  ALA172      0.1562
     29  C         17.1340   10.1540   80.4180 C.2   172  ALA172      0.2260
     30  O         16.3720   10.2070   81.3910 O.2   172  ALA172     -0.2867
     31  CB        16.4850   11.2970   78.2700 C.3   172  ALA172      0.0290
     32  N         18.3000   11.0920   83.9530 N.3   175  ARG175     -0.1231
     33  CA        17.3060   11.9190   84.6460 C.3   175  ARG175      0.1694
     34  C         16.1700   11.0770   85.2030 C.2   175  ARG175      0.2591
     35  O         15.7140   11.2860   86.3340 O.2   175  ARG175     -0.2718
     36  CB        16.7100   12.9720   83.7050 C.3   175  ARG175      0.0321
     37  CG        17.4100   14.2970   83.6470 C.3   175  ARG175      0.0489
     38  CD        16.5460   15.3320   82.9330 C.3   175  ARG175      0.2205
     39  NE        16.3610   14.9990   81.5220 N.pl3 175  ARG175     -0.0865
     40  CZ        17.2570   15.2340   80.5710 C.cat 175  ARG175      0.5346
     41  NH1       18.4200   15.7980   80.8770 N.pl3 175  ARG175      0.1354
     42  NH2       16.9970   14.8960   79.3160 N.pl3 175  ARG175      0.1354
     43  N         15.6310   10.1750   84.3840 N.am  176  GLN176     -0.1979
     44  CA        14.5100    9.3790   84.8590 C.3   176  GLN176      0.1601
     45  C         14.9460    8.4120   85.9500 C.2   176  GLN176      0.2287
     46  O         14.2280    8.2300   86.9350 O.2   176  GLN176     -0.2864
     47  CB        13.8510    8.6450   83.6910 C.3   176  GLN176      0.0394
     48  CG        12.8580    9.5450   82.9510 C.3   176  GLN176      0.0908
     49  CD        12.7120    9.1950   81.4710 C.2   176  GLN176      0.2608
     50  OE1       11.6090    8.8700   81.0040 O.2   176  GLN176     -0.2717
     51  NE2       13.8180    9.2790   80.7210 N.am  176  GLN176     -0.0878
     52  N         10.9970    8.4280   78.0950 N.3   234  PHE234     -0.1227
     53  CA        11.0500    9.4860   77.0940 C.3   234  PHE234      0.1736
     54  C         12.4610   10.0520   77.0000 C.2   234  PHE234      0.2595
     55  O         13.2600    9.9430   77.9310 O.2   234  PHE234     -0.2718
     56  CB        10.0680   10.6240   77.4170 C.3   234  PHE234      0.0547
     57  CG         8.6330   10.1930   77.3800 C.ar  234  PHE234     -0.0202
     58  CD1        8.0900    9.4660   78.4220 C.ar  234  PHE234     -0.0042
     59  CD2        7.8670   10.4620   76.2670 C.ar  234  PHE234     -0.0042
     60  CE1        6.7440    9.0430   78.3630 C.ar  234  PHE234     -0.0003
     61  CE2        6.5250   10.0310   76.2050 C.ar  234  PHE234     -0.0003
     62  CZ         5.9930    9.3240   77.2610 C.ar  234  PHE234     -0.0000
     63  N         12.7520   10.6730   75.8590 N.am  235  ALA235     -0.1966
     64  CA        14.0040   11.3980   75.6710 C.3   235  ALA235      0.1728
     65  C         13.7210   12.7450   75.0180 C.2   235  ALA235      0.2616
     66  O         12.6260   12.9990   74.5090 O.2   235  ALA235     -0.2715
     67  CB        14.9970   10.5790   74.8380 C.3   235  ALA235      0.0334
     68  N         14.7210   13.6310   75.0400 N.am  236  GLY236     -0.1955
     69  CA        14.5220   14.9050   74.3760 C.3   236  GLY236      0.1869
     70  C         13.6190   15.8560   75.1560 C.2   236  GLY236      0.2309
     71  O         13.4300   15.7460   76.3800 O.2   236  GLY236     -0.2863
     72  N          8.2790   16.6120   76.1160 N.3   239  THR239     -0.1218
     73  CA         7.6730   15.2890   76.2780 C.3   239  THR239      0.1862
     74  C          6.2710   15.3490   76.8620 C.2   239  THR239      0.2287
     75  O          5.5300   14.3640   76.7280 O.2   239  THR239     -0.2866
     76  CB         8.5380   14.3700   77.1440 C.3   239  THR239      0.1770
     77  OG1        8.4360   14.7420   78.5270 O.3   239  THR239     -0.2211
     78  CG2        9.9940   14.3980   76.6770 C.3   239  THR239      0.0375
@<TRIPOS>BOND
     1    69    68    1
     2    69    70    1
     3    66    65    2
     4    67    64    1
     5    65    68   am
     6    65    64    1
     7    70    71    2
     8    64    63    1
     9    63    54   am
    10    72    73    1
    11    61    59   ar
    12    61    62   ar
    13    59    57   ar
    14    73    74    1
    15    73    76    1
    16    78    76    1
    17    75    74    2
    18    54    53    1
    19    54    55    2
    20    53    56    1
    21    53    52    1
    22    76    77    1
    23    62    60   ar
    24    57    56    1
    25    57    58   ar
    26    31    28    1
    27    60    58   ar
    28    18    19    2
    29    18    17    1
    30    20    17    1
    31    20    21    1
    32    22    21    1
    33    22    23    1
    34    27    28    1
    35    17    16    1
    36    42    40    1
    37    28    29    1
    38    23    24    2
    39    29    30    2
    40    40    41    1
    41    40    39    2
    42    51    49   am
    43    24    26    1
    44    24    25    1
    45    50    49    2
    46    14    13    1
    47    14    15    1
    48    49    48    1
    49    39    38    1
    50    13    10    1
    51    15     9    1
    52    38    37    1
    53    48    47    1
    54    10     9    1
    55    10    11    1
    56     9     3   am
    57    12    11    2
    58    37    36    1
    59    47    44    1
    60    36    33    1
    61    32    33    1
    62     7     5    1
    63    43    44    1
    64    43    34   am
    65     3     2    1
    66     3     4    2
    67    33    34    1
    68     2     5    1
    69     2     1    1
    70    44    45    1
    71     6     5    1
    72     6     8    1
    73    34    35    2
    74    45    46    2
