@<TRIPOS>MOLECULE
tmp/6h9rA00.pdb
 159 155 0 0 0
SMALL
GASTEIGER

@<TRIPOS>ATOM
      1  N         62.6980   32.6330  -22.9730 N.3   192  LEU192     -0.1245
      2  CA        64.0880   32.5410  -22.5550 C.3   192  LEU192      0.1561
      3  C         65.0060   33.3040  -23.4950 C.2   192  LEU192      0.2260
      4  O         65.9610   33.9350  -23.0360 O.2   192  LEU192     -0.2867
      5  CB        64.5050   31.0770  -22.4770 C.3   192  LEU192      0.0270
      6  CG        65.9750   30.7960  -22.1750 C.3   192  LEU192      0.0019
      7  CD1       66.3520   31.1860  -20.7140 C.3   192  LEU192      0.0001
      8  CD2       66.3010   29.3330  -22.4710 C.3   192  LEU192      0.0001
      9  N         65.4030   36.9960  -22.4960 N.3   195  LEU195     -0.1245
     10  CA        65.8230   37.4870  -21.1780 C.3   195  LEU195      0.1561
     11  C         67.2240   38.0820  -21.2250 C.2   195  LEU195      0.2260
     12  O         67.4750   39.1470  -20.6390 O.2   195  LEU195     -0.2867
     13  CB        65.7440   36.3800  -20.1310 C.3   195  LEU195      0.0270
     14  CG        64.3810   35.6760  -20.0210 C.3   195  LEU195      0.0019
     15  CD1       64.4010   34.6430  -18.9150 C.3   195  LEU195      0.0001
     16  CD2       63.2380   36.6740  -19.8520 C.3   195  LEU195      0.0001
     17  N         66.9290   33.1720  -13.6410 N.3   384  CYS384     -0.1221
     18  CA        66.1040   32.0660  -14.1170 C.3   384  CYS384      0.1808
     19  C         66.9550   30.8820  -14.5410 C.2   384  CYS384      0.2602
     20  O         66.7320   30.2860  -15.6000 O.2   384  CYS384     -0.2717
     21  CB        65.1770   32.5030  -15.2610 C.3   384  CYS384      0.0970
     22  SG        64.2860   34.0740  -14.9210 S.3   384  CYS384     -0.0800
     23  N         67.9260   30.5320  -13.6940 N.am  385  SER385     -0.1938
     24  CA        68.8260   29.3940  -13.8610 C.3   385  SER385      0.2055
     25  C         69.8010   29.5590  -15.0130 C.2   385  SER385      0.2643
     26  O         70.5750   28.6390  -15.2960 O.2   385  SER385     -0.2714
     27  CB        68.0790   28.0790  -14.0640 C.3   385  SER385      0.2130
     28  OG        66.9090   28.0310  -13.2680 O.3   385  SER385     -0.2179
     29  N         69.8290   30.7060  -15.6710 N.am  386  HIS386     -0.1973
     30  CA        70.7660   30.8750  -16.7660 C.3   386  HIS386      0.1656
     31  C         71.7260   32.0350  -16.5060 C.2   386  HIS386      0.2291
     32  O         71.5480   32.8360  -15.5970 O.2   386  HIS386     -0.2864
     33  CB        69.9940   31.0910  -18.0730 C.3   386  HIS386      0.0771
     34  CG        69.2540   29.8760  -18.5320 C.ar  386  HIS386      0.0820
     35  ND1       68.0390   29.5030  -18.0080 N.ar  386  HIS386     -0.2267
     36  CD2       69.5650   28.9390  -19.4660 C.ar  386  HIS386      0.1154
     37  CE1       67.6170   28.4030  -18.6170 C.ar  386  HIS386      0.1986
     38  NE2       68.5280   28.0440  -19.5080 N.ar  386  HIS386     -0.2212
     39  N         73.6800   27.7370  -19.4900 N.3   404  ARG404     -0.1245
     40  CA        73.7630   27.1470  -18.1650 C.3   404  ARG404      0.1563
     41  C         74.6980   25.9400  -18.2380 C.2   404  ARG404      0.2260
     42  O         75.0540   25.4970  -19.3320 O.2   404  ARG404     -0.2867
     43  CB        72.3780   26.7600  -17.6570 C.3   404  ARG404      0.0307
     44  CG        71.7980   25.5800  -18.3060 C.3   404  ARG404      0.0489
     45  CD        70.3340   25.5570  -17.9710 C.3   404  ARG404      0.2205
     46  NE        70.1950   25.0910  -16.6080 N.pl3 404  ARG404     -0.0865
     47  CZ        69.0490   24.7100  -16.0600 C.cat 404  ARG404      0.5346
     48  NH1       67.9100   24.7400  -16.7770 N.pl3 404  ARG404      0.1354
     49  NH2       69.0500   24.3000  -14.7910 N.pl3 404  ARG404      0.1354
     50  N         71.9080   20.4420  -18.6440 N.3   409  LEU409     -0.1245
     51  CA        71.0980   20.2530  -19.8480 C.3   409  LEU409      0.1561
     52  C         71.0840   18.7870  -20.2550 C.2   409  LEU409      0.2260
     53  O         70.0140   18.1860  -20.4330 O.2   409  LEU409     -0.2867
     54  CB        71.6240   21.1260  -20.9960 C.3   409  LEU409      0.0270
     55  CG        71.5670   22.6240  -20.7100 C.3   409  LEU409      0.0019
     56  CD1       72.4510   23.4170  -21.6630 C.3   409  LEU409      0.0001
     57  CD2       70.1390   23.1090  -20.7470 C.3   409  LEU409      0.0001
     58  N         69.1140   16.6100  -17.7290 N.3   412  ARG412     -0.1245
     59  CA        67.6660   16.6590  -17.9000 C.3   412  ARG412      0.1563
     60  C         67.2200   15.8440  -19.1230 C.2   412  ARG412      0.2260
     61  O         66.2620   15.0620  -19.0300 O.2   412  ARG412     -0.2867
     62  CB        67.1990   18.1140  -17.9980 C.3   412  ARG412      0.0307
     63  CG        65.6760   18.2910  -18.1440 C.3   412  ARG412      0.0489
     64  CD        64.9290   17.7720  -16.9120 C.3   412  ARG412      0.2205
     65  NE        65.5330   18.2550  -15.6580 N.pl3 412  ARG412     -0.0865
     66  CZ        65.1800   17.8230  -14.4470 C.cat 412  ARG412      0.5346
     67  NH1       64.2380   16.8960  -14.3230 N.pl3 412  ARG412      0.1354
     68  NH2       65.7600   18.3170  -13.3600 N.pl3 412  ARG412      0.1354
     69  N         65.1440   21.4890  -28.8850 N.3   436  MET436     -0.1245
     70  CA        65.3070   22.6010  -27.9520 C.3   436  MET436      0.1570
     71  C         66.7660   23.0330  -27.8860 C.2   436  MET436      0.2261
     72  O         67.0590   24.2300  -27.9070 O.2   436  MET436     -0.2867
     73  CB        64.7910   22.2320  -26.5570 C.3   436  MET436      0.0387
     74  CG        65.1250   23.2450  -25.4680 C.3   436  MET436      0.0595
     75  SD        64.4240   22.7390  -23.8770 S.3   436  MET436     -0.1393
     76  CE        65.7930   21.8180  -23.1840 C.3   436  MET436      0.0692
     77  N         67.9180   26.9250  -28.5750 N.3   440  MET440     -0.1230
     78  CA        68.4040   27.7390  -27.4580 C.3   440  MET440      0.1702
     79  C         69.8650   27.5220  -27.1190 C.2   440  MET440      0.2592
     80  O         70.5290   28.4490  -26.6660 O.2   440  MET440     -0.2718
     81  CB        67.6100   27.4510  -26.1780 C.3   440  MET440      0.0401
     82  CG        66.0870   27.6870  -26.2530 C.3   440  MET440      0.0596
     83  SD        65.4630   29.3100  -26.7650 S.3   440  MET440     -0.1393
     84  CE        66.6450   30.4180  -26.1280 C.3   440  MET440      0.0692
     85  N         70.3860   26.3220  -27.3140 N.am  441  TYR441     -0.1976
     86  CA        71.7410   25.9900  -26.9070 C.3   441  TYR441      0.1639
     87  C         72.6350   25.5890  -28.0860 C.2   441  TYR441      0.2290
     88  O         73.6940   24.9800  -27.8810 O.2   441  TYR441     -0.2864
     89  CB        71.6660   24.8940  -25.8570 C.3   441  TYR441      0.0560
     90  CG        70.7550   25.2970  -24.7040 C.ar  441  TYR441     -0.0198
     91  CD1       71.1080   26.3310  -23.8380 C.ar  441  TYR441     -0.0009
     92  CD2       69.5660   24.6380  -24.4800 C.ar  441  TYR441     -0.0009
     93  CE1       70.2700   26.6830  -22.7740 C.ar  441  TYR441      0.0417
     94  CE2       68.7660   24.9600  -23.4320 C.ar  441  TYR441      0.0417
     95  CZ        69.0930   25.9920  -22.5910 C.ar  441  TYR441      0.1957
     96  OH        68.2270   26.2980  -21.5580 O.3   441  TYR441     -0.2866
     97  N         59.7570   19.3030  -22.8060 N.3   468  THR468     -0.1203
     98  CA        61.0930   19.2290  -22.2410 C.3   468  THR468      0.1994
     99  C         61.1860   19.9750  -20.9190 C.2   468  THR468      0.2619
    100  O         62.1720   19.7980  -20.1980 O.2   468  THR468     -0.2717
    101  CB        62.1190   19.8380  -23.2140 C.3   468  THR468      0.1784
    102  OG1       61.7070   21.1710  -23.5390 O.3   468  THR468     -0.2211
    103  CG2       62.2740   19.0070  -24.5110 C.3   468  THR468      0.0376
    104  N         60.2030   20.8160  -20.6020 N.am  469  THR469     -0.1938
    105  CA        60.3120   21.7320  -19.4790 C.3   469  THR469      0.2028
    106  C         58.9460   22.3280  -19.1760 C.2   469  THR469      0.2642
    107  O         58.0940   22.4820  -20.0650 O.2   469  THR469     -0.2714
    108  CB        61.2940   22.8670  -19.7500 C.3   469  THR469      0.1808
    109  OG1       61.1700   23.8510  -18.7120 O.3   469  THR469     -0.2208
    110  CG2       60.9910   23.5390  -21.0740 C.3   469  THR469      0.0379
    111  N         58.7570   22.6660  -17.9050 N.am  470  TRP470     -0.1959
    112  CA        57.5730   23.3620  -17.4460 C.3   470  TRP470      0.1771
    113  C         57.7950   24.8530  -17.2680 C.2   470  TRP470      0.2620
    114  O         56.8620   25.5500  -16.8860 O.2   470  TRP470     -0.2715
    115  CB        57.1110   22.7590  -16.1270 C.3   470  TRP470      0.0590
    116  CG        56.5750   21.3900  -16.2990 C.ar  470  TRP470      0.0006
    117  CD1       57.2840   20.2220  -16.2990 C.ar  470  TRP470      0.0946
    118  CD2       55.2100   21.0360  -16.5120 C.ar  470  TRP470      0.0152
    119  NE1       56.4360   19.1600  -16.4940 N.ar  470  TRP470     -0.2442
    120  CE2       55.1550   19.6350  -16.6230 C.ar  470  TRP470      0.0810
    121  CE3       54.0200   21.7690  -16.5980 C.ar  470  TRP470      0.0012
    122  CZ2       53.9530   18.9490  -16.8170 C.ar  470  TRP470      0.0191
    123  CZ3       52.8230   21.0870  -16.7930 C.ar  470  TRP470      0.0001
    124  CH2       52.8000   19.6930  -16.9000 C.ar  470  TRP470      0.0015
    125  N         59.0040   25.3490  -17.5170 N.am  471  SER471     -0.1950
    126  CA        59.3190   26.7470  -17.2710 C.3   471  SER471      0.1924
    127  C         58.3340   27.6580  -17.9840 C.2   471  SER471      0.2314
    128  O         58.0060   27.4550  -19.1510 O.2   471  SER471     -0.2863
    129  CB        60.7470   27.0680  -17.7470 C.3   471  SER471      0.2116
    130  OG        60.9640   28.4840  -17.8490 O.3   471  SER471     -0.2180
    131  N         59.0880   30.4120  -19.0890 N.3   473  HIS473     -0.1226
    132  CA        59.8570   31.1100  -20.0990 C.3   473  HIS473      0.1752
    133  C         60.0100   30.2960  -21.3860 C.2   473  HIS473      0.2595
    134  O         60.6120   30.7790  -22.3550 O.2   473  HIS473     -0.2718
    135  CB        61.2110   31.4900  -19.4960 C.3   473  HIS473      0.0759
    136  CG        61.0870   32.2090  -18.1870 C.ar  473  HIS473      0.0818
    137  ND1       60.6690   33.5190  -18.1000 N.ar  473  HIS473     -0.2268
    138  CD2       61.2630   31.7880  -16.9110 C.ar  473  HIS473      0.1154
    139  CE1       60.6310   33.8850  -16.8280 C.ar  473  HIS473      0.1986
    140  NE2       60.9570   32.8440  -16.0850 N.ar  473  HIS473     -0.2212
    141  N         59.4460   29.0970  -21.4320 N.am  474  ALA474     -0.1980
    142  CA        59.5400   28.2340  -22.5930 C.3   474  ALA474      0.1597
    143  C         58.3550   28.4560  -23.5320 C.2   474  ALA474      0.2287
    144  O         57.1970   28.3300  -23.1230 O.2   474  ALA474     -0.2864
    145  CB        59.5770   26.7760  -22.1460 C.3   474  ALA474      0.0319
    146  N         60.3760   24.2590  -30.4010 N.3   478  TRP478     -0.1241
    147  CA        61.0680   23.0460  -30.8690 C.3   478  TRP478      0.1605
    148  C         60.1390   21.8510  -31.0480 C.2   478  TRP478      0.2264
    149  O         60.5890   20.8100  -31.5470 O.2   478  TRP478     -0.2867
    150  CB        62.2070   22.6200  -29.9020 C.3   478  TRP478      0.0550
    151  CG        61.7960   22.6460  -28.4390 C.ar  478  TRP478      0.0003
    152  CD1       61.3090   21.6040  -27.6960 C.ar  478  TRP478      0.0946
    153  CD2       61.8120   23.7910  -27.5660 C.ar  478  TRP478      0.0152
    154  NE1       61.0230   22.0280  -26.4060 N.ar  478  TRP478     -0.2442
    155  CE2       61.3290   23.3630  -26.3020 C.ar  478  TRP478      0.0810
    156  CE3       62.2080   25.1340  -27.7280 C.ar  478  TRP478      0.0012
    157  CZ2       61.2060   24.2360  -25.2090 C.ar  478  TRP478      0.0191
    158  CZ3       62.0810   25.9940  -26.6500 C.ar  478  TRP478      0.0001
    159  CH2       61.5840   25.5350  -25.3950 C.ar  478  TRP478      0.0015
@<TRIPOS>BOND
     1   149   148    2
     2   148   147    1
     3   147   146    1
     4   147   150    1
     5   150   151    1
     6    69    70    1
     7    77    78    1
     8   151   152   ar
     9   151   153   ar
    10    87    88    2
    11    87    86    1
    12    70    71    1
    13    70    73    1
    14    72    71    2
    15   156   153   ar
    16   156   158   ar
    17   152   154   ar
    18   153   155   ar
    19    78    79    1
    20    78    81    1
    21    85    79   am
    22    85    86    1
    23    79    80    2
    24    86    89    1
    25    83    82    1
    26    83    84    1
    27   158   159   ar
    28    73    74    1
    29   154   155   ar
    30   155   157   ar
    31    82    81    1
    32    89    90    1
    33    74    75    1
    34   159   157   ar
    35    90    92   ar
    36    90    91   ar
    37   103   101    1
    38    92    94   ar
    39    75    76    1
    40    91    93   ar
    41   102   101    1
    42   143   144    2
    43   143   142    1
    44     3     4    2
    45     3     2    1
    46    94    95   ar
    47   101    98    1
    48     1     2    1
    49    97    98    1
    50    93    95   ar
    51   142   145    1
    52   142   141    1
    53    95    96    1
    54     2     5    1
    55     9    10    1
    56     5     6    1
    57     8     6    1
    58   134   133    2
    59    98    99    1
    60     6     7    1
    61    56    55    1
    62   141   133   am
    63   133   132    1
    64    11    10    1
    65    11    12    2
    66    10    13    1
    67   110   108    1
    68    54    55    1
    69    54    51    1
    70    99   104   am
    71    99   100    2
    72    57    55    1
    73   104   105    1
    74    53    52    2
    75    52    51    1
    76    13    14    1
    77   132   135    1
    78   132   131    1
    79   107   106    2
    80    14    16    1
    81    14    15    1
    82    51    50    1
    83   108   105    1
    84   108   109    1
    85    38    36   ar
    86    38    37   ar
    87   135   136    1
    88    39    40    1
    89   105   106    1
    90    36    34   ar
    91    42    41    2
    92   106   111   am
    93   128   127    2
    94    60    61    2
    95    60    59    1
    96    37    35   ar
    97    34    33    1
    98    34    35   ar
    99    44    45    1
   100    44    43    1
   101    41    40    1
   102   136   137   ar
   103   136   138   ar
   104    40    43    1
   105    63    62    1
   106    63    64    1
   107   137   139   ar
   108    33    30    1
   109    62    59    1
   110   127   126    1
   111    45    46    1
   112   111   112    1
   113    59    58    1
   114   130   129    1
   115   129   126    1
   116   125   126    1
   117   125   113   am
   118   112   113    1
   119   112   115    1
   120   113   114    2
   121    64    65    1
   122   138   140   ar
   123   124   122   ar
   124   124   123   ar
   125   139   140   ar
   126   122   120   ar
   127   123   121   ar
   128    48    47    1
   129    30    31    1
   130    30    29    1
   131   120   118   ar
   132   120   119   ar
   133    46    47    2
   134   121   118   ar
   135   118   116   ar
   136    31    32    2
   137   119   117   ar
   138   117   116   ar
   139   116   115    1
   140    47    49    1
   141    29    25   am
   142    65    66    2
   143    20    19    2
   144    26    25    2
   145    21    22    1
   146    21    18    1
   147    25    24    1
   148    19    18    1
   149    19    23   am
   150    66    67    1
   151    66    68    1
   152    18    17    1
   153    27    24    1
   154    27    28    1
   155    24    23    1
