@<TRIPOS>MOLECULE
tmp/6ha9B01.pdb
 124 120 0 0 0
SMALL
GASTEIGER

@<TRIPOS>ATOM
      1  N         19.8310  149.5520    8.1490 N.3    37  ASN37      -0.1240
      2  CA        21.0750  148.7560    8.3540 C.3    37  ASN37       0.1653
      3  C         22.3080  149.6470    8.5080 C.2    37  ASN37       0.2266
      4  O         23.3790  149.3710    7.9620 O.2    37  ASN37      -0.2867
      5  CB        21.3050  147.7260    7.2390 C.3    37  ASN37       0.1155
      6  CG        20.3010  146.5850    7.2970 C.2    37  ASN37       0.2627
      7  OD1       19.3050  146.6440    8.0440 O.2    37  ASN37      -0.2716
      8  ND2       20.5210  145.5590    6.4910 N.am   37  ASN37      -0.0877
      9  N         21.6240  151.3710   13.4800 N.3    40  GLU40      -0.1245
     10  CA        21.0390  150.2900   14.3760 C.3    40  GLU40       0.1567
     11  C         21.7330  148.9260   14.2040 C.2    40  GLU40       0.2260
     12  O         21.4430  147.9610   14.9510 O.2    40  GLU40      -0.2867
     13  CB        19.5410  150.1090   14.1210 C.3    40  GLU40       0.0388
     14  CG        19.1540  149.2080   12.9370 C.3    40  GLU40       0.1160
     15  CD        19.2940  149.7610   11.5120 C.2    40  GLU40       0.3649
     16  OE1       20.1030  150.6960   11.2810 O.co2  40  GLU40      -0.2457
     17  OE2       18.5580  149.2890   10.6440 O.co2  40  GLU40      -0.2457
     18  N         15.8060  151.1490   18.2930 N.3   113  HIS113     -0.1226
     19  CA        15.2480  150.1540   17.3840 C.3   113  HIS113      0.1752
     20  C         15.1820  148.8030   18.1090 C.2   113  HIS113      0.2596
     21  O         14.9640  148.7960   19.3230 O.2   113  HIS113     -0.2718
     22  CB        16.0060  150.1710   16.0540 C.3   113  HIS113      0.0759
     23  CG        15.2850  149.7140   14.8450 C.ar  113  HIS113      0.0818
     24  ND1       14.3290  150.4610   14.2500 N.ar  113  HIS113     -0.2268
     25  CD2       15.4810  148.6310   14.0420 C.ar  113  HIS113      0.1154
     26  CE1       13.8930  149.8260   13.1660 C.ar  113  HIS113      0.1986
     27  NE2       14.6240  148.7100   12.9930 N.ar  113  HIS113     -0.2212
     28  N         15.1090  147.7070   17.3290 N.am  114  TRP114     -0.1976
     29  CA        15.0910  146.2930   17.8190 C.3   114  TRP114      0.1640
     30  C         16.2200  146.1270   18.8260 C.2   114  TRP114      0.2290
     31  O         15.9560  145.6820   19.9540 O.2   114  TRP114     -0.2864
     32  CB        15.1150  145.2690   16.6450 C.3   114  TRP114      0.0576
     33  CG        15.4480  143.8510   17.0560 C.ar  114  TRP114      0.0006
     34  CD1       14.6360  143.0050   17.7480 C.ar  114  TRP114      0.0946
     35  CD2       16.7040  143.1380   16.9090 C.ar  114  TRP114      0.0152
     36  NE1       15.2760  141.8200   18.0390 N.ar  114  TRP114     -0.2442
     37  CE2       16.5540  141.8710   17.5310 C.ar  114  TRP114      0.0810
     38  CE3       17.9440  143.4350   16.3230 C.ar  114  TRP114      0.0012
     39  CZ2       17.5570  140.8910   17.5180 C.ar  114  TRP114      0.0191
     40  CZ3       18.9460  142.4680   16.3260 C.ar  114  TRP114      0.0001
     41  CH2       18.7490  141.2030   16.8950 C.ar  114  TRP114      0.0015
     42  N         12.1930  144.9360   22.6990 N.3   120  GLU120     -0.1245
     43  CA        11.2910  144.5830   21.5800 C.3   120  GLU120      0.1567
     44  C         10.6770  143.1850   21.7390 C.2   120  GLU120      0.2260
     45  O          9.4790  143.0000   21.4490 O.2   120  GLU120     -0.2867
     46  CB        11.9590  144.6530   20.1970 C.3   120  GLU120      0.0388
     47  CG        10.9130  144.6390   19.0610 C.3   120  GLU120      0.1160
     48  CD        11.3920  145.2880   17.7780 C.2   120  GLU120      0.3649
     49  OE1       11.6400  144.5480   16.7880 O.co2 120  GLU120     -0.2457
     50  OE2       11.6220  146.5040   17.8090 O.co2 120  GLU120     -0.2457
     51  N         10.4590  150.5600   18.5450 N.3   159  ASN159     -0.1225
     52  CA        10.3640  150.1910   17.1270 C.3   159  ASN159      0.1785
     53  C          9.0740  149.3870   16.8660 C.2   159  ASN159      0.2597
     54  O          8.0760  149.9790   16.4990 O.2   159  ASN159     -0.2718
     55  CB        11.6480  149.5190   16.6390 C.3   159  ASN159      0.1169
     56  CG        11.5240  149.0270   15.2180 C.2   159  ASN159      0.2627
     57  OD1       11.0180  149.7550   14.3500 O.2   159  ASN159     -0.2716
     58  ND2       11.9990  147.8010   14.9970 N.am  159  ASN159     -0.0877
     59  N          9.1160  148.0540   17.0260 N.am  160  ALA160     -0.1979
     60  CA         8.0240  147.1370   16.6930 C.3   160  ALA160      0.1597
     61  C          7.7670  146.2080   17.8810 C.2   160  ALA160      0.2287
     62  O          7.8580  144.9620   17.8230 O.2   160  ALA160     -0.2864
     63  CB         8.3320  146.3970   15.3920 C.3   160  ALA160      0.0319
     64  N          3.5380  150.3720   10.8760 N.3   228  HIS228     -0.1241
     65  CA         4.3790  149.9540    9.7120 C.3   228  HIS228      0.1621
     66  C          3.4570  149.2210    8.7260 C.2   228  HIS228      0.2264
     67  O          2.2760  148.9720    9.0360 O.2   228  HIS228     -0.2867
     68  CB         5.6120  149.1250   10.1810 C.3   228  HIS228      0.0745
     69  CG         6.6200  149.8400   11.0260 C.ar  228  HIS228      0.0817
     70  ND1        7.6570  149.1610   11.6750 N.ar  228  HIS228     -0.2268
     71  CD2        6.6990  151.1360   11.3960 C.ar  228  HIS228      0.1154
     72  CE1        8.3620  150.0250   12.3530 C.ar  228  HIS228      0.1986
     73  NE2        7.7770  151.2810   12.1990 N.ar  228  HIS228     -0.2212
     74  N          3.8550  146.0750    5.6490 N.3   230  TYR230     -0.1241
     75  CA         4.4240  145.1040    4.6760 C.3   230  TYR230      0.1605
     76  C          3.3220  144.1670    4.1340 C.2   230  TYR230      0.2264
     77  O          3.5510  143.0110    3.8370 O.2   230  TYR230     -0.2867
     78  CB         5.5950  144.3970    5.3420 C.3   230  TYR230      0.0534
     79  CG         6.7540  145.2750    5.7210 C.ar  230  TYR230     -0.0201
     80  CD1        7.6440  145.7340    4.7690 C.ar  230  TYR230     -0.0009
     81  CD2        6.9710  145.6530    7.0510 C.ar  230  TYR230     -0.0009
     82  CE1        8.7450  146.4900    5.1190 C.ar  230  TYR230      0.0417
     83  CE2        8.0600  146.4340    7.4170 C.ar  230  TYR230      0.0417
     84  CZ         8.9560  146.8540    6.4460 C.ar  230  TYR230      0.1957
     85  OH        10.0700  147.5640    6.7930 O.3   230  TYR230     -0.2866
     86  N          7.8620  140.6320    1.1570 N.3   237  LEU237     -0.1245
     87  CA         9.0650  140.0510    1.8290 C.3   237  LEU237      0.1561
     88  C          9.2640  138.5180    1.6640 C.2   237  LEU237      0.2260
     89  O         10.3000  138.0570    1.9310 O.2   237  LEU237     -0.2867
     90  CB         9.0340  140.3890    3.3230 C.3   237  LEU237      0.0270
     91  CG         8.8910  141.8670    3.7100 C.3   237  LEU237      0.0019
     92  CD1        8.5610  141.9900    5.1860 C.3   237  LEU237      0.0001
     93  CD2       10.1620  142.6280    3.3790 C.3   237  LEU237      0.0001
     94  N          7.5400  152.5180    8.3890 N.3   295  GLU295     -0.1196
     95  CA         8.2590  151.6060    7.4180 C.3   295  GLU295      0.1783
     96  C          7.2830  151.0360    6.3930 C.2   295  GLU295      0.2306
     97  O          6.2110  150.5290    6.7450 O.2   295  GLU295     -0.2863
     98  CB         8.9330  150.4080    8.1080 C.2   295  GLU295      0.0071
     99  CG        10.0400  150.7290    9.1050 C.2   295  GLU295      0.0834
    100  CD        10.6930  149.5380    9.8130 C.2   295  GLU295      0.3877
    101  OE1       10.4870  148.3460    9.3590 O.co2 295  GLU295     -0.2406
    102  OE2       11.3820  149.7870   10.8200 O.co2 295  GLU295     -0.2406
    103  N         11.2550  152.1000    3.6070 N.3   337  TRP337     -0.1241
    104  CA        12.3170  151.2910    4.2680 C.3   337  TRP337      0.1605
    105  C         13.4400  150.9040    3.2760 C.2   337  TRP337      0.2264
    106  O         13.2240  150.1290    2.3440 O.2   337  TRP337     -0.2867
    107  CB        11.7240  150.0480    4.9210 C.3   337  TRP337      0.0550
    108  CG        12.8150  149.2620    5.5710 C.ar  337  TRP337      0.0003
    109  CD1       13.3740  148.1080    5.0930 C.ar  337  TRP337      0.0946
    110  CD2       13.5350  149.5950    6.7700 C.ar  337  TRP337      0.0152
    111  NE1       14.3440  147.6820    5.9440 N.ar  337  TRP337     -0.2442
    112  CE2       14.4810  148.5680    6.9710 C.ar  337  TRP337      0.0810
    113  CE3       13.4620  150.6340    7.7020 C.ar  337  TRP337      0.0012
    114  CZ2       15.3960  148.6020    8.0130 C.ar  337  TRP337      0.0191
    115  CZ3       14.3400  150.6620    8.7490 C.ar  337  TRP337      0.0001
    116  CH2       15.2790  149.6430    8.9110 C.ar  337  TRP337      0.0015
    117  N         17.2270  149.2210    3.1510 N.3   339  ASN339     -0.1240
    118  CA        18.2600  148.4380    3.7980 C.3   339  ASN339      0.1653
    119  C         19.6380  148.6330    3.1290 C.2   339  ASN339      0.2266
    120  O         20.6650  148.2300    3.6810 O.2   339  ASN339     -0.2867
    121  CB        17.7890  146.9900    3.9660 C.3   339  ASN339      0.1155
    122  CG        17.9290  146.0670    2.7860 C.2   339  ASN339      0.2627
    123  OD1       18.4020  146.4190    1.6940 O.2   339  ASN339     -0.2716
    124  ND2       17.5160  144.8440    3.0430 N.am  339  ASN339     -0.0877
@<TRIPOS>BOND
     1    86    87    1
     2    88    87    1
     3    88    89    2
     4   123   122    2
     5    87    90    1
     6   106   105    2
     7   122   124   am
     8   122   121    1
     9   119   120    2
    10   119   118    1
    11   117   118    1
    12   105   104    1
    13    90    91    1
    14    93    91    1
    15   103   104    1
    16    91    92    1
    17   118   121    1
    18    77    76    2
    19    76    75    1
    20   104   107    1
    21    75    78    1
    22    75    74    1
    23    80    82   ar
    24    80    79   ar
    25   107   108    1
    26   109   108   ar
    27   109   111   ar
    28    82    84   ar
    29    78    79    1
    30   108   110   ar
    31    79    81   ar
    32   111   112   ar
    33    96    97    2
    34    96    95    1
    35    84    85    1
    36    84    83   ar
    37     8     6   am
    38   110   112   ar
    39   110   113   ar
    40   112   114   ar
    41    81    83   ar
    42     5     6    1
    43     5     2    1
    44     6     7    2
    45    95    98    1
    46    95    94    1
    47   113   115   ar
    48     4     3    2
    49   114   116   ar
    50    98    99    2
    51     1     2    1
    52     2     3    1
    53    66    67    2
    54    66    65    1
    55   115   116   ar
    56    99   100    1
    57   101   100   ar
    58    65    68    1
    59    65    64    1
    60   100   102   ar
    61    68    69    1
    62    17    15   ar
    63    69    71   ar
    64    69    70   ar
    65    16    15   ar
    66    71    73   ar
    67    15    14    1
    68    70    72   ar
    69    73    72   ar
    70    14    13    1
    71    27    26   ar
    72    27    25   ar
    73    26    24   ar
    74     9    10    1
    75    25    23   ar
    76    13    10    1
    77    11    10    1
    78    11    12    2
    79    24    23   ar
    80    57    56    2
    81    23    22    1
    82    58    56   am
    83    56    55    1
    84    63    60    1
    85    22    19    1
    86    38    40   ar
    87    38    35   ar
    88    40    41   ar
    89    54    53    2
    90    55    52    1
    91    32    33    1
    92    32    29    1
    93    60    59    1
    94    60    61    1
    95    49    48   ar
    96    53    59   am
    97    53    52    1
    98    41    39   ar
    99    35    33   ar
   100    35    37   ar
   101    33    34   ar
   102    52    51    1
   103    28    29    1
   104    28    20   am
   105    19    20    1
   106    19    18    1
   107    39    37   ar
   108    37    36   ar
   109    34    36   ar
   110    48    50   ar
   111    48    47    1
   112    29    30    1
   113    62    61    2
   114    20    21    2
   115    30    31    2
   116    47    46    1
   117    46    43    1
   118    45    44    2
   119    43    44    1
   120    43    42    1
