@<TRIPOS>MOLECULE
tmp/6ha9B00.pdb
 125 120 0 0 0
SMALL
GASTEIGER

@<TRIPOS>ATOM
      1  N         10.4590  150.5600   18.5450 N.3   159  ASN159     -0.1225
      2  CA        10.3640  150.1910   17.1270 C.3   159  ASN159      0.1785
      3  C          9.0740  149.3870   16.8660 C.2   159  ASN159      0.2597
      4  O          8.0760  149.9790   16.4990 O.2   159  ASN159     -0.2718
      5  CB        11.6480  149.5190   16.6390 C.3   159  ASN159      0.1169
      6  CG        11.5240  149.0270   15.2180 C.2   159  ASN159      0.2627
      7  OD1       11.0180  149.7550   14.3500 O.2   159  ASN159     -0.2716
      8  ND2       11.9990  147.8010   14.9970 N.am  159  ASN159     -0.0877
      9  N          9.1160  148.0540   17.0260 N.am  160  ALA160     -0.1979
     10  CA         8.0240  147.1370   16.6930 C.3   160  ALA160      0.1597
     11  C          7.7670  146.2080   17.8810 C.2   160  ALA160      0.2287
     12  O          7.8580  144.9620   17.8230 O.2   160  ALA160     -0.2864
     13  CB         8.3320  146.3970   15.3920 C.3   160  ALA160      0.0319
     14  N          0.8840  141.0530   21.7630 N.3   164  GLU164     -0.1245
     15  CA        -0.0480  140.2390   20.9120 C.3   164  GLU164      0.1567
     16  C         -1.4320  140.1190   21.5550 C.2   164  GLU164      0.2260
     17  O         -2.3380  139.5810   20.9260 O.2   164  GLU164     -0.2867
     18  CB         0.5520  138.8460   20.6650 C.3   164  GLU164      0.0388
     19  CG         1.7590  138.8450   19.7140 C.3   164  GLU164      0.1160
     20  CD         1.4700  138.6380   18.2310 C.2   164  GLU164      0.3649
     21  OE1        0.4270  138.0080   17.9000 O.co2 164  GLU164     -0.2457
     22  OE2        2.3020  139.0600   17.3960 O.co2 164  GLU164     -0.2457
     23  N          3.3370  145.6400   17.6100 N.3   201  VAL201     -0.1231
     24  CA         4.0840  145.0950   16.4840 C.3   201  VAL201      0.1692
     25  C          4.1010  146.0820   15.3090 C.2   201  VAL201      0.2593
     26  O          4.3870  145.7080   14.1760 O.2   201  VAL201     -0.2718
     27  CB         3.6050  143.6800   16.0990 C.3   201  VAL201      0.0266
     28  CG1        4.7360  142.8070   15.6000 C.3   201  VAL201      0.0020
     29  CG2        2.8790  142.9550   17.2470 C.3   201  VAL201      0.0020
     30  N          3.7680  147.3430   15.5890 N.am  202  THR202     -0.1939
     31  CA         3.4350  148.3900   14.6070 C.3   202  THR202      0.2028
     32  C          2.4960  147.8380   13.5030 C.2   202  THR202      0.2642
     33  O          2.5500  148.2210   12.3230 O.2   202  THR202     -0.2714
     34  CB         4.7010  149.0960   14.0910 C.3   202  THR202      0.1808
     35  OG1        5.6650  148.1080   13.6840 O.3   202  THR202     -0.2208
     36  CG2        5.2960  150.0530   15.1250 C.3   202  THR202      0.0379
     37  N          1.6500  146.9050   13.8890 N.am  203  ASP203     -0.1971
     38  CA         0.6780  146.2480   13.0030 C.3   203  ASP203      0.1709
     39  C         -0.6500  146.9910   13.0840 C.2   203  ASP203      0.2293
     40  O         -1.1630  147.1740   14.1760 O.2   203  ASP203     -0.2864
     41  CB         0.4380  144.7900   13.4210 C.3   203  ASP203      0.1436
     42  CG        -0.5020  144.0290   12.4910 C.2   203  ASP203      0.3671
     43  OD1       -0.1540  143.8560   11.3080 O.co2 203  ASP203     -0.2456
     44  OD2       -1.5330  143.6130   12.9460 O.co2 203  ASP203     -0.2456
     45  N         -3.5420  144.7200   14.7440 N.3   206  LYS206     -0.1245
     46  CA        -3.3650  144.5990   16.2400 C.3   206  LYS206      0.1561
     47  C         -3.6380  145.9400   16.9470 C.2   206  LYS206      0.2260
     48  O         -4.1730  145.9790   18.1100 O.2   206  LYS206     -0.2867
     49  CB        -2.0030  143.9890   16.6090 C.3   206  LYS206      0.0271
     50  CG        -1.9980  142.4920   16.6110 C.3   206  LYS206      0.0035
     51  CD        -0.5890  141.9410   16.7850 C.3   206  LYS206      0.0206
     52  CE         0.0070  141.5480   15.4180 C.3   206  LYS206      0.1093
     53  NZ        -0.7670  140.5010   14.6590 N.3   206  LYS206     -0.1314
     54  N          3.5380  150.3720   10.8760 N.3   228  HIS228     -0.1241
     55  CA         4.3790  149.9540    9.7120 C.3   228  HIS228      0.1621
     56  C          3.4570  149.2210    8.7260 C.2   228  HIS228      0.2264
     57  O          2.2760  148.9720    9.0360 O.2   228  HIS228     -0.2867
     58  CB         5.6120  149.1250   10.1810 C.3   228  HIS228      0.0745
     59  CG         6.6200  149.8400   11.0260 C.ar  228  HIS228      0.0817
     60  ND1        7.6570  149.1610   11.6750 N.ar  228  HIS228     -0.2268
     61  CD2        6.6990  151.1360   11.3960 C.ar  228  HIS228      0.1154
     62  CE1        8.3620  150.0250   12.3530 C.ar  228  HIS228      0.1986
     63  NE2        7.7770  151.2810   12.1990 N.ar  228  HIS228     -0.2212
     64  N          3.8550  146.0750    5.6490 N.3   230  TYR230     -0.1227
     65  CA         4.4240  145.1040    4.6760 C.3   230  TYR230      0.1736
     66  C          3.3220  144.1670    4.1340 C.2   230  TYR230      0.2596
     67  O          3.5510  143.0110    3.8370 O.2   230  TYR230     -0.2718
     68  CB         5.5950  144.3970    5.3420 C.3   230  TYR230      0.0548
     69  CG         6.7540  145.2750    5.7210 C.ar  230  TYR230     -0.0200
     70  CD1        7.6440  145.7340    4.7690 C.ar  230  TYR230     -0.0009
     71  CD2        6.9710  145.6530    7.0510 C.ar  230  TYR230     -0.0009
     72  CE1        8.7450  146.4900    5.1190 C.ar  230  TYR230      0.0417
     73  CE2        8.0600  146.4340    7.4170 C.ar  230  TYR230      0.0417
     74  CZ         8.9560  146.8540    6.4460 C.ar  230  TYR230      0.1957
     75  OH        10.0700  147.5640    6.7930 O.3   230  TYR230     -0.2866
     76  N          2.1090  144.7010    3.9430 N.am  231  THR231     -0.1953
     77  CA         0.9300  143.9360    3.5080 C.3   231  THR231      0.1897
     78  C          0.7850  143.9520    1.9750 C.2   231  THR231      0.2313
     79  O          0.8920  145.0090    1.3500 O.2   231  THR231     -0.2863
     80  CB        -0.3320  144.5310    4.1490 C.3   231  THR231      0.1794
     81  OG1       -0.3570  144.2580    5.5540 O.3   231  THR231     -0.2208
     82  CG2       -1.5930  143.9850    3.5200 C.3   231  THR231      0.0378
     83  N          2.5150  140.3170    2.9960 N.3   233  TYR233     -0.1241
     84  CA         3.8610  139.7150    3.2080 C.3   233  TYR233      0.1605
     85  C          4.2620  138.8820    1.9600 C.2   233  TYR233      0.2264
     86  O          5.4100  138.9810    1.5210 O.2   233  TYR233     -0.2867
     87  CB         3.8640  138.9130    4.5190 C.3   233  TYR233      0.0534
     88  CG         5.1450  138.2010    4.8650 C.ar  233  TYR233     -0.0201
     89  CD1        5.4050  136.9010    4.4290 C.ar  233  TYR233     -0.0009
     90  CD2        6.0900  138.8080    5.6630 C.ar  233  TYR233     -0.0009
     91  CE1        6.5930  136.2430    4.7420 C.ar  233  TYR233      0.0417
     92  CE2        7.2760  138.1700    5.9950 C.ar  233  TYR233      0.0417
     93  CZ         7.5240  136.8830    5.5410 C.ar  233  TYR233      0.1957
     94  OH         8.7240  136.3280    5.8540 O.3   233  TYR233     -0.2866
     95  N          7.8620  140.6320    1.1570 N.3   237  LEU237     -0.1245
     96  CA         9.0650  140.0510    1.8290 C.3   237  LEU237      0.1561
     97  C          9.2640  138.5180    1.6640 C.2   237  LEU237      0.2260
     98  O         10.3000  138.0570    1.9310 O.2   237  LEU237     -0.2867
     99  CB         9.0340  140.3890    3.3230 C.3   237  LEU237      0.0270
    100  CG         8.8910  141.8670    3.7100 C.3   237  LEU237      0.0019
    101  CD1        8.5610  141.9900    5.1860 C.3   237  LEU237      0.0001
    102  CD2       10.1620  142.6280    3.3790 C.3   237  LEU237      0.0001
    103  N         -5.0100  137.9030   -1.7520 N.3   267  TRP267     -0.1241
    104  CA        -5.4420  138.7970   -0.6420 C.3   267  TRP267      0.1605
    105  C         -4.4850  140.0000   -0.6430 C.2   267  TRP267      0.2264
    106  O         -3.4080  139.9400   -1.2420 O.2   267  TRP267     -0.2867
    107  CB        -5.4350  138.0860    0.7450 C.3   267  TRP267      0.0550
    108  CG        -4.0670  137.7270    1.2560 C.ar  267  TRP267      0.0003
    109  CD1       -3.3560  136.6090    0.9270 C.ar  267  TRP267      0.0946
    110  CD2       -3.2700  138.4160    2.2460 C.ar  267  TRP267      0.0152
    111  NE1       -2.1580  136.5930    1.5810 N.ar  267  TRP267     -0.2442
    112  CE2       -2.0650  137.6990    2.3800 C.ar  267  TRP267      0.0810
    113  CE3       -3.4160  139.5950    2.9870 C.ar  267  TRP267      0.0012
    114  CZ2       -1.0360  138.1130    3.2260 C.ar  267  TRP267      0.0191
    115  CZ3       -2.4000  140.0010    3.8220 C.ar  267  TRP267      0.0001
    116  CH2       -1.2240  139.2750    3.9350 C.ar  267  TRP267      0.0015
    117  N          7.5400  152.5180    8.3890 N.3   295  GLU295     -0.1196
    118  CA         8.2590  151.6060    7.4180 C.3   295  GLU295      0.1783
    119  C          7.2830  151.0360    6.3930 C.2   295  GLU295      0.2306
    120  O          6.2110  150.5290    6.7450 O.2   295  GLU295     -0.2863
    121  CB         8.9330  150.4080    8.1080 C.2   295  GLU295      0.0071
    122  CG        10.0400  150.7290    9.1050 C.2   295  GLU295      0.0834
    123  CD        10.6930  149.5380    9.8130 C.2   295  GLU295      0.3877
    124  OE1       10.4870  148.3460    9.3590 O.co2 295  GLU295     -0.2406
    125  OE2       11.3820  149.7870   10.8200 O.co2 295  GLU295     -0.2406
@<TRIPOS>BOND
     1   103   104    1
     2   106   105    2
     3   105   104    1
     4   104   107    1
     5   107   108    1
     6   109   108   ar
     7   109   111   ar
     8    95    96    1
     9   108   110   ar
    10    79    78    2
    11    86    85    2
    12   111   112   ar
    13    97    96    1
    14    97    98    2
    15    96    99    1
    16    85    84    1
    17    78    77    1
    18   110   112   ar
    19   110   113   ar
    20   112   114   ar
    21   113   115   ar
    22    83    84    1
    23    84    87    1
    24   114   116   ar
    25    99   100    1
    26   102   100    1
    27    77    76    1
    28    77    80    1
    29    82    80    1
    30   100   101    1
    31   115   116   ar
    32    67    66    2
    33    76    66   am
    34    66    65    1
    35    80    81    1
    36    89    91   ar
    37    89    88   ar
    38    87    88    1
    39    65    68    1
    40    65    64    1
    41    91    93   ar
    42    70    72   ar
    43    70    69   ar
    44    88    90   ar
    45    72    74   ar
    46    68    69    1
    47    93    94    1
    48    93    92   ar
    49    90    92   ar
    50    69    71   ar
    51   119   120    2
    52   119   118    1
    53    74    75    1
    54    74    73   ar
    55    71    73   ar
    56   118   121    1
    57   118   117    1
    58   121   122    2
    59    56    57    2
    60    56    55    1
    61   122   123    1
    62   124   123   ar
    63    55    58    1
    64    55    54    1
    65   123   125   ar
    66    58    59    1
    67    59    61   ar
    68    59    60   ar
    69    43    42   ar
    70    61    63   ar
    71    60    62   ar
    72    63    62   ar
    73    33    32    2
    74    42    44   ar
    75    42    41    1
    76    38    39    1
    77    38    41    1
    78    38    37    1
    79    39    40    2
    80    32    37   am
    81    32    31    1
    82    35    34    1
    83    34    31    1
    84    34    36    1
    85    26    25    2
    86     7     6    2
    87    31    30    1
    88    53    52    1
    89    45    46    1
    90     8     6   am
    91     6     5    1
    92    25    30   am
    93    25    24    1
    94    13    10    1
    95    52    51    1
    96    28    27    1
    97    27    24    1
    98    27    29    1
    99    46    49    1
   100    46    47    1
   101    24    23    1
   102     4     3    2
   103    49    50    1
   104    50    51    1
   105     5     2    1
   106    10     9    1
   107    10    11    1
   108     3     9   am
   109     3     2    1
   110    47    48    2
   111     2     1    1
   112    22    20   ar
   113    12    11    2
   114    21    20   ar
   115    20    19    1
   116    19    18    1
   117    18    15    1
   118    15    16    1
   119    15    14    1
   120    17    16    2
