@<TRIPOS>MOLECULE
tmp/6haaA00.pdb
 129 127 0 0 0
SMALL
GASTEIGER

@<TRIPOS>ATOM
      1  N         -1.6140  123.1140   31.4030 N.3    37  ASN37      -0.1240
      2  CA        -2.0870  124.2630   32.1660 C.3    37  ASN37       0.1653
      3  C         -2.1710  123.9270   33.6390 C.2    37  ASN37       0.2266
      4  O         -3.1150  124.3930   34.2910 O.2    37  ASN37      -0.2867
      5  CB        -3.4990  124.7880   31.6940 C.3    37  ASN37       0.1155
      6  CG        -3.4310  125.6700   30.4620 C.2    37  ASN37       0.2627
      7  OD1       -2.3380  125.8970   29.8780 O.2    37  ASN37      -0.2716
      8  ND2       -4.5890  126.1950   30.0590 N.am   37  ASN37      -0.0877
      9  N          2.8560  124.0510   35.0160 N.3    40  GLU40      -0.1245
     10  CA         3.4360  125.1950   34.4030 C.3    40  GLU40       0.1567
     11  C          2.6850  126.4910   34.4660 C.2    40  GLU40       0.2260
     12  O          3.1160  127.4950   33.9280 O.2    40  GLU40      -0.2867
     13  CB         3.8110  124.8930   32.9330 C.3    40  GLU40       0.0388
     14  CG         2.7380  125.0900   31.8910 C.3    40  GLU40       0.1160
     15  CD         1.6090  124.0790   31.8960 C.2    40  GLU40       0.3649
     16  OE1        1.2920  123.3300   32.9060 O.co2  40  GLU40      -0.2457
     17  OE2        0.9460  124.0140   30.8270 O.co2  40  GLU40      -0.2457
     18  N         -4.4800  128.4580   36.4680 N.3    48  TRP48      -0.1241
     19  CA        -5.0800  128.4360   35.1590 C.3    48  TRP48       0.1605
     20  C         -6.3080  127.5190   35.1070 C.2    48  TRP48       0.2264
     21  O         -6.5770  126.9510   34.0560 O.2    48  TRP48      -0.2867
     22  CB        -4.0370  128.1260   34.0750 C.3    48  TRP48       0.0550
     23  CG        -3.0670  129.1930   33.8110 C.ar   48  TRP48       0.0003
     24  CD1       -3.0750  130.4560   34.2900 C.ar   48  TRP48       0.0946
     25  CD2       -1.9320  129.1140   32.9340 C.ar   48  TRP48       0.0152
     26  NE1       -2.0160  131.1690   33.7900 N.ar   48  TRP48      -0.2442
     27  CE2       -1.2840  130.3420   32.9800 C.ar   48  TRP48       0.0810
     28  CE3       -1.4110  128.1090   32.1230 C.ar   48  TRP48       0.0012
     29  CZ2       -0.1780  130.6340   32.2140 C.ar   48  TRP48       0.0191
     30  CZ3       -0.2480  128.3610   31.4320 C.ar   48  TRP48       0.0001
     31  CH2        0.3780  129.6280   31.4980 C.ar   48  TRP48       0.0015
     32  N          9.2570  124.4310   31.0320 N.3   113  HIS113     -0.1226
     33  CA         8.3170  124.8720   29.9770 C.3   113  HIS113      0.1752
     34  C          8.6090  126.2780   29.4760 C.2   113  HIS113      0.2596
     35  O          9.7190  126.8010   29.6950 O.2   113  HIS113     -0.2718
     36  CB         6.9010  124.6840   30.4830 C.3   113  HIS113      0.0759
     37  CG         5.8990  124.4580   29.4300 C.ar  113  HIS113      0.0818
     38  ND1        5.8450  123.3050   28.6700 N.ar  113  HIS113     -0.2268
     39  CD2        4.8730  125.2430   29.0170 C.ar  113  HIS113      0.1154
     40  CE1        4.8370  123.4250   27.8150 C.ar  113  HIS113      0.1986
     41  NE2        4.2420  124.5820   28.0080 N.ar  113  HIS113     -0.2212
     42  N          7.6720  126.9120   28.7750 N.am  114  TRP114     -0.1976
     43  CA         7.7570  128.3540   28.4720 C.3   114  TRP114      0.1640
     44  C          8.2330  129.2060   29.6730 C.2   114  TRP114      0.2290
     45  O          9.1320  130.0140   29.5980 O.2   114  TRP114     -0.2864
     46  CB         6.4230  128.9100   27.9560 C.3   114  TRP114      0.0576
     47  CG         6.4210  130.3400   27.8140 C.ar  114  TRP114      0.0006
     48  CD1        7.1110  131.0470   26.8740 C.ar  114  TRP114      0.0946
     49  CD2        5.6390  131.2840   28.5510 C.ar  114  TRP114      0.0152
     50  NE1        6.8510  132.3800   26.9840 N.ar  114  TRP114     -0.2442
     51  CE2        5.9310  132.5590   28.0140 C.ar  114  TRP114      0.0810
     52  CE3        4.7310  131.1870   29.6220 C.ar  114  TRP114      0.0012
     53  CZ2        5.3760  133.7260   28.4910 C.ar  114  TRP114      0.0191
     54  CZ3        4.1690  132.3900   30.1040 C.ar  114  TRP114      0.0001
     55  CH2        4.4870  133.6360   29.5380 C.ar  114  TRP114      0.0015
     56  N         11.0770  123.6080   26.0180 N.3   159  ASN159     -0.1225
     57  CA         9.7240  123.3020   25.5280 C.3   159  ASN159      0.1785
     58  C          9.6590  123.6590   24.0360 C.2   159  ASN159      0.2597
     59  O          9.8040  122.7690   23.1880 O.2   159  ASN159     -0.2718
     60  CB         8.6450  124.0330   26.3830 C.3   159  ASN159      0.1169
     61  CG         7.3130  124.1310   25.6820 C.2   159  ASN159      0.2627
     62  OD1        6.7690  123.1380   25.3090 O.2   159  ASN159     -0.2716
     63  ND2        6.7680  125.3610   25.5690 N.am  159  ASN159     -0.0877
     64  N          9.5300  124.9320   23.7010 N.am  160  ALA160     -0.1979
     65  CA         9.3740  125.3500   22.3030 C.3   160  ALA160      0.1597
     66  C         10.3400  126.4970   21.9410 C.2   160  ALA160      0.2287
     67  O          9.9340  127.5920   21.6510 O.2   160  ALA160     -0.2864
     68  CB         7.9220  125.7500   22.0580 C.3   160  ALA160      0.0319
     69  N          6.6450  119.4570   18.0840 N.3   228  HIS228     -0.1241
     70  CA         5.2860  119.6800   18.3190 C.3   228  HIS228      0.1621
     71  C          4.5780  119.8070   16.9760 C.2   228  HIS228      0.2264
     72  O          5.2520  119.7490   15.9370 O.2   228  HIS228     -0.2867
     73  CB         5.1330  120.9480   19.1620 C.3   228  HIS228      0.0745
     74  CG         5.7590  120.8390   20.5260 C.ar  228  HIS228      0.0817
     75  ND1        5.9650  121.9470   21.3470 N.ar  228  HIS228     -0.2268
     76  CD2        6.3080  119.7730   21.1680 C.ar  228  HIS228      0.1154
     77  CE1        6.5960  121.5360   22.4420 C.ar  228  HIS228      0.1986
     78  NE2        6.7670  120.2150   22.3800 N.ar  228  HIS228     -0.2212
     79  N          0.8540  121.4850   15.1500 N.3   230  TYR230     -0.1241
     80  CA        -0.4600  122.0840   15.0530 C.3   230  TYR230      0.1605
     81  C         -0.8180  122.3460   13.5560 C.2   230  TYR230      0.2264
     82  O         -1.5770  123.2070   13.2320 O.2   230  TYR230     -0.2867
     83  CB        -0.5050  123.3820   15.8630 C.3   230  TYR230      0.0534
     84  CG        -0.5970  123.0250   17.3020 C.ar  230  TYR230     -0.0201
     85  CD1       -1.8090  122.6470   17.8430 C.ar  230  TYR230     -0.0009
     86  CD2        0.5150  122.9520   18.0870 C.ar  230  TYR230     -0.0009
     87  CE1       -1.9210  122.2680   19.1690 C.ar  230  TYR230      0.0417
     88  CE2        0.4140  122.5920   19.4210 C.ar  230  TYR230      0.0417
     89  CZ        -0.7970  122.2280   19.9650 C.ar  230  TYR230      0.1957
     90  OH        -0.9250  121.8460   21.3120 O.3   230  TYR230     -0.2866
     91  N         -5.9540  125.7040   15.8730 N.3   237  LEU237     -0.1245
     92  CA        -5.8830  126.7470   16.9210 C.3   237  LEU237      0.1561
     93  C         -6.5340  128.1140   16.6350 C.2   237  LEU237      0.2260
     94  O         -6.9040  128.8250   17.5840 O.2   237  LEU237     -0.2867
     95  CB        -4.4170  126.9660   17.3260 C.3   237  LEU237      0.0270
     96  CG        -3.6920  125.8380   18.0580 C.3   237  LEU237      0.0019
     97  CD1       -2.2250  126.2040   18.2660 C.3   237  LEU237      0.0001
     98  CD2       -4.4010  125.5430   19.3620 C.3   237  LEU237      0.0001
     99  N          3.5080  117.6680   21.7330 N.3   295  GLU295     -0.1245
    100  CA         2.3370  118.4380   21.8190 C.3   295  GLU295      0.1567
    101  C          1.5590  118.4500   20.4860 C.2   295  GLU295      0.2260
    102  O          2.1600  118.8070   19.5050 O.2   295  GLU295     -0.2867
    103  CB         2.8140  119.8360   22.1400 C.3   295  GLU295      0.0388
    104  CG         1.8060  120.8750   22.5420 C.3   295  GLU295      0.1160
    105  CD         2.2980  122.3090   22.4050 C.2   295  GLU295      0.3649
    106  OE1        2.0280  123.1460   23.3250 O.co2 295  GLU295     -0.2457
    107  OE2        2.9200  122.6160   21.3390 O.co2 295  GLU295     -0.2457
    108  N         -2.0760  117.2180   23.6830 N.3   337  TRP337     -0.1241
    109  CA        -2.0180  118.4470   24.4940 C.3   337  TRP337      0.1605
    110  C         -3.4190  118.6600   25.0850 C.2   337  TRP337      0.2264
    111  O         -4.3430  119.0930   24.4060 O.2   337  TRP337     -0.2867
    112  CB        -1.6050  119.7070   23.6640 C.3   337  TRP337      0.0550
    113  CG        -1.6380  120.9050   24.5290 C.ar  337  TRP337      0.0003
    114  CD1       -2.5010  121.8780   24.4830 C.ar  337  TRP337      0.0946
    115  CD2       -0.7310  121.2130   25.6240 C.ar  337  TRP337      0.0152
    116  NE1       -2.2360  122.7880   25.4410 N.ar  337  TRP337     -0.2442
    117  CE2       -1.1590  122.4010   26.1690 C.ar  337  TRP337      0.0810
    118  CE3        0.3710  120.5670   26.1620 C.ar  337  TRP337      0.0012
    119  CZ2       -0.5460  122.9980   27.2720 C.ar  337  TRP337      0.0191
    120  CZ3        1.0220  121.1210   27.2310 C.ar  337  TRP337      0.0001
    121  CH2        0.5830  122.3520   27.7640 C.ar  337  TRP337      0.0015
    122  N         -5.3830  120.9150   27.9170 N.3   339  ASN339     -0.1240
    123  CA        -5.3540  122.1220   28.7710 C.3   339  ASN339      0.1653
    124  C         -6.3170  122.1720   29.9290 C.2   339  ASN339      0.2266
    125  O         -6.3920  123.1470   30.6540 O.2   339  ASN339     -0.2867
    126  CB        -5.3390  123.4130   27.9610 C.3   339  ASN339      0.1155
    127  CG        -6.6810  123.8270   27.3870 C.2   339  ASN339      0.2627
    128  OD1       -7.6610  123.1060   27.4730 O.2   339  ASN339     -0.2716
    129  ND2       -6.7070  125.0390   26.7990 N.am  339  ASN339     -0.0877
@<TRIPOS>BOND
     1    82    81    2
     2    81    80    1
     3    80    79    1
     4    80    83    1
     5    83    84    1
     6    91    92    1
     7    72    71    2
     8    93    92    1
     9    93    94    2
    10    92    95    1
    11    71    70    1
    12    84    85   ar
    13    84    86   ar
    14    95    96    1
    15    85    87   ar
    16    96    97    1
    17    96    98    1
    18    69    70    1
    19    86    88   ar
    20    70    73    1
    21    73    74    1
    22    87    89   ar
    23    88    89   ar
    24   102   101    2
    25    89    90    1
    26   101   100    1
    27    74    76   ar
    28    74    75   ar
    29    76    78   ar
    30   107   105   ar
    31    75    77   ar
    32    67    66    2
    33    99   100    1
    34   100   103    1
    35    66    65    1
    36    68    65    1
    37   103   104    1
    38    65    64    1
    39    78    77   ar
    40   105   104    1
    41   105   106   ar
    42    59    58    2
    43   112   109    1
    44   112   113    1
    45   108   109    1
    46    64    58   am
    47    58    57    1
    48   111   110    2
    49   114   113   ar
    50   114   116   ar
    51   109   110    1
    52   113   115   ar
    53    62    61    2
    54   116   117   ar
    55    57    56    1
    56    57    60    1
    57    63    61   am
    58   115   118   ar
    59   115   117   ar
    60    61    60    1
    61   118   120   ar
    62   117   119   ar
    63   129   127   am
    64    48    50   ar
    65    48    47   ar
    66    50    51   ar
    67   120   121   ar
    68   119   121   ar
    69   127   128    2
    70   127   126    1
    71    47    46    1
    72    47    49   ar
    73    40    41   ar
    74    40    38   ar
    75   122   123    1
    76    46    43    1
    77   126   123    1
    78    41    39   ar
    79    51    53   ar
    80    51    49   ar
    81    43    42    1
    82    43    44    1
    83    53    55   ar
    84    49    52   ar
    85    38    37   ar
    86   123   124    1
    87    42    34   am
    88    39    37   ar
    89    37    36    1
    90    34    35    2
    91    34    33    1
    92    55    54   ar
    93    45    44    2
    94    52    54   ar
    95     7     6    2
    96   124   125    2
    97    33    36    1
    98    33    32    1
    99     8     6   am
   100     6     5    1
   101    17    15   ar
   102     1     2    1
   103    30    31   ar
   104    30    28   ar
   105    31    29   ar
   106     5     2    1
   107    14    15    1
   108    14    13    1
   109    15    16   ar
   110    28    25   ar
   111     2     3    1
   112    29    27   ar
   113    13    10    1
   114    25    27   ar
   115    25    23   ar
   116    27    26   ar
   117     3     4    2
   118    26    24   ar
   119    23    22    1
   120    23    24   ar
   121    12    11    2
   122    21    20    2
   123    22    19    1
   124    10    11    1
   125    10     9    1
   126    20    19    1
   127    19    18    1
