@<TRIPOS>MOLECULE
tmp/6habA00.pdb
 113 103 0 0 0
SMALL
GASTEIGER

@<TRIPOS>ATOM
      1  N         53.6550    2.4200   23.1010 N.3     6  ASP6       -0.1239
      2  CA        53.0880    3.3720   24.0900 C.3     6  ASP6        0.1674
      3  C         53.9860    4.6130   24.1070 C.2     6  ASP6        0.2266
      4  O         55.1090    4.5250   24.6410 O.2     6  ASP6       -0.2867
      5  CB        52.9680    2.7250   25.4730 C.3     6  ASP6        0.1410
      6  CG        52.5200    3.6670   26.5780 C.2     6  ASP6        0.3668
      7  OD1       51.9830    4.7440   26.2600 O.co2   6  ASP6       -0.2456
      8  OD2       52.7090    3.3110   27.7500 O.co2   6  ASP6       -0.2456
      9  N         54.3320    7.7800   25.8150 N.3     8  GLY8       -0.1210
     10  CA        53.8630    8.4160   27.0620 C.3     8  GLY8        0.1956
     11  C         54.4050    9.8250   27.2370 C.2     8  GLY8        0.2612
     12  O         55.3460   10.2020   26.5080 O.2     8  GLY8       -0.2717
     13  N         53.8200   10.5790   28.1730 N.am    9  THR9       -0.1952
     14  CA        54.2320   11.9570   28.5500 C.3     9  THR9        0.1897
     15  C         55.6670   11.9340   29.0950 C.2     9  THR9        0.2313
     16  O         56.4620   12.7890   28.6670 O.2     9  THR9       -0.2863
     17  CB        53.2510   12.5640   29.5630 C.3     9  THR9        0.1794
     18  OG1       51.9580   12.6060   28.9610 O.3     9  THR9       -0.2208
     19  CG2       53.6330   13.9590   30.0110 C.3     9  THR9        0.0378
     20  N         57.5090    8.5930   30.0360 N.3    11  TYR11      -0.1241
     21  CA        58.1950    7.3620   29.5540 C.3    11  TYR11       0.1605
     22  C         57.4600    6.7810   28.3440 C.2    11  TYR11       0.2264
     23  O         56.2370    6.9680   28.2250 O.2    11  TYR11      -0.2867
     24  CB        58.2530    6.2940   30.6480 C.3    11  TYR11       0.0534
     25  CG        59.1060    6.6390   31.8410 C.ar   11  TYR11      -0.0201
     26  CD1       58.5660    7.2990   32.9330 C.ar   11  TYR11      -0.0009
     27  CD2       60.4480    6.2920   31.8910 C.ar   11  TYR11      -0.0009
     28  CE1       59.3360    7.6150   34.0410 C.ar   11  TYR11       0.0417
     29  CE2       61.2320    6.5990   32.9920 C.ar   11  TYR11       0.0417
     30  CZ        60.6740    7.2650   34.0700 C.ar   11  TYR11       0.1957
     31  OH        61.4340    7.5750   35.1610 O.3    11  TYR11      -0.2866
     32  N         54.4070   15.8220   24.6060 N.3    64  LYS64      -0.1245
     33  CA        53.0200   15.2820   24.5240 C.3    64  LYS64       0.1561
     34  C         52.0100   16.2960   25.0840 C.2    64  LYS64       0.2260
     35  O         50.8390   16.2320   24.6740 O.2    64  LYS64      -0.2867
     36  CB        52.9220   13.9450   25.2650 C.3    64  LYS64       0.0271
     37  CG        51.6150   13.1910   25.0620 C.3    64  LYS64       0.0035
     38  CD        51.6570   11.7600   25.5590 C.3    64  LYS64       0.0206
     39  CE        50.3460   11.0270   25.3800 C.3    64  LYS64       0.1093
     40  NZ        50.4370    9.6250   25.8540 N.3    64  LYS64      -0.1314
     41  N         44.6440    4.6800   24.8240 N.3   167  GLU167     -0.1245
     42  CA        45.4740    4.0450   25.8840 C.3   167  GLU167      0.1567
     43  C         44.6150    3.1280   26.7580 C.2   167  GLU167      0.2260
     44  O         44.9910    1.9770   26.9840 O.2   167  GLU167     -0.2867
     45  CB        46.2110    5.1270   26.6760 C.3   167  GLU167      0.0388
     46  CG        47.4210    5.6690   25.9280 C.3   167  GLU167      0.1160
     47  CD        47.9700    6.9990   26.4160 C.2   167  GLU167      0.3649
     48  OE1       47.6720    7.3800   27.5700 O.co2 167  GLU167     -0.2457
     49  OE2       48.7040    7.6490   25.6360 O.co2 167  GLU167     -0.2457
     50  N         44.8340    5.0110   35.4850 N.3   190  ASP190     -0.1239
     51  CA        46.1550    5.1960   34.8190 C.3   190  ASP190      0.1674
     52  C         46.9360    6.3000   35.5420 C.2   190  ASP190      0.2266
     53  O         46.6730    7.4840   35.2730 O.2   190  ASP190     -0.2867
     54  CB        45.9740    5.5190   33.3320 C.3   190  ASP190      0.1410
     55  CG        47.2670    5.6340   32.5410 C.2   190  ASP190      0.3668
     56  OD1       48.3200    5.9080   33.1570 O.co2 190  ASP190     -0.2456
     57  OD2       47.2080    5.4550   31.3080 O.co2 190  ASP190     -0.2456
     58  N         50.5840    7.4810   35.7050 N.3   192  GLY192     -0.1210
     59  CA        51.9000    7.4250   35.0400 C.3   192  GLY192      0.1956
     60  C         52.9360    8.2510   35.7820 C.2   192  GLY192      0.2612
     61  O         52.6990    8.5850   36.9630 O.2   192  GLY192     -0.2717
     62  N         54.0490    8.5680   35.1160 N.am  193  GLY193     -0.1956
     63  CA        55.1700    9.3290   35.6970 C.3   193  GLY193      0.1869
     64  C         54.7810   10.7610   36.0190 C.2   193  GLY193      0.2309
     65  O         55.2530   11.2730   37.0530 O.2   193  GLY193     -0.2863
     66  N         51.2940   12.1700   34.8110 N.3   195  THR195     -0.1218
     67  CA        49.8670   12.3840   34.4480 C.3   195  THR195      0.1862
     68  C         48.9860   11.3200   35.1070 C.2   195  THR195      0.2287
     69  O         49.4500   10.1720   35.2390 O.2   195  THR195     -0.2866
     70  CB        49.6590   12.3360   32.9310 C.3   195  THR195      0.1770
     71  OG1       50.1960   11.0920   32.4770 O.3   195  THR195     -0.2211
     72  CG2       50.3080   13.4950   32.2070 C.3   195  THR195      0.0375
     73  N         45.1000    9.7460   34.5580 N.3   197  ASP197     -0.1239
     74  CA        43.9250    9.5950   33.6610 C.3   197  ASP197      0.1674
     75  C         43.0120    8.5000   34.2100 C.2   197  ASP197      0.2266
     76  O         43.5030    7.3750   34.4410 O.2   197  ASP197     -0.2867
     77  CB        44.3510    9.2600   32.2320 C.3   197  ASP197      0.1410
     78  CG        45.0770   10.4030   31.5490 C.2   197  ASP197      0.3668
     79  OD1       44.5070   11.5100   31.5100 O.co2 197  ASP197     -0.2456
     80  OD2       46.2100   10.1760   31.0810 O.co2 197  ASP197     -0.2456
     81  N         46.8600    0.8820   35.4300 N.3   328  VAL328     -0.1231
     82  CA        47.8960    1.2290   34.4110 C.3   328  VAL328      0.1692
     83  C         48.8640    2.2340   35.0440 C.2   328  VAL328      0.2592
     84  O         48.4160    3.0250   35.8960 O.2   328  VAL328     -0.2718
     85  CB        47.2500    1.7910   33.1290 C.3   328  VAL328      0.0266
     86  CG1       48.2860    2.1260   32.0690 C.3   328  VAL328      0.0020
     87  CG2       46.2000    0.8480   32.5640 C.3   328  VAL328      0.0020
     88  N         50.1380    2.1920   34.6430 N.am  329  GLY329     -0.1957
     89  CA        51.2010    3.0920   35.1330 C.3   329  GLY329      0.1869
     90  C         51.9910    2.4660   36.2700 C.2   329  GLY329      0.2309
     91  O         51.3820    1.7370   37.0760 O.2   329  GLY329     -0.2863
     92  N         52.1410   -3.1130   35.3070 N.3   356  PRO356     -0.2102
     93  CA        51.2020   -2.0380   34.9800 C.3   356  PRO356      0.1504
     94  C         51.7810   -0.9210   34.0920 C.2   356  PRO356      0.2575
     95  O         50.9960   -0.2130   33.4870 O.2   356  PRO356     -0.2718
     96  CB        50.7780   -1.4870   36.3530 C.3   356  PRO356      0.0282
     97  CG        51.8990   -1.8800   37.2910 C.3   356  PRO356      0.0208
     98  CD        52.4410   -3.1840   36.7460 C.3   356  PRO356      0.0893
     99  N         53.1100   -0.7960   34.0090 N.am  357  ASP357     -0.1974
    100  CA        53.7890    0.2280   33.1640 C.3   357  ASP357      0.1708
    101  C         54.0240   -0.3180   31.7470 C.2   357  ASP357      0.2293
    102  O         54.4670    0.4720   30.8920 O.2   357  ASP357     -0.2864
    103  CB        55.0810    0.7350   33.8170 C.3   357  ASP357      0.1436
    104  CG        56.0610   -0.3470   34.2360 C.2   357  ASP357      0.3671
    105  OD1       57.1960    0.0090   34.6060 O.co2 357  ASP357     -0.2456
    106  OD2       55.6810   -1.5330   34.1990 O.co2 357  ASP357     -0.2456
    107  N         49.8110   -0.9350   28.3800 N.3   360  VAL360     -0.1245
    108  CA        49.3500   -0.2000   27.1630 C.3   360  VAL360      0.1561
    109  C         50.1680   -0.6800   25.9540 C.2   360  VAL360      0.2260
    110  O         49.5590   -0.9400   24.8980 O.2   360  VAL360     -0.2867
    111  CB        49.4270    1.3260   27.3590 C.3   360  VAL360      0.0252
    112  CG1       49.1980    2.0820   26.0580 C.3   360  VAL360      0.0019
    113  CG2       48.4440    1.7980   28.4230 C.3   360  VAL360      0.0019
@<TRIPOS>BOND
     1     1     2    1
     2     2     3    1
     3     2     5    1
     4     3     4    2
     5    33    32    1
     6    33    34    1
     7    33    36    1
     8    35    34    2
     9    41    42    1
    10   110   109    2
    11    37    36    1
    12    37    38    1
    13    39    38    1
    14    39    40    1
    15     5     6    1
    16    49    47   ar
    17     9    10    1
    18    42    45    1
    19    42    43    1
    20    46    47    1
    21    46    45    1
    22   109   108    1
    23   112   111    1
    24     7     6   ar
    25    47    48   ar
    26    12    11    2
    27     6     8   ar
    28    43    44    2
    29    10    11    1
    30   108   111    1
    31   108   107    1
    32    11    13   am
    33   111   113    1
    34    13    14    1
    35    23    22    2
    36    22    21    1
    37    14    15    1
    38    14    17    1
    39    16    15    2
    40    18    17    1
    41    21    20    1
    42    21    24    1
    43    17    19    1
    44    24    25    1
    45   102   101    2
    46    80    78   ar
    47    57    55   ar
    48    79    78   ar
    49    78    77    1
    50   101   100    1
    51    25    27   ar
    52    25    26   ar
    53    27    29   ar
    54    86    85    1
    55    72    70    1
    56    77    74    1
    57    71    70    1
    58    55    56   ar
    59    55    54    1
    60    87    85    1
    61    70    67    1
    62    26    28   ar
    63    29    30   ar
    64    85    82    1
    65   100   103    1
    66   100    99    1
    67    54    51    1
    68    95    94    2
    69    74    75    1
    70    74    73    1
    71   103   104    1
    72    99    94   am
    73    28    30   ar
    74    30    31    1
    75    94    93    1
    76   106   104   ar
    77    75    76    2
    78   104   105   ar
    79    82    83    1
    80    82    81    1
    81    67    66    1
    82    67    68    1
    83    88    83   am
    84    88    89    1
    85    51    50    1
    86    51    52    1
    87    93    92    1
    88    93    96    1
    89    59    58    1
    90    59    60    1
    91    83    84    2
    92    68    69    2
    93    62    63    1
    94    62    60   am
    95    89    90    1
    96    53    52    2
    97    92    98    1
    98    63    64    1
    99    60    61    2
   100    64    65    2
   101    90    91    2
   102    96    97    1
   103    98    97    1
