@<TRIPOS>MOLECULE
tmp/6hahA00.pdb
 88 86 0 0 0
SMALL
GASTEIGER

@<TRIPOS>ATOM
      1  N          8.3880   14.7030   30.0890 N.3    11  LYS11      -0.1245
      2  CA         9.8390   14.7820   30.2330 C.3    11  LYS11       0.1561
      3  C         10.5100   13.4140   30.4510 C.2    11  LYS11       0.2260
      4  O         11.7430   13.3580   30.4500 O.2    11  LYS11      -0.2867
      5  CB        10.1790   15.7450   31.3730 C.3    11  LYS11       0.0271
      6  CG         9.6950   17.1560   31.0550 C.3    11  LYS11       0.0035
      7  CD        10.1960   18.1720   32.0510 C.3    11  LYS11       0.0206
      8  CE         9.1590   18.5430   33.0830 C.3    11  LYS11       0.1093
      9  NZ         9.5640   19.7330   33.8780 N.3    11  LYS11      -0.1314
     10  N         16.6620   11.2550   34.7200 N.3    27  LYS27      -0.1231
     11  CA        16.0230   10.7300   33.5320 C.3    27  LYS27       0.1693
     12  C         15.5950    9.2730   33.6630 C.2    27  LYS27       0.2592
     13  O         16.3960    8.4060   34.0460 O.2    27  LYS27      -0.2718
     14  CB        16.9590   10.8510   32.3260 C.3    27  LYS27       0.0285
     15  CG        17.1730   12.2920   31.8650 C.3    27  LYS27       0.0035
     16  CD        18.1440   12.3920   30.7100 C.3    27  LYS27       0.0206
     17  CE        18.7370   13.7820   30.6000 C.3    27  LYS27       0.1093
     18  NZ        17.7660   14.7580   30.0380 N.3    27  LYS27      -0.1314
     19  N         14.3920    8.9550   33.1480 N.am   28  CYS28      -0.1957
     20  CA        14.0040    7.5710   32.9470 C.3    28  CYS28       0.1828
     21  C         14.7700    7.0680   31.7340 C.2    28  CYS28       0.2467
     22  O         14.9080    7.8150   30.7590 O.2    28  CYS28      -0.2730
     23  CB        12.5040    7.4580   32.6920 C.3    28  CYS28       0.0996
     24  SG        11.4380    8.0690   34.0350 S.3    28  CYS28      -0.0797
     25  N         15.0210    5.7560   31.6590 N.am   29  PRO29      -0.2715
     26  CA        15.5290    5.1870   30.4050 C.3    29  PRO29       0.1536
     27  C         14.5610    5.3330   29.2380 C.2    29  PRO29       0.2598
     28  O         13.3490    5.4640   29.3990 O.2    29  PRO29      -0.2715
     29  CB        15.7700    3.7150   30.7510 C.3    29  PRO29       0.0310
     30  CG        15.9420    3.7100   32.2540 C.3    29  PRO29       0.0237
     31  CD        14.9780    4.7490   32.7380 C.3    29  PRO29       0.0939
     32  N         15.1140    5.2930   28.0340 N.am   30  LYS30      -0.1964
     33  CA        14.3130    5.2650   26.8190 C.3    30  LYS30       0.1728
     34  C         13.7010    3.8740   26.5720 C.2    30  LYS30       0.2616
     35  O         12.7600    3.7620   25.7910 O.2    30  LYS30      -0.2715
     36  CB        15.1770    5.6670   25.6250 C.3    30  LYS30       0.0311
     37  CG        15.6020    7.1310   25.6410 C.3    30  LYS30       0.0038
     38  CD        16.3470    7.4960   24.3470 C.3    30  LYS30       0.0206
     39  CE        16.8160    8.9360   24.3610 C.3    30  LYS30       0.1093
     40  NZ        15.6830    9.8940   24.3930 N.3    30  LYS30      -0.1314
     41  N         14.3050    2.8110   27.1310 N.am   31  PHE31      -0.1960
     42  CA        13.8390    1.4350   26.9130 C.3    31  PHE31       0.1771
     43  C         12.3540    1.3090   27.2810 C.2    31  PHE31       0.2619
     44  O         11.9020    1.8750   28.2810 O.2    31  PHE31      -0.2715
     45  CB        14.6640    0.4640   27.7690 C.3    31  PHE31       0.0574
     46  CG        16.0030    0.0280   27.2180 C.ar   31  PHE31      -0.0200
     47  CD1       16.5730    0.6700   26.1280 C.ar   31  PHE31      -0.0042
     48  CD2       16.7210   -0.9840   27.8320 C.ar   31  PHE31      -0.0042
     49  CE1       17.8390    0.3160   25.6850 C.ar   31  PHE31      -0.0003
     50  CE2       17.9640   -1.3690   27.3520 C.ar   31  PHE31      -0.0003
     51  CZ        18.5190   -0.7110   26.2920 C.ar   31  PHE31      -0.0000
     52  N         11.6390    0.4560   26.5440 N.am   32  ASP32      -0.1971
     53  CA        10.1910    0.2800   26.6680 C.3    32  ASP32       0.1709
     54  C          9.7030    0.0130   28.0840 C.2    32  ASP32       0.2293
     55  O          8.6680    0.5520   28.4740 O.2    32  ASP32      -0.2864
     56  CB         9.7440   -0.8860   25.7800 C.3    32  ASP32       0.1436
     57  CG        10.0420   -0.6650   24.3150 C.2    32  ASP32       0.3671
     58  OD1       10.5130    0.4470   23.9640 O.co2  32  ASP32      -0.2456
     59  OD2        9.8510   -1.6160   23.5240 O.co2  32  ASP32      -0.2456
     60  N         11.2490    0.5790   30.9610 N.3    34  LYS34      -0.1245
     61  CA        11.7930    1.4560   31.9910 C.3    34  LYS34       0.1561
     62  C         11.3830    2.9300   31.7930 C.2    34  LYS34       0.2260
     63  O         11.7410    3.7680   32.6200 O.2    34  LYS34      -0.2867
     64  CB        13.3240    1.3290   32.0300 C.3    34  LYS34       0.0271
     65  CG        13.8220   -0.0880   32.3270 C.3    34  LYS34       0.0035
     66  CD        15.3530   -0.1440   32.4310 C.3    34  LYS34       0.0206
     67  CE        15.8670   -0.0250   33.8550 C.3    34  LYS34       0.1093
     68  NZ        17.0820    0.8410   33.9720 N.3    34  LYS34      -0.1314
     69  N         23.1320    3.7230   40.3280 N.3    50  ASN50      -0.1225
     70  CA        22.7600    4.8390   39.4600 C.3    50  ASN50       0.1785
     71  C         21.8390    4.3480   38.3300 C.2    50  ASN50       0.2597
     72  O         22.1340    4.6230   37.1600 O.2    50  ASN50      -0.2718
     73  CB        23.9930    5.5330   38.8830 C.3    50  ASN50       0.1169
     74  CG        23.7220    6.9300   38.3700 C.2    50  ASN50       0.2627
     75  OD1       22.7940    7.6060   38.8210 O.2    50  ASN50      -0.2716
     76  ND2       24.5010    7.3800   37.3870 N.am   50  ASN50      -0.0877
     77  N         20.8250    3.5200   38.6640 N.am   51  ALA51      -0.1966
     78  CA        19.9250    2.9160   37.6850 C.3    51  ALA51       0.1728
     79  C         18.4810    3.3640   37.9570 C.2    51  ALA51       0.2616
     80  O         18.0640    3.4170   39.1130 O.2    51  ALA51      -0.2715
     81  CB        20.0040    1.3930   37.7710 C.3    51  ALA51       0.0334
     82  N         17.7550    3.7220   36.9090 N.am   52  VAL52      -0.1977
     83  CA        16.3970    4.2520   37.0340 C.3    52  VAL52       0.1596
     84  C         15.4250    3.3350   36.3210 C.2    52  VAL52       0.2287
     85  O         15.7560    2.7860   35.2770 O.2    52  VAL52      -0.2864
     86  CB        16.3150    5.6900   36.4460 C.3    52  VAL52       0.0276
     87  CG1       14.8890    6.2610   36.5790 C.3    52  VAL52       0.0022
     88  CG2       17.3160    6.6040   37.1390 C.3    52  VAL52       0.0022
@<TRIPOS>BOND
     1    59    57   ar
     2    58    57   ar
     3    57    56    1
     4    38    39    1
     5    38    37    1
     6    39    40    1
     7    36    37    1
     8    36    33    1
     9    49    47   ar
    10    49    51   ar
    11    56    53    1
    12    35    34    2
    13    47    46   ar
    14    51    50   ar
    15    52    53    1
    16    52    43   am
    17    34    33    1
    18    34    41   am
    19    53    54    1
    20    33    32    1
    21    42    41    1
    22    42    43    1
    23    42    45    1
    24    46    45    1
    25    46    48   ar
    26    43    44    2
    27    50    48   ar
    28    32    27   am
    29    54    55    2
    30    27    28    2
    31    27    26    1
    32    18    17    1
    33     1     2    1
    34     2     3    1
    35     2     5    1
    36    26    29    1
    37    26    25    1
    38     4     3    2
    39    17    16    1
    40    16    15    1
    41    29    30    1
    42    22    21    2
    43    60    61    1
    44     6     5    1
    45     6     7    1
    46    25    21   am
    47    25    31    1
    48    21    20    1
    49    62    61    1
    50    62    63    2
    51    15    14    1
    52    61    64    1
    53    64    65    1
    54     7     8    1
    55    30    31    1
    56    14    11    1
    57    65    66    1
    58    66    67    1
    59    23    20    1
    60    23    24    1
    61    20    19    1
    62     8     9    1
    63    19    12   am
    64    11    12    1
    65    11    10    1
    66    12    13    2
    67    67    68    1
    68    85    84    2
    69    84    83    1
    70    86    87    1
    71    86    83    1
    72    86    88    1
    73    82    83    1
    74    82    79   am
    75    72    71    2
    76    76    74   am
    77    78    81    1
    78    78    79    1
    79    78    77    1
    80    79    80    2
    81    71    77   am
    82    71    70    1
    83    74    75    2
    84    74    73    1
    85    73    70    1
    86    70    69    1
