@<TRIPOS>MOLECULE
tmp/6hawC00.pdb
 102 100 0 0 0
SMALL
GASTEIGER

@<TRIPOS>ATOM
      1  N        -57.4060  -80.9380   43.1900 N.3   124  ALA124     -0.1245
      2  CA       -57.2000  -82.3620   42.9410 C.3   124  ALA124      0.1562
      3  C        -56.5150  -82.6370   41.5920 C.2   124  ALA124      0.2260
      4  O        -55.5870  -83.4520   41.5340 O.2   124  ALA124     -0.2867
      5  CB       -58.5160  -83.1180   43.0500 C.3   124  ALA124      0.0290
      6  N        -52.7290  -81.3660   41.6820 N.3   127  PHE127     -0.1227
      7  CA       -51.9370  -82.1960   42.5760 C.3   127  PHE127      0.1736
      8  C        -51.4060  -83.4050   41.8150 C.2   127  PHE127      0.2595
      9  O        -50.2150  -83.7260   41.8960 O.2   127  PHE127     -0.2718
     10  CB       -52.7680  -82.6260   43.7950 C.3   127  PHE127      0.0547
     11  CG       -52.0570  -83.5850   44.7200 C.ar  127  PHE127     -0.0202
     12  CD1      -50.9880  -83.1580   45.5200 C.ar  127  PHE127     -0.0042
     13  CD2      -52.4620  -84.9200   44.8040 C.ar  127  PHE127     -0.0042
     14  CE1      -50.3310  -84.0460   46.3690 C.ar  127  PHE127     -0.0003
     15  CE2      -51.8150  -85.8110   45.6590 C.ar  127  PHE127     -0.0003
     16  CZ       -50.7490  -85.3710   46.4430 C.ar  127  PHE127     -0.0000
     17  N        -52.2930  -84.0440   41.0550 N.am  128  MET128     -0.1979
     18  CA       -51.9610  -85.2440   40.2830 C.3   128  MET128      0.1605
     19  C        -51.1670  -84.9520   39.0030 C.2   128  MET128      0.2287
     20  O        -50.4620  -85.8310   38.4890 O.2   128  MET128     -0.2864
     21  CB       -53.2310  -86.0480   39.9780 C.3   128  MET128      0.0413
     22  CG       -53.8690  -86.6590   41.2170 C.3   128  MET128      0.0598
     23  SD       -55.3080  -87.6720   40.8580 S.3   128  MET128     -0.1393
     24  CE       -56.5420  -86.4310   40.4680 C.3   128  MET128      0.0692
     25  N        -47.9310  -85.9320   51.3300 N.3   145  ILE145     -0.1231
     26  CA       -49.3210  -85.4470   51.2490 C.3   145  ILE145      0.1692
     27  C        -50.3490  -86.5890   51.3280 C.2   145  ILE145      0.2592
     28  O        -51.2490  -86.5320   52.1620 O.2   145  ILE145     -0.2718
     29  CB       -49.5750  -84.5230   50.0080 C.3   145  ILE145      0.0266
     30  CG1      -48.6600  -83.2680   50.0090 C.3   145  ILE145      0.0019
     31  CG2      -51.0590  -84.1530   49.8630 C.3   145  ILE145      0.0020
     32  CD1      -48.8970  -82.2200   51.0910 C.3   145  ILE145      0.0001
     33  N        -50.2030  -87.6160   50.4840 N.am  146  THR146     -0.1953
     34  CA       -51.1140  -88.7770   50.4890 C.3   146  THR146      0.1897
     35  C        -51.1310  -89.4470   51.8550 C.2   146  THR146      0.2313
     36  O        -52.2020  -89.7220   52.4080 O.2   146  THR146     -0.2863
     37  CB       -50.7300  -89.8480   49.4440 C.3   146  THR146      0.1794
     38  OG1      -50.3540  -89.2260   48.2130 O.3   146  THR146     -0.2208
     39  CG2      -51.9000  -90.7850   49.1840 C.3   146  THR146      0.0378
     40  N        -53.4610  -89.1280   55.1470 N.3   149  LEU149     -0.1245
     41  CA       -54.7130  -89.8730   55.3580 C.3   149  LEU149      0.1561
     42  C        -54.6020  -91.0510   56.3240 C.2   149  LEU149      0.2260
     43  O        -55.6140  -91.5420   56.8250 O.2   149  LEU149     -0.2867
     44  CB       -55.2940  -90.3540   54.0280 C.3   149  LEU149      0.0270
     45  CG       -55.8880  -89.2890   53.1190 C.3   149  LEU149      0.0019
     46  CD1      -56.2600  -89.8980   51.7880 C.3   149  LEU149      0.0001
     47  CD2      -57.1070  -88.6480   53.7500 C.3   149  LEU149      0.0001
     48  N        -54.6220  -98.2800   49.4180 N.3   162  TRP162     -0.1227
     49  CA       -55.6170  -98.4960   48.3630 C.3   162  TRP162      0.1737
     50  C        -55.5130  -97.4350   47.2670 C.2   162  TRP162      0.2595
     51  O        -55.6800  -97.7490   46.0870 O.2   162  TRP162     -0.2718
     52  CB       -57.0320  -98.5410   48.9550 C.3   162  TRP162      0.0564
     53  CG       -58.1080  -98.8770   47.9590 C.ar  162  TRP162      0.0003
     54  CD1      -58.4210 -100.1140   47.4770 C.ar  162  TRP162      0.0946
     55  CD2      -59.0120  -97.9580   47.3280 C.ar  162  TRP162      0.0152
     56  NE1      -59.4580 -100.0250   46.5820 N.ar  162  TRP162     -0.2442
     57  CE2      -59.8410  -98.7130   46.4720 C.ar  162  TRP162      0.0810
     58  CE3      -59.1990  -96.5660   47.4010 C.ar  162  TRP162      0.0012
     59  CZ2      -60.8440  -98.1260   45.6910 C.ar  162  TRP162      0.0191
     60  CZ3      -60.1960  -95.9850   46.6250 C.ar  162  TRP162      0.0001
     61  CH2      -61.0040  -96.7640   45.7830 C.ar  162  TRP162      0.0015
     62  N        -55.2390  -96.1900   47.6650 N.am  163  ILE163     -0.1980
     63  CA       -55.0170  -95.0920   46.7220 C.3   163  ILE163      0.1595
     64  C        -53.7450  -95.3820   45.9330 C.2   163  ILE163      0.2287
     65  O        -53.7170  -95.1960   44.7180 O.2   163  ILE163     -0.2864
     66  CB       -54.9050  -93.7180   47.4310 C.3   163  ILE163      0.0276
     67  CG1      -56.2310  -93.3350   48.0820 C.3   163  ILE163      0.0022
     68  CG2      -54.4940  -92.6160   46.4570 C.3   163  ILE163      0.0022
     69  CD1      -56.1080  -92.2270   49.1020 C.3   163  ILE163      0.0001
     70  N        -52.5500  -94.6450   37.3630 N.3   176  ARG176     -0.1231
     71  CA       -53.9050  -94.2040   37.7620 C.3   176  ARG176      0.1694
     72  C        -54.0240  -92.6880   37.9170 C.2   176  ARG176      0.2592
     73  O        -55.0690  -92.1110   37.6090 O.2   176  ARG176     -0.2718
     74  CB       -54.4300  -94.9360   39.0050 C.3   176  ARG176      0.0321
     75  CG       -53.8480  -94.5150   40.3450 C.3   176  ARG176      0.0489
     76  CD       -54.3460  -95.4290   41.4490 C.3   176  ARG176      0.2205
     77  NE       -54.0110  -96.8310   41.1850 N.pl3 176  ARG176     -0.0865
     78  CZ       -54.3760  -97.8620   41.9420 C.cat 176  ARG176      0.5346
     79  NH1      -55.0920  -97.6720   43.0450 N.pl3 176  ARG176      0.1354
     80  NH2      -54.0170  -99.0940   41.5950 N.pl3 176  ARG176      0.1354
     81  N        -52.9450  -92.0570   38.3740 N.am  177  PHE177     -0.1976
     82  CA       -52.8700  -90.6020   38.4610 C.3   177  PHE177      0.1639
     83  C        -52.9390  -89.9600   37.0790 C.2   177  PHE177      0.2290
     84  O        -53.4750  -88.8640   36.9510 O.2   177  PHE177     -0.2864
     85  CB       -51.6020  -90.1560   39.1980 C.3   177  PHE177      0.0560
     86  CG       -51.7500  -90.0600   40.7010 C.ar  177  PHE177     -0.0200
     87  CD1      -52.6260  -90.8940   41.4110 C.ar  177  PHE177     -0.0042
     88  CD2      -50.9690  -89.1510   41.4200 C.ar  177  PHE177     -0.0042
     89  CE1      -52.7370  -90.7980   42.7940 C.ar  177  PHE177     -0.0003
     90  CE2      -51.0750  -89.0540   42.8040 C.ar  177  PHE177     -0.0003
     91  CZ       -51.9580  -89.8780   43.4910 C.ar  177  PHE177     -0.0000
     92  N        -56.8860  -90.3280   36.1340 N.3   180  PHE180     -0.1241
     93  CA       -57.6900  -89.3360   36.8730 C.3   180  PHE180      0.1605
     94  C        -57.4210  -87.8990   36.4300 C.2   180  PHE180      0.2264
     95  O        -58.3370  -87.0800   36.3880 O.2   180  PHE180     -0.2867
     96  CB       -57.4950  -89.4480   38.3890 C.3   180  PHE180      0.0534
     97  CG       -58.0550  -90.7020   38.9970 C.ar  180  PHE180     -0.0203
     98  CD1      -59.3610  -91.1200   38.7270 C.ar  180  PHE180     -0.0042
     99  CD2      -57.2780  -91.4620   39.8740 C.ar  180  PHE180     -0.0042
    100  CE1      -59.8670  -92.2850   39.2980 C.ar  180  PHE180     -0.0003
    101  CE2      -57.7810  -92.6250   40.4560 C.ar  180  PHE180     -0.0003
    102  CZ       -59.0790  -93.0370   40.1650 C.ar  180  PHE180     -0.0000
@<TRIPOS>BOND
     1    92    93    1
     2    95    94    2
     3    94    93    1
     4    93    96    1
     5    84    83    2
     6    83    82    1
     7    70    71    1
     8    73    72    2
     9    71    72    1
    10    71    74    1
    11    72    81   am
    12    81    82    1
    13    96    97    1
    14    82    85    1
    15    20    19    2
    16    98    97   ar
    17    98   100   ar
    18    97    99   ar
    19    19    18    1
    20    74    75    1
    21    85    86    1
    22   100   102   ar
    23    99   101   ar
    24    21    18    1
    25    21    22    1
    26   102   101   ar
    27    18    17    1
    28    75    76    1
    29    24    23    1
    30    86    87   ar
    31    86    88   ar
    32    23    22    1
    33    17     8   am
    34    77    76    1
    35    77    78    2
    36    87    89   ar
    37    88    90   ar
    38     4     3    2
    39     3     2    1
    40    80    78    1
    41     6     7    1
    42     8     9    2
    43     8     7    1
    44    78    79    1
    45     7    10    1
    46    89    91   ar
    47    90    91   ar
    48     2     5    1
    49     2     1    1
    50    10    11    1
    51    65    64    2
    52    11    13   ar
    53    11    12   ar
    54    13    15   ar
    55    12    14   ar
    56    15    16   ar
    57    59    61   ar
    58    59    57   ar
    59    61    60   ar
    60    64    63    1
    61    51    50    2
    62    14    16   ar
    63    68    66    1
    64    57    56   ar
    65    57    55   ar
    66    56    54   ar
    67    60    58   ar
    68    63    66    1
    69    63    62    1
    70    50    62   am
    71    50    49    1
    72    55    58   ar
    73    55    53   ar
    74    66    67    1
    75    54    53   ar
    76    53    52    1
    77    67    69    1
    78    38    37    1
    79    49    52    1
    80    49    48    1
    81    39    37    1
    82    37    34    1
    83    31    29    1
    84    29    30    1
    85    29    26    1
    86    30    32    1
    87    33    34    1
    88    33    27   am
    89    34    35    1
    90    26    27    1
    91    26    25    1
    92    27    28    2
    93    46    45    1
    94    35    36    2
    95    45    47    1
    96    45    44    1
    97    44    41    1
    98    40    41    1
    99    41    42    1
   100    42    43    2
