@<TRIPOS>MOLECULE
tmp/6hawC11.pdb
 147 140 0 0 0
SMALL
GASTEIGER

@<TRIPOS>ATOM
      1  N        -77.4850  -66.3330   27.0650 N.3    16  ALA16      -0.1231
      2  CA       -76.4260  -66.4580   28.0640 C.3    16  ALA16       0.1694
      3  C        -75.1010  -65.7830   27.6750 C.2    16  ALA16       0.2592
      4  O        -74.1240  -65.8610   28.4310 O.2    16  ALA16      -0.2718
      5  CB       -76.2090  -67.9270   28.4010 C.3    16  ALA16       0.0304
      6  N        -75.0840  -65.0920   26.5290 N.am   17  PHE17      -0.1976
      7  CA       -73.8300  -64.6350   25.8980 C.3    17  PHE17       0.1639
      8  C        -73.9340  -63.2910   25.1550 C.2    17  PHE17       0.2290
      9  O        -72.9400  -62.5690   25.0720 O.2    17  PHE17      -0.2864
     10  CB       -73.3470  -65.7060   24.9080 C.3    17  PHE17       0.0560
     11  CG       -71.9060  -66.1160   25.0630 C.ar   17  PHE17      -0.0200
     12  CD1      -71.5570  -67.1880   25.9010 C.ar   17  PHE17      -0.0042
     13  CD2      -70.9000  -65.4850   24.3200 C.ar   17  PHE17      -0.0042
     14  CE1      -70.2300  -67.5940   26.0250 C.ar   17  PHE17      -0.0003
     15  CE2      -69.5680  -65.8870   24.4410 C.ar   17  PHE17      -0.0003
     16  CZ       -69.2350  -66.9420   25.2930 C.ar   17  PHE17      -0.0000
     17  N        -77.8550  -61.1390   27.3070 N.3    20  LEU20      -0.1245
     18  CA       -77.8410  -61.2090   28.7620 C.3    20  LEU20       0.1561
     19  C        -77.7860  -59.7940   29.3820 C.2    20  LEU20       0.2260
     20  O        -76.9060  -59.0020   29.0210 O.2    20  LEU20      -0.2867
     21  CB       -76.6730  -62.0890   29.2340 C.3    20  LEU20       0.0270
     22  CG       -76.1830  -62.0380   30.6830 C.3    20  LEU20       0.0019
     23  CD1      -77.1150  -62.7530   31.6430 C.3    20  LEU20       0.0001
     24  CD2      -74.7970  -62.6410   30.7390 C.3    20  LEU20       0.0001
     25  N        -70.0730  -53.1390   36.6600 N.3    26  ILE26      -0.1245
     26  CA       -69.1730  -54.2070   37.1470 C.3    26  ILE26       0.1561
     27  C        -67.7350  -53.8910   36.7530 C.2    26  ILE26       0.2260
     28  O        -67.4850  -53.4690   35.6200 O.2    26  ILE26      -0.2867
     29  CB       -69.5850  -55.6460   36.7170 C.3    26  ILE26       0.0252
     30  CG1      -69.9410  -55.7220   35.2340 C.3    26  ILE26       0.0019
     31  CG2      -70.7500  -56.1550   37.5580 C.3    26  ILE26       0.0019
     32  CD1      -69.8510  -57.1080   34.6410 C.3    26  ILE26       0.0001
     33  N        -64.6770  -58.6250   37.8190 N.3    30  TRP30      -0.1227
     34  CA       -65.6760  -59.5110   37.1930 C.3    30  TRP30       0.1737
     35  C        -65.1800  -60.2380   35.9200 C.2    30  TRP30       0.2595
     36  O        -65.8750  -61.1140   35.3720 O.2    30  TRP30      -0.2718
     37  CB       -66.9790  -58.7480   36.9280 C.3    30  TRP30       0.0564
     38  CG       -67.9490  -58.7820   38.0910 C.ar   30  TRP30       0.0003
     39  CD1      -69.0850  -59.5330   38.1810 C.ar   30  TRP30       0.0946
     40  CD2      -67.8620  -58.0390   39.3210 C.ar   30  TRP30       0.0152
     41  NE1      -69.7130  -59.3050   39.3820 N.ar   30  TRP30      -0.2442
     42  CE2      -68.9870  -58.3940   40.1020 C.ar   30  TRP30       0.0810
     43  CE3      -66.9460  -57.1030   39.8380 C.ar   30  TRP30       0.0012
     44  CZ2      -69.2250  -57.8460   41.3770 C.ar   30  TRP30       0.0191
     45  CZ3      -67.1840  -56.5570   41.1100 C.ar   30  TRP30       0.0001
     46  CH2      -68.3140  -56.9330   41.8610 C.ar   30  TRP30       0.0015
     47  N        -63.9750  -59.8800   35.4710 N.am   31  ASN31      -0.1974
     48  CA       -63.3630  -60.4950   34.2910 C.3    31  ASN31       0.1688
     49  C        -62.7760  -61.8710   34.5490 C.2    31  ASN31       0.2292
     50  O        -62.5620  -62.6360   33.5990 O.2    31  ASN31      -0.2864
     51  CB       -62.2870  -59.5880   33.7020 C.3    31  ASN31       0.1181
     52  CG       -62.8570  -58.5670   32.7540 C.2    31  ASN31       0.2629
     53  OD1      -63.4340  -57.5680   33.1770 O.2    31  ASN31      -0.2716
     54  ND2      -62.7110  -58.8190   31.4600 N.am   31  ASN31      -0.0877
     55  N        -63.9130  -64.6210   35.9230 N.3    33  GLY33      -0.1210
     56  CA       -64.7540  -65.7610   35.5420 C.3    33  GLY33       0.1956
     57  C        -64.5070  -66.2130   34.1130 C.2    33  GLY33       0.2612
     58  O        -64.2550  -67.3960   33.8580 O.2    33  GLY33      -0.2717
     59  N        -64.5800  -65.2530   33.1910 N.am   34  SER34      -0.1952
     60  CA       -64.3110  -65.4750   31.7710 C.3    34  SER34       0.1924
     61  C        -62.8970  -66.0360   31.5690 C.2    34  SER34       0.2314
     62  O        -62.7030  -66.9930   30.8160 O.2    34  SER34      -0.2863
     63  CB       -64.5030  -64.1690   30.9760 C.3    34  SER34       0.2116
     64  OG       -65.7570  -63.5410   31.2470 O.3    34  SER34      -0.2180
     65  N        -62.4440  -69.7280   32.4700 N.3    37  GLY37      -0.1210
     66  CA       -62.8450  -70.4550   31.2730 C.3    37  GLY37       0.1956
     67  C        -61.7240  -70.6000   30.2560 C.2    37  GLY37       0.2611
     68  O        -61.4790  -71.7010   29.7570 O.2    37  GLY37      -0.2717
     69  N        -61.0370  -69.4960   29.9540 N.am   38  ILE38      -0.1979
     70  CA       -59.9040  -69.5170   29.0170 C.3    38  ILE38       0.1595
     71  C        -58.8080  -70.4580   29.5230 C.2    38  ILE38       0.2287
     72  O        -58.3220  -71.3030   28.7660 O.2    38  ILE38      -0.2864
     73  CB       -59.3650  -68.1010   28.7070 C.3    38  ILE38       0.0276
     74  CG1      -60.3780  -67.3550   27.8430 C.3    38  ILE38       0.0022
     75  CG2      -58.0260  -68.1590   27.9770 C.3    38  ILE38       0.0022
     76  CD1      -60.3930  -65.8580   28.0660 C.3    38  ILE38       0.0001
     77  N        -59.8730  -74.2000   28.9530 N.3    41  ILE41      -0.1245
     78  CA       -59.7100  -74.5880   27.5390 C.3    41  ILE41       0.1561
     79  C        -58.2240  -74.7260   27.1840 C.2    41  ILE41       0.2260
     80  O        -57.8320  -75.6960   26.5220 O.2    41  ILE41      -0.2867
     81  CB       -60.4220  -73.6110   26.5570 C.3    41  ILE41       0.0252
     82  CG1      -61.9160  -73.4510   26.8860 C.3    41  ILE41       0.0019
     83  CG2      -60.2370  -74.0330   25.0990 C.3    41  ILE41       0.0019
     84  CD1      -62.7350  -74.7330   26.8940 C.3    41  ILE41       0.0001
     85  N        -72.7460  -71.7600   36.1240 N.3   196  LEU196     -0.1245
     86  CA       -73.3230  -70.6360   35.3910 C.3   196  LEU196      0.1561
     87  C        -74.8380  -70.7020   35.3170 C.2   196  LEU196      0.2260
     88  O        -75.5050  -69.6670   35.3760 O.2   196  LEU196     -0.2867
     89  CB       -72.7290  -70.5460   33.9870 C.3   196  LEU196      0.0270
     90  CG       -71.3160  -69.9690   33.8950 C.3   196  LEU196      0.0019
     91  CD1      -70.6510  -70.4690   32.6240 C.3   196  LEU196      0.0001
     92  CD2      -71.3210  -68.4450   33.9600 C.3   196  LEU196      0.0001
     93  N        -76.0860  -69.1200   38.2690 N.3   199  LEU199     -0.1231
     94  CA       -75.8330  -67.6870   38.2290 C.3   199  LEU199      0.1693
     95  C        -76.8850  -66.9520   37.3940 C.2   199  LEU199      0.2592
     96  O        -77.2740  -65.8360   37.7460 O.2   199  LEU199     -0.2718
     97  CB       -74.4130  -67.3780   37.7320 C.3   199  LEU199      0.0284
     98  CG       -73.9940  -65.9010   37.5890 C.3   199  LEU199      0.0019
     99  CD1      -73.9810  -65.1570   38.9180 C.3   199  LEU199      0.0001
    100  CD2      -72.6470  -65.7970   36.9040 C.3   199  LEU199      0.0001
    101  N        -77.3540  -67.5870   36.3170 N.am  200  HIS200     -0.1976
    102  CA       -78.3270  -66.9660   35.4120 C.3   200  HIS200      0.1656
    103  C        -79.7520  -66.9230   35.9490 C.2   200  HIS200      0.2291
    104  O        -80.6470  -66.4010   35.2890 O.2   200  HIS200     -0.2864
    105  CB       -78.2760  -67.5910   34.0120 C.3   200  HIS200      0.0771
    106  CG       -77.0470  -67.2280   33.2390 C.ar  200  HIS200      0.0820
    107  ND1      -76.4160  -66.0070   33.3670 N.ar  200  HIS200     -0.2267
    108  CD2      -76.3360  -67.9210   32.3190 C.ar  200  HIS200      0.1154
    109  CE1      -75.3640  -65.9680   32.5690 C.ar  200  HIS200      0.1986
    110  NE2      -75.2950  -67.1150   31.9190 N.ar  200  HIS200     -0.2212
    111  N        -75.8120  -60.9780   37.6330 N.3   204  SER204     -0.1217
    112  CA       -74.6020  -60.5950   38.3580 C.3   204  SER204      0.1889
    113  C        -74.8320  -59.5850   39.4820 C.2   204  SER204      0.2288
    114  O        -75.6550  -58.6700   39.3630 O.2   204  SER204     -0.2866
    115  CB       -73.5390  -60.0610   37.3890 C.3   204  SER204      0.2089
    116  OG       -73.1880  -61.0210   36.4040 O.3   204  SER204     -0.2183
    117  N        -74.9260  -57.5500   27.1880 N.3   219  PHE219     -0.1241
    118  CA       -73.5630  -58.1170   27.2600 C.3   219  PHE219      0.1605
    119  C        -72.7340  -57.7880   26.0110 C.2   219  PHE219      0.2264
    120  O        -71.5640  -57.4190   26.1130 O.2   219  PHE219     -0.2867
    121  CB       -73.6130  -59.6340   27.5140 C.3   219  PHE219      0.0534
    122  CG       -72.3010  -60.2280   27.9690 C.ar  219  PHE219     -0.0203
    123  CD1      -71.3790  -60.7290   27.0410 C.ar  219  PHE219     -0.0042
    124  CD2      -71.9860  -60.3060   29.3250 C.ar  219  PHE219     -0.0042
    125  CE1      -70.1700  -61.2820   27.4470 C.ar  219  PHE219     -0.0003
    126  CE2      -70.7740  -60.8600   29.7400 C.ar  219  PHE219     -0.0003
    127  CZ       -69.8670  -61.3460   28.8010 C.ar  219  PHE219     -0.0000
    128  N        -69.5270  -55.9630   27.1970 N.3   223  TYR223     -0.1241
    129  CA       -68.6970  -56.9250   27.9230 C.3   223  TYR223      0.1605
    130  C        -67.9850  -57.9580   27.0600 C.2   223  TYR223      0.2264
    131  O        -67.0140  -58.5570   27.5310 O.2   223  TYR223     -0.2867
    132  CB       -69.4520  -57.5620   29.0970 C.3   223  TYR223      0.0534
    133  CG       -69.8040  -56.5320   30.1400 C.ar  223  TYR223     -0.0201
    134  CD1      -68.8070  -55.8830   30.8740 C.ar  223  TYR223     -0.0009
    135  CD2      -71.1270  -56.1670   30.3690 C.ar  223  TYR223     -0.0009
    136  CE1      -69.1230  -54.9120   31.8150 C.ar  223  TYR223      0.0417
    137  CE2      -71.4510  -55.2010   31.3180 C.ar  223  TYR223      0.0417
    138  CZ       -70.4470  -54.5750   32.0320 C.ar  223  TYR223      0.1957
    139  OH       -70.7650  -53.6200   32.9650 O.3   223  TYR223     -0.2866
    140  N        -63.9980  -58.4990   27.6750 N.3   227  ASP227     -0.1239
    141  CA       -63.4620  -59.8470   27.8370 C.3   227  ASP227      0.1674
    142  C        -62.3050  -60.1550   26.8660 C.2   227  ASP227      0.2266
    143  O        -61.3630  -60.8540   27.2490 O.2   227  ASP227     -0.2867
    144  CB       -64.5850  -60.8950   27.7490 C.3   227  ASP227      0.1410
    145  CG       -65.5190  -60.8890   28.9790 C.2   227  ASP227      0.3668
    146  OD1      -65.4170  -59.9860   29.8470 O.co2 227  ASP227     -0.2456
    147  OD2      -66.3760  -61.8000   29.0650 O.co2 227  ASP227     -0.2456
@<TRIPOS>BOND
     1    13    15   ar
     2    13    11   ar
     3    15    16   ar
     4    10    11    1
     5    10     7    1
     6    11    12   ar
     7     9     8    2
     8    83    81    1
     9     8     7    1
    10    16    14   ar
    11     7     6    1
    12    12    14   ar
    13   119   120    2
    14   119   118    1
    15    80    79    2
    16     6     3   am
    17    81    82    1
    18    81    78    1
    19   142   143    2
    20   142   141    1
    21    82    84    1
    22   123   125   ar
    23   123   122   ar
    24   130   131    2
    25   130   129    1
    26     1     2    1
    27    79    78    1
    28   117   118    1
    29   128   129    1
    30   118   121    1
    31    17    18    1
    32   125   127   ar
    33   121   122    1
    34    78    77    1
    35   140   141    1
    36     3     2    1
    37     3     4    2
    38   144   141    1
    39   144   145    1
    40    74    76    1
    41    74    73    1
    42   129   132    1
    43   122   124   ar
    44    75    73    1
    45     2     5    1
    46    73    70    1
    47    18    21    1
    48    18    19    1
    49    72    71    2
    50   127   126   ar
    51   145   147   ar
    52   145   146   ar
    53    70    71    1
    54    70    69    1
    55    20    19    2
    56   132   133    1
    57    21    22    1
    58   124   126   ar
    59    68    67    2
    60    69    67   am
    61   133   135   ar
    62   133   134   ar
    63    67    66    1
    64   135   137   ar
    65    22    24    1
    66    22    23    1
    67    62    61    2
    68   134   136   ar
    69    63    64    1
    70    63    60    1
    71    66    65    1
    72   137   138   ar
    73    54    52   am
    74    61    60    1
    75    60    59    1
    76   136   138   ar
    77   110   108   ar
    78   110   109   ar
    79   138   139    1
    80   108   106   ar
    81   109   107   ar
    82    91    90    1
    83    52    53    2
    84    52    51    1
    85    59    57   am
    86   106   107   ar
    87   106   105    1
    88    50    49    2
    89    51    48    1
    90    58    57    2
    91    90    92    1
    92    90    89    1
    93    89    86    1
    94   105   102    1
    95    57    56    1
    96    48    49    1
    97    48    47    1
    98    32    30    1
    99    30    29    1
   100   104   103    2
   101    87    88    2
   102    87    86    1
   103    36    35    2
   104    86    85    1
   105   102   103    1
   106   102   101    1
   107    47    35   am
   108    56    55    1
   109    28    27    2
   110    35    34    1
   111   101    95   am
   112   116   115    1
   113    25    26    1
   114    29    26    1
   115    29    31    1
   116    27    26    1
   117   100    98    1
   118    37    34    1
   119    37    38    1
   120    34    33    1
   121   115   112    1
   122    95    96    2
   123    95    94    1
   124    98    97    1
   125    98    99    1
   126   111   112    1
   127    97    94    1
   128    38    39   ar
   129    38    40   ar
   130    39    41   ar
   131    94    93    1
   132   112   113    1
   133    40    43   ar
   134    40    42   ar
   135   114   113    2
   136    41    42   ar
   137    43    45   ar
   138    42    44   ar
   139    45    46   ar
   140    44    46   ar
