@<TRIPOS>MOLECULE
tmp/6hawC13.pdb
 91 86 0 0 0
SMALL
GASTEIGER

@<TRIPOS>ATOM
      1  N        -62.0810  -77.2150   44.6920 N.3   120  LEU120     -0.1245
      2  CA       -61.5790  -78.4810   45.2010 C.3   120  LEU120      0.1561
      3  C        -61.1770  -79.4450   44.0860 C.2   120  LEU120      0.2260
      4  O        -60.1500  -80.1140   44.2030 O.2   120  LEU120     -0.2867
      5  CB       -62.5720  -79.1170   46.1830 C.3   120  LEU120      0.0270
      6  CG       -62.5680  -78.5240   47.6010 C.3   120  LEU120      0.0019
      7  CD1      -63.8620  -78.8680   48.3150 C.3   120  LEU120      0.0001
      8  CD2      -61.3630  -78.9690   48.4230 C.3   120  LEU120      0.0001
      9  N        -57.9150  -78.2290   42.3730 N.3   123  MET123     -0.1230
     10  CA       -56.8330  -78.5760   43.3030 C.3   123  MET123      0.1702
     11  C        -56.4230  -80.0390   43.1360 C.2   123  MET123      0.2592
     12  O        -55.2450  -80.3300   42.9230 O.2   123  MET123     -0.2718
     13  CB       -57.2270  -78.2630   44.7520 C.3   123  MET123      0.0401
     14  CG       -57.1180  -76.7890   45.1150 C.3   123  MET123      0.0596
     15  SD       -57.6940  -76.4100   46.7820 S.3   123  MET123     -0.1393
     16  CE       -56.8770  -74.8470   47.0950 C.3   123  MET123      0.0692
     17  N        -57.4060  -80.9380   43.1900 N.am  124  ALA124     -0.1980
     18  CA       -57.2000  -82.3620   42.9410 C.3   124  ALA124      0.1597
     19  C        -56.5150  -82.6370   41.5920 C.2   124  ALA124      0.2287
     20  O        -55.5870  -83.4520   41.5340 O.2   124  ALA124     -0.2864
     21  CB       -58.5160  -83.1180   43.0500 C.3   124  ALA124      0.0319
     22  N        -52.7290  -81.3660   41.6820 N.3   127  PHE127     -0.1241
     23  CA       -51.9370  -82.1960   42.5760 C.3   127  PHE127      0.1605
     24  C        -51.4060  -83.4050   41.8150 C.2   127  PHE127      0.2264
     25  O        -50.2150  -83.7260   41.8960 O.2   127  PHE127     -0.2867
     26  CB       -52.7680  -82.6260   43.7950 C.3   127  PHE127      0.0534
     27  CG       -52.0570  -83.5850   44.7200 C.ar  127  PHE127     -0.0203
     28  CD1      -50.9880  -83.1580   45.5200 C.ar  127  PHE127     -0.0042
     29  CD2      -52.4620  -84.9200   44.8040 C.ar  127  PHE127     -0.0042
     30  CE1      -50.3310  -84.0460   46.3690 C.ar  127  PHE127     -0.0003
     31  CE2      -51.8150  -85.8110   45.6590 C.ar  127  PHE127     -0.0003
     32  CZ       -50.7490  -85.3710   46.4430 C.ar  127  PHE127     -0.0000
     33  N        -47.9310  -85.9320   51.3300 N.3   145  ILE145     -0.1245
     34  CA       -49.3210  -85.4470   51.2490 C.3   145  ILE145      0.1561
     35  C        -50.3490  -86.5890   51.3280 C.2   145  ILE145      0.2260
     36  O        -51.2490  -86.5320   52.1620 O.2   145  ILE145     -0.2867
     37  CB       -49.5750  -84.5230   50.0080 C.3   145  ILE145      0.0252
     38  CG1      -48.6600  -83.2680   50.0090 C.3   145  ILE145      0.0019
     39  CG2      -51.0590  -84.1530   49.8630 C.3   145  ILE145      0.0019
     40  CD1      -48.8970  -82.2200   51.0910 C.3   145  ILE145      0.0001
     41  N        -45.0450  -78.5450   48.5390 N.3   269  PRO269     -0.2116
     42  CA       -45.8860  -78.6210   47.3350 C.3   269  PRO269      0.1372
     43  C        -45.6960  -77.3740   46.4710 C.2   269  PRO269      0.2244
     44  O        -44.8730  -76.5150   46.8230 O.2   269  PRO269     -0.2868
     45  CB       -47.3120  -78.7060   47.8920 C.3   269  PRO269      0.0268
     46  CG       -47.2310  -78.2850   49.3180 C.3   269  PRO269      0.0207
     47  CD       -45.8010  -78.0460   49.7030 C.3   269  PRO269      0.0892
     48  N        -50.4500  -74.1610   47.0400 N.3   273  PHE273     -0.1241
     49  CA       -50.8650  -74.9300   48.2150 C.3   273  PHE273      0.1605
     50  C        -50.1540  -74.4950   49.4910 C.2   273  PHE273      0.2264
     51  O        -50.5270  -74.9320   50.5820 O.2   273  PHE273     -0.2867
     52  CB       -50.6510  -76.4370   48.0060 C.3   273  PHE273      0.0534
     53  CG       -51.6320  -77.0730   47.0660 C.ar  273  PHE273     -0.0203
     54  CD1      -52.9950  -77.0890   47.3580 C.ar  273  PHE273     -0.0042
     55  CD2      -51.1900  -77.6800   45.8900 C.ar  273  PHE273     -0.0042
     56  CE1      -53.8970  -77.6820   46.4860 C.ar  273  PHE273     -0.0003
     57  CE2      -52.0900  -78.2740   45.0120 C.ar  273  PHE273     -0.0003
     58  CZ       -53.4450  -78.2740   45.3120 C.ar  273  PHE273     -0.0000
     59  N        -51.8410  -73.5000   52.9210 N.3   276  ALA276     -0.1231
     60  CA       -52.5000  -74.5890   53.6280 C.3   276  ALA276      0.1694
     61  C        -51.4940  -75.5920   54.1740 C.2   276  ALA276      0.2592
     62  O        -51.7710  -76.2670   55.1680 O.2   276  ALA276     -0.2718
     63  CB       -53.4950  -75.2750   52.7090 C.3   276  ALA276      0.0304
     64  N        -50.3400  -75.6880   53.5110 N.am  277  TYR277     -0.1976
     65  CA       -49.2170  -76.4990   53.9820 C.3   277  TYR277      0.1639
     66  C        -48.6620  -75.9410   55.3000 C.2   277  TYR277      0.2290
     67  O        -48.3330  -76.7100   56.2100 O.2   277  TYR277     -0.2864
     68  CB       -48.1210  -76.5910   52.9070 C.3   277  TYR277      0.0560
     69  CG       -47.0230  -77.6080   53.2000 C.ar  277  TYR277     -0.0198
     70  CD1      -47.2700  -78.9910   53.1140 C.ar  277  TYR277     -0.0009
     71  CD2      -45.7300  -77.1910   53.5500 C.ar  277  TYR277     -0.0009
     72  CE1      -46.2690  -79.9190   53.3810 C.ar  277  TYR277      0.0417
     73  CE2      -44.7250  -78.1150   53.8190 C.ar  277  TYR277      0.0417
     74  CZ       -45.0010  -79.4700   53.7310 C.ar  277  TYR277      0.1957
     75  OH       -44.0080  -80.3750   53.9960 O.3   277  TYR277     -0.2866
     76  N        -55.9620  -78.5290   57.9400 N.3   293  LEU293     -0.1245
     77  CA       -55.7170  -78.3710   56.4990 C.3   293  LEU293      0.1561
     78  C        -57.0110  -78.5280   55.7030 C.2   293  LEU293      0.2260
     79  O        -57.2360  -77.7810   54.7520 O.2   293  LEU293     -0.2867
     80  CB       -54.6170  -79.3240   56.0000 C.3   293  LEU293      0.0270
     81  CG       -54.4570  -79.6820   54.5120 C.3   293  LEU293      0.0019
     82  CD1      -54.1820  -78.4950   53.6090 C.3   293  LEU293      0.0001
     83  CD2      -53.3400  -80.6910   54.3460 C.3   293  LEU293      0.0001
     84  N        -59.7420  -74.9120   53.8640 N.3   297  ILE297     -0.1245
     85  CA       -60.4120  -74.7500   52.5690 C.3   297  ILE297      0.1561
     86  C        -61.9430  -74.8230   52.7060 C.2   297  ILE297      0.2260
     87  O        -62.6640  -73.9880   52.1350 O.2   297  ILE297     -0.2867
     88  CB       -59.8500  -75.7270   51.5000 C.3   297  ILE297      0.0252
     89  CG1      -58.4230  -75.3060   51.1230 C.3   297  ILE297      0.0019
     90  CG2      -60.7310  -75.7580   50.2520 C.3   297  ILE297      0.0019
     91  CD1      -57.5550  -76.4020   50.5470 C.3   297  ILE297      0.0001
@<TRIPOS>BOND
     1    20    19    2
     2    19    18    1
     3    22    23    1
     4    24    25    2
     5    24    23    1
     6     9    10    1
     7    23    26    1
     8    12    11    2
     9    18    21    1
    10    18    17    1
    11    11    17   am
    12    11    10    1
    13    10    13    1
    14    26    27    1
    15     3     4    2
    16     3     2    1
    17     1     2    1
    18    27    29   ar
    19    27    28   ar
    20    13    14    1
    21    29    31   ar
    22    57    58   ar
    23    57    55   ar
    24    14    15    1
    25     2     5    1
    26    58    56   ar
    27    28    30   ar
    28    31    32   ar
    29    55    53   ar
    30     5     6    1
    31    30    32   ar
    32    43    44    2
    33    43    42    1
    34    56    54   ar
    35    15    16    1
    36    48    49    1
    37    53    54   ar
    38    53    52    1
    39    42    45    1
    40    42    41    1
    41     6     7    1
    42     6     8    1
    43    45    46    1
    44    52    49    1
    45    49    50    1
    46    41    47    1
    47    46    47    1
    48    50    51    2
    49    39    37    1
    50    37    38    1
    51    37    34    1
    52    38    40    1
    53    90    88    1
    54    91    89    1
    55    89    88    1
    56    34    35    1
    57    34    33    1
    58    35    36    2
    59    88    85    1
    60    87    86    2
    61    85    86    1
    62    85    84    1
    63    63    60    1
    64    68    69    1
    65    68    65    1
    66    59    60    1
    67    70    69   ar
    68    70    72   ar
    69    69    71   ar
    70    72    74   ar
    71    64    65    1
    72    64    61   am
    73    71    73   ar
    74    82    81    1
    75    60    61    1
    76    74    73   ar
    77    74    75    1
    78    65    66    1
    79    61    62    2
    80    83    81    1
    81    81    80    1
    82    79    78    2
    83    66    67    2
    84    78    77    1
    85    80    77    1
    86    77    76    1
