@<TRIPOS>MOLECULE
tmp/6hawC10.pdb
 191 189 0 0 0
SMALL
GASTEIGER

@<TRIPOS>ATOM
      1  N        -62.6750  -56.8430   38.4030 N.3    29  TRP29      -0.1241
      2  CA       -62.7480  -58.0380   39.2240 C.3    29  TRP29       0.1605
      3  C        -63.8120  -59.0440   38.7480 C.2    29  TRP29       0.2264
      4  O        -63.8190  -60.1890   39.2020 O.2    29  TRP29      -0.2867
      5  CB       -62.9150  -57.6550   40.6980 C.3    29  TRP29       0.0550
      6  CG       -61.7760  -56.8110   41.1920 C.ar   29  TRP29       0.0003
      7  CD1      -61.7600  -55.4510   41.3190 C.ar   29  TRP29       0.0946
      8  CD2      -60.4740  -57.2670   41.5930 C.ar   29  TRP29       0.0152
      9  NE1      -60.5380  -55.0290   41.7820 N.ar   29  TRP29      -0.2442
     10  CE2      -59.7270  -56.1210   41.9580 C.ar   29  TRP29       0.0810
     11  CE3      -59.8630  -58.5380   41.6810 C.ar   29  TRP29       0.0012
     12  CZ2      -58.3960  -56.2010   42.4110 C.ar   29  TRP29       0.0191
     13  CZ3      -58.5320  -58.6210   42.1340 C.ar   29  TRP29       0.0001
     14  CH2      -57.8190  -57.4550   42.4900 C.ar   29  TRP29       0.0015
     15  N        -57.9290  -67.3920   42.9250 N.3    94  TYR94      -0.1227
     16  CA       -57.8730  -66.6800   44.2030 C.3    94  TYR94       0.1736
     17  C        -58.3660  -65.2450   44.0890 C.2    94  TYR94       0.2595
     18  O        -58.9360  -64.7130   45.0460 O.2    94  TYR94      -0.2718
     19  CB       -56.4740  -66.7400   44.8340 C.3    94  TYR94       0.0548
     20  CG       -56.0230  -68.1290   45.2530 C.ar   94  TYR94      -0.0200
     21  CD1      -56.8830  -68.9900   45.9510 C.ar   94  TYR94      -0.0009
     22  CD2      -54.7220  -68.5770   44.9780 C.ar   94  TYR94      -0.0009
     23  CE1      -56.4690  -70.2620   46.3350 C.ar   94  TYR94       0.0417
     24  CE2      -54.3010  -69.8460   45.3600 C.ar   94  TYR94       0.0417
     25  CZ       -55.1780  -70.6820   46.0370 C.ar   94  TYR94       0.1957
     26  OH       -54.7740  -71.9350   46.4190 O.3    94  TYR94      -0.2866
     27  N        -58.1530  -64.6370   42.9210 N.am   95  MET95      -0.1979
     28  CA       -58.7000  -63.3170   42.6120 C.3    95  MET95       0.1605
     29  C        -60.2330  -63.3720   42.5250 C.2    95  MET95       0.2287
     30  O        -60.9290  -62.4970   43.0600 O.2    95  MET95      -0.2864
     31  CB       -58.1250  -62.7740   41.2990 C.3    95  MET95       0.0413
     32  CG       -56.6130  -62.6490   41.2470 C.3    95  MET95       0.0598
     33  SD       -55.9090  -61.4070   42.3410 S.3    95  MET95      -0.1393
     34  CE       -54.3830  -62.2390   42.7880 C.3    95  MET95       0.0692
     35  N        -62.2330  -65.5360   43.9150 N.3    97  VAL97      -0.1231
     36  CA       -62.7970  -65.8050   45.2580 C.3    97  VAL97       0.1692
     37  C        -62.7670  -64.5400   46.1260 C.2    97  VAL97       0.2593
     38  O        -63.7600  -64.2030   46.7870 O.2    97  VAL97      -0.2718
     39  CB       -62.1300  -67.0270   45.9620 C.3    97  VAL97       0.0266
     40  CG1      -62.6430  -67.2020   47.3840 C.3    97  VAL97       0.0020
     41  CG2      -62.4040  -68.3110   45.1930 C.3    97  VAL97       0.0020
     42  N        -61.6310  -63.8440   46.0950 N.am   98  GLY98      -0.1942
     43  CA       -61.4620  -62.5510   46.7640 C.3    98  GLY98       0.2014
     44  C        -62.5630  -61.5560   46.4290 C.2    98  GLY98       0.2638
     45  O        -63.1040  -60.8980   47.3230 O.2    98  GLY98      -0.2714
     46  N        -62.8960  -61.4680   45.1400 N.am   99  ARG99      -0.1977
     47  CA       -63.9970  -60.6390   44.6490 C.3    99  ARG99       0.1597
     48  C        -65.2950  -61.0280   45.3490 C.2    99  ARG99       0.2287
     49  O        -66.0080  -60.1620   45.8740 O.2    99  ARG99      -0.2864
     50  CB       -64.1340  -60.7810   43.1230 C.3    99  ARG99       0.0334
     51  CG       -65.1850  -59.8950   42.4530 C.3    99  ARG99       0.0492
     52  CD       -66.6030  -60.4530   42.5230 C.3    99  ARG99       0.2205
     53  NE       -66.6570  -61.8810   42.2230 N.pl3  99  ARG99      -0.0865
     54  CZ       -66.8290  -62.4000   41.0100 C.cat  99  ARG99       0.5346
     55  NH1      -66.9910  -61.6140   39.9470 N.pl3  99  ARG99       0.1354
     56  NH2      -66.8580  -63.7210   40.8670 N.pl3  99  ARG99       0.1354
     57  N        -65.7220  -62.5310   48.1410 N.3   101  LEU101     -0.1231
     58  CA       -65.6820  -62.2380   49.5700 C.3   101  LEU101      0.1693
     59  C        -65.9080  -60.7670   49.8790 C.2   101  LEU101      0.2592
     60  O        -66.7330  -60.4340   50.7330 O.2   101  LEU101     -0.2718
     61  CB       -64.3720  -62.7250   50.1870 C.3   101  LEU101      0.0284
     62  CG       -64.2410  -64.2290   50.4150 C.3   101  LEU101      0.0019
     63  CD1      -62.7780  -64.5780   50.6140 C.3   101  LEU101      0.0001
     64  CD2      -65.0700  -64.6890   51.6050 C.3   101  LEU101      0.0001
     65  N        -65.1860  -59.9030   49.1680 N.am  102  TYR102     -0.1962
     66  CA       -65.2290  -58.4540   49.3770 C.3   102  TYR102      0.1771
     67  C        -66.5990  -57.8570   49.0060 C.2   102  TYR102      0.2619
     68  O        -67.1560  -57.0480   49.7590 O.2   102  TYR102     -0.2715
     69  CB       -64.0790  -57.7800   48.6050 C.3   102  TYR102      0.0574
     70  CG       -63.9590  -56.2840   48.7950 C.ar  102  TYR102     -0.0198
     71  CD1      -64.6320  -55.4050   47.9450 C.ar  102  TYR102     -0.0009
     72  CD2      -63.1670  -55.7420   49.8120 C.ar  102  TYR102     -0.0009
     73  CE1      -64.5330  -54.0290   48.1040 C.ar  102  TYR102      0.0417
     74  CE2      -63.0580  -54.3620   49.9800 C.ar  102  TYR102      0.0417
     75  CZ       -63.7470  -53.5120   49.1210 C.ar  102  TYR102      0.1957
     76  OH       -63.6620  -52.1490   49.2450 O.3   102  TYR102     -0.2866
     77  N        -67.1440  -58.2710   47.8650 N.am  103  TYR103     -0.1974
     78  CA       -68.4140  -57.7260   47.3900 C.3   103  TYR103      0.1639
     79  C        -69.6430  -58.5510   47.7930 C.2   103  TYR103      0.2290
     80  O        -70.7630  -58.2440   47.3780 O.2   103  TYR103     -0.2864
     81  CB       -68.3570  -57.4930   45.8810 C.3   103  TYR103      0.0560
     82  CG       -67.3250  -56.4680   45.4680 C.ar  103  TYR103     -0.0198
     83  CD1      -67.5350  -55.1020   45.6870 C.ar  103  TYR103     -0.0009
     84  CD2      -66.1330  -56.8630   44.8560 C.ar  103  TYR103     -0.0009
     85  CE1      -66.5880  -54.1560   45.3000 C.ar  103  TYR103      0.0417
     86  CE2      -65.1760  -55.9260   44.4690 C.ar  103  TYR103      0.0417
     87  CZ       -65.4010  -54.5720   44.6910 C.ar  103  TYR103      0.1957
     88  OH       -64.4450  -53.6470   44.3010 O.3   103  TYR103     -0.2866
     89  N        -70.2040  -53.9060   42.1590 N.3   207  PRO207     -0.2116
     90  CA       -69.4140  -53.3300   43.2640 C.3   207  PRO207      0.1372
     91  C        -70.1590  -52.6310   44.4090 C.2   207  PRO207      0.2244
     92  O        -69.7270  -52.7490   45.5570 O.2   207  PRO207     -0.2868
     93  CB       -68.4900  -52.3510   42.5510 C.3   207  PRO207      0.0268
     94  CG       -68.2330  -53.0140   41.2510 C.3   207  PRO207      0.0207
     95  CD       -69.5540  -53.6170   40.8610 C.3   207  PRO207      0.0892
     96  N        -49.9730  -71.9590   51.5030 N.3   275  PHE275     -0.1241
     97  CA       -50.7220  -71.3690   52.6130 C.3   275  PHE275      0.1605
     98  C        -51.2980  -72.4510   53.5340 C.2   275  PHE275      0.2264
     99  O        -51.2190  -72.3440   54.7590 O.2   275  PHE275     -0.2867
    100  CB       -51.8110  -70.4090   52.0980 C.3   275  PHE275      0.0534
    101  CG       -53.0840  -71.0910   51.6560 C.ar  275  PHE275     -0.0203
    102  CD1      -53.1710  -71.7090   50.4030 C.ar  275  PHE275     -0.0042
    103  CD2      -54.2040  -71.1210   52.4970 C.ar  275  PHE275     -0.0042
    104  CE1      -54.3490  -72.3390   50.0010 C.ar  275  PHE275     -0.0003
    105  CE2      -55.3810  -71.7520   52.1000 C.ar  275  PHE275     -0.0003
    106  CZ       -55.4530  -72.3620   50.8500 C.ar  275  PHE275     -0.0000
    107  N        -64.7700  -72.0380   53.4520 N.3   300  LEU300     -0.1245
    108  CA       -65.4370  -71.2700   52.4000 C.3   300  LEU300      0.1561
    109  C        -66.9410  -71.5150   52.3720 C.2   300  LEU300      0.2260
    110  O        -67.7050  -70.5970   52.0670 O.2   300  LEU300     -0.2867
    111  CB       -64.8430  -71.5790   51.0320 C.3   300  LEU300      0.0270
    112  CG       -63.5040  -70.9570   50.6400 C.3   300  LEU300      0.0019
    113  CD1      -63.0160  -71.6180   49.3660 C.3   300  LEU300      0.0001
    114  CD2      -63.5910  -69.4510   50.4460 C.3   300  LEU300      0.0001
    115  N        -67.9530  -52.0740   50.1610 N.3   315  MET315     -0.1245
    116  CA       -67.6910  -50.7480   49.6100 C.3   315  MET315      0.1570
    117  C        -67.9450  -49.6410   50.6330 C.2   315  MET315      0.2261
    118  O        -67.1120  -48.7430   50.7870 O.2   315  MET315     -0.2867
    119  CB       -68.5160  -50.5130   48.3420 C.3   315  MET315      0.0387
    120  CG       -68.2200  -49.1810   47.6690 C.3   315  MET315      0.0595
    121  SD       -69.1750  -48.8790   46.1790 S.3   315  MET315     -0.1393
    122  CE       -68.0710  -49.5140   44.9230 C.3   315  MET315      0.0692
    123  N        -63.3010  -53.5890   55.4360 N.3   321  GLN321     -0.1245
    124  CA       -62.2890  -53.4110   54.3960 C.3   321  GLN321      0.1566
    125  C        -60.8720  -53.6820   54.9000 C.2   321  GLN321      0.2260
    126  O        -60.1060  -54.4120   54.2630 O.2   321  GLN321     -0.2867
    127  CB       -62.3750  -52.0060   53.8070 C.3   321  GLN321      0.0367
    128  CG       -63.3850  -51.8690   52.6900 C.3   321  GLN321      0.0905
    129  CD       -62.9860  -50.7950   51.7160 C.2   321  GLN321      0.2608
    130  OE1      -61.9150  -50.8630   51.1090 O.2   321  GLN321     -0.2717
    131  NE2      -63.8510  -49.8080   51.5360 N.am  321  GLN321     -0.0878
    132  N        -60.4320  -57.3120   55.8410 N.3   324  PHE324     -0.1227
    133  CA       -60.2880  -58.0500   54.5830 C.3   324  PHE324      0.1736
    134  C        -58.8420  -58.0100   54.0700 C.2   324  PHE324      0.2595
    135  O        -58.2590  -59.0580   53.7790 O.2   324  PHE324     -0.2718
    136  CB       -61.2730  -57.5340   53.5210 C.3   324  PHE324      0.0547
    137  CG       -61.0840  -58.1540   52.1630 C.ar  324  PHE324     -0.0202
    138  CD1      -61.6840  -59.3770   51.8490 C.ar  324  PHE324     -0.0042
    139  CD2      -60.3020  -57.5190   51.1910 C.ar  324  PHE324     -0.0042
    140  CE1      -61.5030  -59.9580   50.5980 C.ar  324  PHE324     -0.0003
    141  CE2      -60.1190  -58.0970   49.9400 C.ar  324  PHE324     -0.0003
    142  CZ       -60.7220  -59.3160   49.6440 C.ar  324  PHE324     -0.0000
    143  N        -58.2710  -56.8070   53.9710 N.am  325  TRP325     -0.1976
    144  CA       -56.8940  -56.6320   53.4990 C.3   325  TRP325      0.1640
    145  C        -55.8560  -57.1950   54.4650 C.2   325  TRP325      0.2290
    146  O        -54.7630  -57.5740   54.0410 O.2   325  TRP325     -0.2864
    147  CB       -56.6000  -55.1700   53.1460 C.3   325  TRP325      0.0576
    148  CG       -57.2980  -54.7100   51.8920 C.ar  325  TRP325      0.0006
    149  CD1      -58.2930  -53.7800   51.8030 C.ar  325  TRP325      0.0946
    150  CD2      -57.0570  -55.1670   50.5540 C.ar  325  TRP325      0.0152
    151  NE1      -58.6890  -53.6270   50.4950 N.ar  325  TRP325     -0.2442
    152  CE2      -57.9470  -54.4650   49.7060 C.ar  325  TRP325      0.0810
    153  CE3      -56.1720  -56.1020   49.9850 C.ar  325  TRP325      0.0012
    154  CZ2      -57.9810  -54.6660   48.3130 C.ar  325  TRP325      0.0191
    155  CZ3      -56.2080  -56.3050   48.5920 C.ar  325  TRP325      0.0001
    156  CH2      -57.1100  -55.5900   47.7780 C.ar  325  TRP325      0.0015
    157  N        -56.6220  -60.0680   56.1930 N.3   327  LEU327     -0.1231
    158  CA       -56.7460  -61.4790   55.7930 C.3   327  LEU327      0.1693
    159  C        -55.9410  -61.8330   54.5330 C.2   327  LEU327      0.2591
    160  O        -55.4050  -62.9410   54.4460 O.2   327  LEU327     -0.2718
    161  CB       -58.2210  -61.8970   55.6320 C.3   327  LEU327      0.0284
    162  CG       -58.5540  -63.2440   54.9640 C.3   327  LEU327      0.0019
    163  CD1      -58.2860  -64.4170   55.8890 C.3   327  LEU327      0.0001
    164  CD2      -59.9850  -63.2700   54.4680 C.3   327  LEU327      0.0001
    165  N        -55.8640  -60.9000   53.5770 N.am  328  VAL328     -0.1980
    166  CA       -55.0940  -61.0950   52.3350 C.3   328  VAL328      0.1595
    167  C        -53.5980  -61.1240   52.6560 C.2   328  VAL328      0.2287
    168  O        -52.8930  -62.0620   52.2730 O.2   328  VAL328     -0.2864
    169  CB       -55.4280  -60.0330   51.2480 C.3   328  VAL328      0.0276
    170  CG1      -54.5480  -60.1990   50.0090 C.3   328  VAL328      0.0022
    171  CG2      -56.8970  -60.1060   50.8490 C.3   328  VAL328      0.0022
    172  N        -52.5840  -64.3150   54.3640 N.3   331  LEU331     -0.1245
    173  CA       -52.4550  -65.4130   53.3990 C.3   331  LEU331      0.1561
    174  C        -51.1230  -65.3720   52.6560 C.2   331  LEU331      0.2260
    175  O        -50.5250  -66.4200   52.3940 O.2   331  LEU331     -0.2867
    176  CB       -53.6210  -65.4310   52.4030 C.3   331  LEU331      0.0270
    177  CG       -54.9040  -66.1430   52.8320 C.3   331  LEU331      0.0019
    178  CD1      -56.1070  -65.5720   52.0960 C.3   331  LEU331      0.0001
    179  CD2      -54.7960  -67.6410   52.6020 C.3   331  LEU331      0.0001
    180  N        -55.6690  -66.3220   60.8250 N.3   357  TYR357     -0.1241
    181  CA       -56.5170  -66.7160   59.6860 C.3   357  TYR357      0.1605
    182  C        -57.9340  -67.0880   60.1280 C.2   357  TYR357      0.2264
    183  O        -58.9050  -66.4980   59.6520 O.2   357  TYR357     -0.2867
    184  CB       -55.8730  -67.8720   58.9020 C.3   357  TYR357      0.0534
    185  CG       -56.7000  -68.4320   57.7460 C.ar  357  TYR357     -0.0201
    186  CD1      -56.7400  -67.7710   56.5100 C.ar  357  TYR357     -0.0009
    187  CD2      -57.4160  -69.6410   57.8770 C.ar  357  TYR357     -0.0009
    188  CE1      -57.4760  -68.2800   55.4450 C.ar  357  TYR357      0.0417
    189  CE2      -58.1560  -70.1550   56.8160 C.ar  357  TYR357      0.0417
    190  CZ       -58.1820  -69.4690   55.6040 C.ar  357  TYR357      0.1957
    191  OH       -58.9050  -69.9490   54.5330 O.3   357  TYR357     -0.2866
@<TRIPOS>BOND
     1     1     2    1
     2     3     4    2
     3     3     2    1
     4     2     5    1
     5    55    54    1
     6     5     6    1
     7    95    94    1
     8    95    89    1
     9    56    54    1
    10    54    53    2
    11     6     7   ar
    12     6     8   ar
    13    32    31    1
    14    32    33    1
    15    94    93    1
    16    31    28    1
    17     7     9   ar
    18     8    11   ar
    19     8    10   ar
    20    11    13   ar
    21     9    10   ar
    22    10    12   ar
    23    13    14   ar
    24    89    90    1
    25    53    52    1
    26    33    34    1
    27    12    14   ar
    28    51    52    1
    29    51    50    1
    30    29    28    1
    31    29    30    2
    32    93    90    1
    33    28    27    1
    34    27    17   am
    35    15    16    1
    36    50    47    1
    37    90    91    1
    38    35    36    1
    39    17    16    1
    40    17    18    2
    41    16    19    1
    42    88    87    1
    43    91    92    2
    44    86    87   ar
    45    86    84   ar
    46    47    46    1
    47    47    48    1
    48    87    85   ar
    49    19    20    1
    50    84    82   ar
    51   122   121    1
    52    22    20   ar
    53    22    24   ar
    54    46    44   am
    55    41    39    1
    56    20    21   ar
    57    36    39    1
    58    36    37    1
    59    85    83   ar
    60    48    49    2
    61    24    25   ar
    62    82    83   ar
    63    82    81    1
    64    81    78    1
    65    21    23   ar
    66    39    40    1
    67    25    23   ar
    68    25    26    1
    69    42    37   am
    70    42    43    1
    71    37    38    2
    72   121   120    1
    73    44    43    1
    74    44    45    2
    75    80    79    2
    76    78    79    1
    77    78    77    1
    78   120   119    1
    79   156   154   ar
    80   156   155   ar
    81    77    67   am
    82    71    73   ar
    83    71    70   ar
    84    73    75   ar
    85    57    58    1
    86   154   152   ar
    87   119   116    1
    88   155   153   ar
    89    69    70    1
    90    69    66    1
    91    70    72   ar
    92    67    66    1
    93    67    68    2
    94    75    76    1
    95    75    74   ar
    96    65    66    1
    97    65    59   am
    98   113   112    1
    99    58    59    1
   100    58    61    1
   101   116   115    1
   102   116   117    1
   103   142   141   ar
   104   142   140   ar
   105   152   151   ar
   106   152   150   ar
   107    72    74   ar
   108    59    60    2
   109   141   139   ar
   110   153   150   ar
   111   104   102   ar
   112   104   106   ar
   113   170   169    1
   114    61    62    1
   115   102   101   ar
   116    62    63    1
   117    62    64    1
   118   114   112    1
   119   151   149   ar
   120   150   148   ar
   121   140   138   ar
   122   117   118    2
   123   112   111    1
   124   171   169    1
   125   106   105   ar
   126   111   108    1
   127   130   129    2
   128   139   137   ar
   129   169   166    1
   130    96    97    1
   131   131   129   am
   132   101   100    1
   133   101   103   ar
   134   129   128    1
   135   149   148   ar
   136   138   137   ar
   137   148   147    1
   138   110   109    2
   139   178   177    1
   140   100    97    1
   141   105   103   ar
   142   137   136    1
   143   168   167    2
   144   166   167    1
   145   166   165    1
   146   109   108    1
   147   175   174    2
   148   108   107    1
   149   176   177    1
   150   176   173    1
   151   179   177    1
   152    97    98    1
   153   174   173    1
   154   128   127    1
   155   147   144    1
   156   173   172    1
   157   144   143    1
   158   144   145    1
   159   136   133    1
   160    98    99    2
   161   165   159   am
   162   135   134    2
   163   127   124    1
   164   143   134   am
   165   146   145    2
   166   134   133    1
   167   126   125    2
   168   124   125    1
   169   124   123    1
   170   160   159    2
   171   164   162    1
   172   159   158    1
   173   191   190    1
   174   133   132    1
   175   162   161    1
   176   162   163    1
   177   188   190   ar
   178   188   186   ar
   179   190   189   ar
   180   161   158    1
   181   158   157    1
   182   186   185   ar
   183   189   187   ar
   184   185   187   ar
   185   185   184    1
   186   184   181    1
   187   183   182    2
   188   181   182    1
   189   181   180    1
