@<TRIPOS>MOLECULE
tmp/6hawB00.pdb
 94 85 0 0 0
SMALL
GASTEIGER

@<TRIPOS>ATOM
      1  N       -135.5880  -36.3090    4.3450 N.3   238  ILE238     -0.1245
      2  CA      -134.7660  -35.7960    3.2400 C.3   238  ILE238      0.1561
      3  C       -135.4970  -35.9570    1.8940 C.2   238  ILE238      0.2260
      4  O       -136.0860  -37.0080    1.6200 O.2   238  ILE238     -0.2867
      5  CB      -133.3120  -36.3720    3.2600 C.3   238  ILE238      0.0252
      6  CG1     -132.3370  -35.3920    2.5870 C.3   238  ILE238      0.0019
      7  CG2     -133.2270  -37.7830    2.6730 C.3   238  ILE238      0.0019
      8  CD1     -130.9840  -35.2660    3.2660 C.3   238  ILE238      0.0001
      9  N       -135.2700  -28.5630    4.0260 N.3   244  ASN244     -0.1240
     10  CA      -134.4940  -27.3600    3.7170 C.3   244  ASN244      0.1653
     11  C       -134.6350  -26.2800    4.7990 C.2   244  ASN244      0.2266
     12  O       -133.6740  -25.5610    5.0840 O.2   244  ASN244     -0.2867
     13  CB      -134.8820  -26.8000    2.3400 C.3   244  ASN244      0.1155
     14  CG      -134.4490  -27.6930    1.1780 C.2   244  ASN244      0.2627
     15  OD1     -133.7240  -28.6740    1.3470 O.2   244  ASN244     -0.2716
     16  ND2     -134.8920  -27.3380   -0.0200 N.am  244  ASN244     -0.0877
     17  N       -132.4050  -27.2120    7.7660 N.3   247  SER247     -0.1217
     18  CA      -131.0190  -26.9340    7.3650 C.3   247  SER247      0.1889
     19  C       -130.6420  -25.4550    7.5430 C.2   247  SER247      0.2288
     20  O       -129.5300  -25.1480    7.9900 O.2   247  SER247     -0.2866
     21  CB      -130.7570  -27.3830    5.9210 C.3   247  SER247      0.2089
     22  OG      -130.9690  -28.7740    5.7540 O.3   247  SER247     -0.2183
     23  N       -124.8360  -22.1440    4.5450 N.3   338  LEU338     -0.1245
     24  CA      -125.3360  -23.3950    3.9440 C.3   338  LEU338      0.1561
     25  C       -125.0480  -23.5250    2.4370 C.2   338  LEU338      0.2260
     26  O       -124.6340  -24.6010    1.9780 O.2   338  LEU338     -0.2867
     27  CB      -126.8380  -23.5640    4.2380 C.3   338  LEU338      0.0270
     28  CG      -127.6840  -24.7120    3.6600 C.3   338  LEU338      0.0019
     29  CD1     -127.2340  -26.0890    4.1250 C.3   338  LEU338      0.0001
     30  CD2     -129.1480  -24.4990    4.0170 C.3   338  LEU338      0.0001
     31  N       -122.3890  -26.3940    1.0100 N.3   342  TYR342     -0.1241
     32  CA      -122.7290  -27.3940   -0.0170 C.3   342  TYR342      0.1605
     33  C       -121.7590  -27.3940   -1.2040 C.2   342  TYR342      0.2264
     34  O       -121.2810  -28.4560   -1.6030 O.2   342  TYR342     -0.2867
     35  CB      -124.1860  -27.2620   -0.4970 C.3   342  TYR342      0.0534
     36  CG      -124.5720  -28.2270   -1.6230 C.ar  342  TYR342     -0.0201
     37  CD1     -124.9190  -29.5620   -1.3560 C.ar  342  TYR342     -0.0009
     38  CD2     -124.5950  -27.7990   -2.9600 C.ar  342  TYR342     -0.0009
     39  CE1     -125.2680  -30.4360   -2.3880 C.ar  342  TYR342      0.0417
     40  CE2     -124.9430  -28.6660   -3.9950 C.ar  342  TYR342      0.0417
     41  CZ      -125.2770  -29.9780   -3.7060 C.ar  342  TYR342      0.1957
     42  OH      -125.6160  -30.8120   -4.7430 O.3   342  TYR342     -0.2866
     43  N       -119.6410  -38.7530   -3.7580 N.3   354  ASP354     -0.1225
     44  CA      -120.5430  -39.0640   -2.6530 C.3   354  ASP354      0.1805
     45  C       -121.9370  -38.4670   -2.8350 C.2   354  ASP354      0.2597
     46  O       -122.9210  -39.1280   -2.5180 O.2   354  ASP354     -0.2718
     47  CB      -119.9510  -38.6450   -1.3030 C.3   354  ASP354      0.1424
     48  CG      -120.6820  -39.2780   -0.1190 C.2   354  ASP354      0.3668
     49  OD1     -120.7460  -40.5260   -0.0330 O.co2 354  ASP354     -0.2456
     50  OD2     -121.1900  -38.5250    0.7370 O.co2 354  ASP354     -0.2456
     51  N       -122.0160  -37.2420   -3.3580 N.am  355  GLU355     -0.1979
     52  CA      -123.3080  -36.5840   -3.6110 C.3   355  GLU355      0.1602
     53  C       -124.0860  -37.2040   -4.7760 C.2   355  GLU355      0.2287
     54  O       -125.2910  -37.4390   -4.6470 O.2   355  GLU355     -0.2864
     55  CB      -123.1420  -35.0660   -3.7970 C.3   355  GLU355      0.0415
     56  CG      -124.4410  -34.2670   -3.9450 C.3   355  GLU355      0.1163
     57  CD      -125.3520  -34.2810   -2.7160 C.2   355  GLU355      0.3649
     58  OE1     -124.9250  -34.7030   -1.6140 O.co2 355  GLU355     -0.2457
     59  OE2     -126.5160  -33.8490   -2.8570 O.co2 355  GLU355     -0.2457
     60  N       -125.3240  -40.5350   -3.5420 N.3   358  SER358     -0.1202
     61  CA      -126.3110  -40.3150   -2.4790 C.3   358  SER358      0.2020
     62  C       -127.6750  -39.9400   -3.0470 C.2   358  SER358      0.2618
     63  O       -128.6860  -40.5190   -2.6480 O.2   358  SER358     -0.2717
     64  CB      -125.8350  -39.2460   -1.4910 C.3   358  SER358      0.2103
     65  OG      -124.7350  -39.7080   -0.7200 O.3   358  SER358     -0.2182
     66  N       -127.6740  -38.9890   -3.9860 N.am  359  GLN359     -0.1979
     67  CA      -128.8700  -38.5420   -4.7040 C.3   359  GLN359      0.1601
     68  C       -129.5290  -39.6630   -5.5030 C.2   359  GLN359      0.2287
     69  O       -130.7500  -39.8130   -5.4600 O.2   359  GLN359     -0.2864
     70  CB      -128.5360  -37.3750   -5.6340 C.3   359  GLN359      0.0394
     71  CG      -128.4580  -36.0250   -4.9390 C.3   359  GLN359      0.0908
     72  CD      -128.1920  -34.8680   -5.8890 C.2   359  GLN359      0.2608
     73  OE1     -128.5320  -34.9110   -7.0760 O.2   359  GLN359     -0.2717
     74  NE2     -127.5870  -33.8160   -5.3600 N.am  359  GLN359     -0.0878
     75  N       -131.5950  -42.0880   -2.9820 N.3   362  ALA362     -0.1245
     76  CA      -132.7010  -41.4350   -2.2670 C.3   362  ALA362      0.1562
     77  C       -133.7290  -40.7940   -3.1940 C.2   362  ALA362      0.2260
     78  O       -134.8970  -40.6680   -2.8260 O.2   362  ALA362     -0.2867
     79  CB      -132.1630  -40.4060   -1.2860 C.3   362  ALA362      0.0290
     80  N       -130.0400  -26.4990   -6.4840 N.3   372  VAL372     -0.1245
     81  CA      -129.9590  -26.7080   -5.0230 C.3   372  VAL372      0.1561
     82  C       -129.9290  -25.3730   -4.2630 C.2   372  VAL372      0.2260
     83  O       -130.6330  -25.2110   -3.2580 O.2   372  VAL372     -0.2867
     84  CB      -128.7390  -27.5890   -4.6330 C.3   372  VAL372      0.0252
     85  CG1     -128.6970  -27.8540   -3.1340 C.3   372  VAL372      0.0019
     86  CG2     -128.7740  -28.9130   -5.3780 C.3   372  VAL372      0.0019
     87  N       -132.6420  -23.5030   -1.5630 N.3   376  ILE376     -0.1245
     88  CA      -132.2550  -22.8860   -0.2860 C.3   376  ILE376      0.1561
     89  C       -132.8590  -21.4810   -0.1760 C.2   376  ILE376      0.2260
     90  O       -133.4350  -21.1380    0.8630 O.2   376  ILE376     -0.2867
     91  CB      -130.7200  -22.8570   -0.0820 C.3   376  ILE376      0.0252
     92  CG1     -130.1700  -24.2840    0.0270 C.3   376  ILE376      0.0019
     93  CG2     -130.3450  -22.0580    1.1640 C.3   376  ILE376      0.0019
     94  CD1     -128.6740  -24.4100   -0.1930 C.3   376  ILE376      0.0001
@<TRIPOS>BOND
     1    73    72    2
     2    80    81    1
     3    72    74   am
     4    72    71    1
     5    70    71    1
     6    70    67    1
     7    68    69    2
     8    68    67    1
     9    86    84    1
    10    81    84    1
    11    81    82    1
    12    53    54    2
    13    53    52    1
    14    42    41    1
    15    67    66    1
    16    84    85    1
    17    82    83    2
    18    40    41   ar
    19    40    38   ar
    20    66    62   am
    21    56    55    1
    22    56    57    1
    23    55    52    1
    24    43    44    1
    25    41    39   ar
    26    52    51    1
    27    60    61    1
    28    51    45   am
    29    77    78    2
    30    77    76    1
    31    62    63    2
    32    62    61    1
    33    75    76    1
    34    38    36   ar
    35    59    57   ar
    36    45    44    1
    37    45    46    2
    38    57    58   ar
    39    44    47    1
    40    61    64    1
    41    39    37   ar
    42    76    79    1
    43    36    37   ar
    44    36    35    1
    45    34    33    2
    46    87    88    1
    47    64    65    1
    48    47    48    1
    49    33    32    1
    50    35    32    1
    51    88    89    1
    52    88    91    1
    53    94    92    1
    54    89    90    2
    55    48    49   ar
    56    48    50   ar
    57    91    92    1
    58    91    93    1
    59    16    14   am
    60    32    31    1
    61    14    15    2
    62    14    13    1
    63     4     3    2
    64     3     2    1
    65    26    25    2
    66    13    10    1
    67    25    24    1
    68     6     5    1
    69     6     8    1
    70     7     5    1
    71     2     5    1
    72     2     1    1
    73    28    30    1
    74    28    29    1
    75    28    27    1
    76    10     9    1
    77    10    11    1
    78    24    27    1
    79    24    23    1
    80    11    12    2
    81    22    21    1
    82    21    18    1
    83    18    19    1
    84    18    17    1
    85    19    20    2
