@<TRIPOS>MOLECULE
tmp/6hbuA00.pdb
 121 113 0 0 0
SMALL
GASTEIGER

@<TRIPOS>ATOM
      1  N        113.2900   80.2680  130.5420 N.3    11  TYR11      -0.1241
      2  CA       113.0930   80.9850  129.2960 C.3    11  TYR11       0.1605
      3  C        114.4560   81.4100  128.7670 C.2    11  TYR11       0.2264
      4  O        115.4390   81.4410  129.5030 O.2    11  TYR11      -0.2867
      5  CB       112.1220   82.1570  129.4900 C.3    11  TYR11       0.0534
      6  CG       111.7340   82.8360  128.2080 C.ar   11  TYR11      -0.0201
      7  CD1      111.0360   82.1490  127.2310 C.ar   11  TYR11      -0.0009
      8  CD2      112.0390   84.1640  127.9860 C.ar   11  TYR11      -0.0009
      9  CE1      110.6870   82.7500  126.0510 C.ar   11  TYR11       0.0417
     10  CE2      111.6890   84.7770  126.8160 C.ar   11  TYR11       0.0417
     11  CZ       111.0200   84.0670  125.8460 C.ar   11  TYR11       0.1957
     12  OH       110.6650   84.6890  124.6740 O.3    11  TYR11      -0.2866
     13  N        116.2980   83.9950  125.4330 N.3    13  VAL13      -0.1245
     14  CA       116.1310   85.0000  124.3920 C.3    13  VAL13       0.1561
     15  C        117.3860   85.0040  123.5380 C.2    13  VAL13       0.2260
     16  O        118.4880   85.2130  124.0560 O.2    13  VAL13      -0.2867
     17  CB       115.8720   86.3980  124.9760 C.3    13  VAL13       0.0252
     18  CG1      116.0520   87.4580  123.9230 C.3    13  VAL13       0.0019
     19  CG2      114.4780   86.4770  125.4960 C.3    13  VAL13       0.0019
     20  N        119.6110   86.9200  121.2400 N.3    15  LEU15      -0.1245
     21  CA       119.9080   88.2900  120.8470 C.3    15  LEU15       0.1561
     22  C        120.7620   88.3320  119.5830 C.2    15  LEU15       0.2260
     23  O        120.3520   88.8760  118.5580 O.2    15  LEU15      -0.2867
     24  CB       120.6140   89.0290  121.9820 C.3    15  LEU15       0.0270
     25  CG       119.7570   89.2830  123.2190 C.3    15  LEU15       0.0019
     26  CD1      120.5710   89.9350  124.3240 C.3    15  LEU15       0.0001
     27  CD2      118.5720   90.1450  122.8490 C.3    15  LEU15       0.0001
     28  N        120.3740   84.5280  126.1260 N.3    19  LYS19      -0.1245
     29  CA       120.4090   85.0910  127.4660 C.3    19  LYS19       0.1561
     30  C        119.2620   84.5030  128.2670 C.2    19  LYS19       0.2260
     31  O        118.1400   84.3970  127.7690 O.2    19  LYS19      -0.2867
     32  CB       120.3250   86.6120  127.4300 C.3    19  LYS19       0.0271
     33  CG       120.4400   87.2710  128.7880 C.3    19  LYS19       0.0035
     34  CD       120.5980   88.7740  128.6620 C.3    19  LYS19       0.0206
     35  CE       119.2710   89.5000  128.5920 C.3    19  LYS19       0.1093
     36  NZ       118.7290   89.5480  127.2110 N.3    19  LYS19      -0.1314
     37  N        116.8130   84.9080  130.6360 N.3    21  ILE21      -0.1245
     38  CA       115.7480   85.5100  131.4160 C.3    21  ILE21       0.1561
     39  C        114.9320   84.3720  132.0020 C.2    21  ILE21       0.2260
     40  O        114.7160   83.3680  131.3220 O.2    21  ILE21      -0.2867
     41  CB       114.9020   86.4250  130.5100 C.3    21  ILE21       0.0252
     42  CG1      115.7430   87.5750  129.9640 C.3    21  ILE21       0.0019
     43  CG2      113.7430   87.0210  131.2330 C.3    21  ILE21       0.0019
     44  CD1      116.2350   87.3950  128.5630 C.3    21  ILE21       0.0001
     45  N        112.9620   96.3120  138.6420 N.3    40  THR40      -0.1203
     46  CA       112.8490   96.5180  137.2090 C.3    40  THR40       0.1994
     47  C        113.9000   95.6830  136.4970 C.2    40  THR40       0.2618
     48  O        115.0860   95.7510  136.8250 O.2    40  THR40      -0.2717
     49  CB       113.0080   97.9950  136.8640 C.3    40  THR40       0.1784
     50  OG1      114.2900   98.4540  137.2950 O.3    40  THR40      -0.2211
     51  CG2      111.9520   98.7990  137.5520 C.3    40  THR40       0.0376
     52  N        113.4630   94.8970  135.5240 N.am   41  GLY41      -0.1942
     53  CA       114.3240   93.9270  134.8970 C.3    41  GLY41       0.2014
     54  C        114.3840   92.6000  135.6080 C.2    41  GLY41       0.2639
     55  O        115.2610   91.7890  135.2950 O.2    41  GLY41      -0.2714
     56  N        113.4810   92.3500  136.5570 N.am   42  GLY42      -0.1939
     57  CA       113.5110   91.1150  137.3100 C.3    42  GLY42       0.2014
     58  C        112.8810   89.9370  136.6120 C.2    42  GLY42       0.2639
     59  O        113.1590   88.7950  136.9840 O.2    42  GLY42      -0.2714
     60  N        112.0380   90.1800  135.6180 N.am   43  GLY43      -0.1939
     61  CA       111.4140   89.1000  134.8880 C.3    43  GLY43       0.2014
     62  C        109.9280   88.9810  135.1360 C.2    43  GLY43       0.2639
     63  O        109.3650   87.8960  134.9980 O.2    43  GLY43      -0.2714
     64  N        109.2740   90.0890  135.4890 N.am   44  LYS44      -0.1963
     65  CA       107.8710   90.0250  135.8840 C.3    44  LYS44       0.1728
     66  C        106.9360   90.0130  134.6860 C.2    44  LYS44       0.2617
     67  O        105.9460   89.2810  134.6900 O.2    44  LYS44      -0.2715
     68  CB       107.5210   91.1900  136.7980 C.3    44  LYS44       0.0311
     69  CG       108.2460   91.1940  138.1100 C.3    44  LYS44       0.0038
     70  CD       107.7230   92.2990  138.9770 C.3    44  LYS44       0.0206
     71  CE       108.0730   93.6260  138.3850 C.3    44  LYS44       0.1093
     72  NZ       109.5350   93.8440  138.3620 N.3    44  LYS44      -0.1314
     73  N        107.2060   90.8270  133.6670 N.am   45  SER45      -0.1936
     74  CA       106.4090   90.7730  132.4510 C.3    45  SER45       0.2055
     75  C        106.7740   89.5900  131.5790 C.2    45  SER45       0.2643
     76  O        106.0160   89.2510  130.6690 O.2    45  SER45      -0.2714
     77  CB       106.5610   92.0550  131.6390 C.3    45  SER45       0.2130
     78  OG       106.0140   93.1660  132.3240 O.3    45  SER45      -0.2179
     79  N        107.9220   88.9630  131.8240 N.am   46  SER46      -0.1949
     80  CA       108.2820   87.7640  131.0850 C.3    46  SER46       0.1924
     81  C        107.6500   86.5300  131.7040 C.2    46  SER46       0.2314
     82  O        107.2680   85.6060  130.9850 O.2    46  SER46      -0.2863
     83  CB       109.7960   87.6200  131.0280 C.3    46  SER46       0.2116
     84  OG       110.3900   88.6840  130.3060 O.3    46  SER46      -0.2180
     85  N        104.5310   83.7050  124.9360 N.3    55  LYS55      -0.1245
     86  CA       105.9220   83.6740  124.5230 C.3    55  LYS55       0.1561
     87  C        106.1300   82.5280  123.5490 C.2    55  LYS55       0.2260
     88  O        105.3550   81.5700  123.5080 O.2    55  LYS55      -0.2867
     89  CB       106.8660   83.5160  125.7190 C.3    55  LYS55       0.0271
     90  CG       106.6970   84.5960  126.7500 C.3    55  LYS55       0.0035
     91  CD       107.0690   85.9810  126.2540 C.3    55  LYS55       0.0206
     92  CE       108.4870   86.3390  126.5280 C.3    55  LYS55       0.1093
     93  NZ       108.7620   87.7520  126.1720 N.3    55  LYS55      -0.1314
     94  N        101.0910   95.9420  129.3820 N.3    84  GLN84      -0.1245
     95  CA       101.6780   97.0400  130.1360 C.3    84  GLN84       0.1566
     96  C        101.6000   98.3570  129.3720 C.2    84  GLN84       0.2260
     97  O        101.3330   99.4050  129.9690 O.2    84  GLN84      -0.2867
     98  CB       103.1250   96.7160  130.4910 C.3    84  GLN84       0.0367
     99  CG       103.7540   97.7170  131.4280 C.3    84  GLN84       0.0905
    100  CD       105.1850   97.3880  131.7450 C.2    84  GLN84       0.2608
    101  OE1      105.7280   96.4100  131.2470 O.2    84  GLN84      -0.2717
    102  NE2      105.8130   98.2130  132.5700 N.am   84  GLN84      -0.0878
    103  N        101.2080   95.3130  135.5460 N.3   169  GLN169     -0.1245
    104  CA       101.3360   96.5570  136.3030 C.3   169  GLN169      0.1566
    105  C        100.1170   97.4550  136.1500 C.2   169  GLN169      0.2260
    106  O        100.2110   98.5070  135.5120 O.2   169  GLN169     -0.2867
    107  CB       102.5960   97.2950  135.8750 C.3   169  GLN169      0.0367
    108  CG       103.8290   96.5120  136.1720 C.3   169  GLN169      0.0905
    109  CD       105.0450   97.1330  135.5750 C.2   169  GLN169      0.2608
    110  OE1      106.1370   96.5730  135.6260 O.2   169  GLN169     -0.2717
    111  NE2      104.8880   98.3390  135.0720 N.am  169  GLN169     -0.0878
    112  N        104.1200   97.5050  140.8890 N.3   201  HIS201     -0.1241
    113  CA       105.1780   98.3320  141.4460 C.3   201  HIS201      0.1621
    114  C        104.5830   99.2910  142.4550 C.2   201  HIS201      0.2264
    115  O        103.5340   99.8880  142.2020 O.2   201  HIS201     -0.2867
    116  CB       105.9290   99.1390  140.3990 C.3   201  HIS201      0.0745
    117  CG       106.8100   98.3300  139.5070 C.ar  201  HIS201      0.0817
    118  ND1      107.8800   97.6080  139.9840 N.ar  201  HIS201     -0.2268
    119  CD2      106.8390   98.2010  138.1620 C.ar  201  HIS201      0.1154
    120  CE1      108.5020   97.0290  138.9760 C.ar  201  HIS201      0.1986
    121  NE2      107.8910   97.3740  137.8590 N.ar  201  HIS201     -0.2212
@<TRIPOS>BOND
     1    23    22    2
     2    22    21    1
     3    21    20    1
     4    21    24    1
     5    24    25    1
     6    27    25    1
     7    25    26    1
     8    88    87    2
     9    15    16    2
    10    15    14    1
    11    87    86    1
    12    18    17    1
    13    14    17    1
    14    14    13    1
    15    86    85    1
    16    86    89    1
    17    12    11    1
    18    17    19    1
    19    89    90    1
    20    11     9   ar
    21    11    10   ar
    22     9     7   ar
    23    28    29    1
    24    93    92    1
    25    91    92    1
    26    91    90    1
    27    10     8   ar
    28    36    35    1
    29     7     6   ar
    30    32    29    1
    31    32    33    1
    32    29    30    1
    33    31    30    2
    34     8     6   ar
    35     6     5    1
    36    44    42    1
    37    35    34    1
    38    34    33    1
    39     3     2    1
    40     3     4    2
    41     2     5    1
    42     2     1    1
    43    96    97    2
    44    96    95    1
    45    94    95    1
    46    42    41    1
    47    95    98    1
    48    84    83    1
    49    98    99    1
    50    41    43    1
    51    41    38    1
    52    37    38    1
    53    76    75    2
    54    82    81    2
    55    83    80    1
    56    80    81    1
    57    80    79    1
    58   101   100    2
    59    40    39    2
    60    38    39    1
    61    99   100    1
    62    75    79   am
    63    75    74    1
    64    77    78    1
    65    77    74    1
    66   100   102   am
    67    74    73    1
    68    73    66   am
    69    66    67    2
    70    66    65    1
    71    61    62    1
    72    61    60    1
    73    53    52    1
    74    53    54    1
    75    63    62    2
    76   111   109   am
    77    62    64   am
    78    55    54    2
    79    64    65    1
    80   106   105    2
    81    52    47   am
    82   103   104    1
    83   109   110    2
    84   109   108    1
    85    54    56   am
    86    60    58   am
    87   107   108    1
    88   107   104    1
    89    65    68    1
    90   105   104    1
    91    47    48    2
    92    47    46    1
    93    56    57    1
    94    58    59    2
    95    58    57    1
    96    68    69    1
    97    49    46    1
    98    49    50    1
    99    49    51    1
   100    46    45    1
   101   121   119   ar
   102   121   120   ar
   103    69    70    1
   104   119   117   ar
   105    72    71    1
   106    71    70    1
   107   120   118   ar
   108   117   118   ar
   109   117   116    1
   110   116   113    1
   111   112   113    1
   112   113   114    1
   113   115   114    2
