@<TRIPOS>MOLECULE
tmp/6hbuA01.pdb
 71 67 0 0 0
SMALL
GASTEIGER

@<TRIPOS>ATOM
      1  N         85.5450  111.0930  130.8550 N.3   131  VAL131     -0.1245
      2  CA        86.2220  110.8410  129.5940 C.3   131  VAL131      0.1561
      3  C         85.6150  109.6590  128.8430 C.2   131  VAL131      0.2260
      4  O         86.2280  109.1510  127.9300 O.2   131  VAL131     -0.2867
      5  CB        87.7330  110.6360  129.8040 C.3   131  VAL131      0.0252
      6  CG1       88.3650  111.9040  130.3230 C.3   131  VAL131      0.0019
      7  CG2       87.9810  109.4910  130.7460 C.3   131  VAL131      0.0019
      8  N         85.1060  110.8180  125.3530 N.3   134  SER134     -0.1202
      9  CA        86.2850  111.4960  124.8370 C.3   134  SER134      0.2020
     10  C         87.1700  110.5100  124.0910 C.2   134  SER134      0.2618
     11  O         87.2700  109.3410  124.4630 O.2   134  SER134     -0.2717
     12  CB        87.0960  112.1460  125.9610 C.3   134  SER134      0.2103
     13  OG        86.3650  113.1700  126.6090 O.3   134  SER134     -0.2182
     14  N         87.8290  111.0050  123.0470 N.am  135  LYS135     -0.1979
     15  CA        88.6660  110.1620  122.2040 C.3   135  LYS135      0.1596
     16  C         89.9170  109.7610  122.9670 C.2   135  LYS135      0.2287
     17  O         90.5530  110.6020  123.6080 O.2   135  LYS135     -0.2864
     18  CB        89.0620  110.9110  120.9340 C.3   135  LYS135      0.0298
     19  CG        87.9130  111.5390  120.1770 C.3   135  LYS135      0.0038
     20  CD        86.9990  110.5280  119.5460 C.3   135  LYS135      0.0206
     21  CE        87.6500  109.9290  118.3390 C.3   135  LYS135      0.1093
     22  NZ        86.7220  109.0160  117.6210 N.3   135  LYS135     -0.1314
     23  N         96.8020  114.5710  120.9580 N.3   142  ARG142     -0.1231
     24  CA        96.5920  114.3360  122.3750 C.3   142  ARG142      0.1694
     25  C         95.1130  114.1400  122.6800 C.2   142  ARG142      0.2593
     26  O         94.2480  114.8460  122.1610 O.2   142  ARG142     -0.2718
     27  CB        97.1540  115.5210  123.1560 C.3   142  ARG142      0.0321
     28  CG        96.8010  115.5920  124.6100 C.3   142  ARG142      0.0489
     29  CD        97.4270  114.5090  125.4100 C.3   142  ARG142      0.2205
     30  NE        97.0640  114.6630  126.8080 N.pl3 142  ARG142     -0.0865
     31  CZ        97.7480  115.4090  127.6610 C.cat 142  ARG142      0.5346
     32  NH1       97.3530  115.4930  128.9070 N.pl3 142  ARG142      0.1354
     33  NH2       98.8270  116.0720  127.2710 N.pl3 142  ARG142      0.1354
     34  N         94.8230  113.1490  123.5120 N.am  143  GLY143     -0.1942
     35  CA        93.4720  112.9440  123.9790 C.3   143  GLY143      0.2014
     36  C         93.4200  112.6320  125.4550 C.2   143  GLY143      0.2639
     37  O         93.9390  113.3820  126.2800 O.2   143  GLY143     -0.2714
     38  N         92.7590  111.5300  125.7800 N.am  144  VAL144     -0.1963
     39  CA        92.7030  110.9110  127.1010 C.3   144  VAL144      0.1727
     40  C         94.0940  110.7170  127.7040 C.2   144  VAL144      0.2617
     41  O         95.0340  110.3160  127.0100 O.2   144  VAL144     -0.2715
     42  CB        91.9150  109.5940  126.9570 C.3   144  VAL144      0.0290
     43  CG1       92.2370  108.6050  128.0040 C.3   144  VAL144      0.0023
     44  CG2       90.4450  109.8970  127.0120 C.3   144  VAL144      0.0023
     45  N         94.2400  111.0340  128.9920 N.am  145  SER145     -0.1936
     46  CA        95.5200  111.0390  129.6820 C.3   145  SER145      0.2055
     47  C         96.0590  109.6240  129.8760 C.2   145  SER145      0.2644
     48  O         95.4100  108.6310  129.5550 O.2   145  SER145     -0.2714
     49  CB        95.3920  111.7500  131.0230 C.3   145  SER145      0.2130
     50  OG        94.5640  111.0390  131.9120 O.3   145  SER145     -0.2179
     51  N         97.2680  109.5380  130.4330 N.am  146  GLY146     -0.1939
     52  CA        97.9700  108.2690  130.4930 C.3   146  GLY146      0.2014
     53  C         97.4040  107.2950  131.5010 C.2   146  GLY146      0.2639
     54  O         97.4900  106.0830  131.3060 O.2   146  GLY146     -0.2714
     55  N         96.8310  107.7980  132.5840 N.am  147  GLY147     -0.1939
     56  CA        96.2010  106.9430  133.5640 C.3   147  GLY147      0.2014
     57  C         94.7710  106.6300  133.2010 C.2   147  GLY147      0.2638
     58  O         94.2390  105.5850  133.5680 O.2   147  GLY147     -0.2714
     59  N         94.1360  107.5430  132.4760 N.am  148  GLU148     -0.1977
     60  CA        92.7890  107.3070  131.9800 C.3   148  GLU148      0.1602
     61  C         92.7800  106.3570  130.7940 C.2   148  GLU148      0.2287
     62  O         91.7770  105.6790  130.5600 O.2   148  GLU148     -0.2864
     63  CB        92.1410  108.6330  131.6010 C.3   148  GLU148      0.0415
     64  CG        91.7810  109.5080  132.7600 C.3   148  GLU148      0.1163
     65  CD        91.2760  110.8480  132.3210 C.2   148  GLU148      0.3649
     66  OE1       91.4400  111.1700  131.1310 O.co2 148  GLU148     -0.2457
     67  OE2       90.7040  111.5790  133.1540 O.co2 148  GLU148     -0.2457
     68  N        100.8390  104.3030  136.5030 N.3   173  GLY173     -0.1225
     69  CA       100.1230  105.3820  135.8610 C.3   173  GLY173      0.1811
     70  C         98.9590  105.9130  136.6610 C.2   173  GLY173      0.2280
     71  O         98.3760  106.9250  136.2660 O.2   173  GLY173     -0.2866
@<TRIPOS>BOND
     1    22    21    1
     2    21    20    1
     3    20    19    1
     4    19    18    1
     5    18    15    1
     6    23    24    1
     7    26    25    2
     8    15    16    1
     9    15    14    1
    10    24    25    1
    11    24    27    1
    12    25    34   am
    13    16    17    2
    14    14    10   am
    15    27    28    1
    16    34    35    1
    17    35    36    1
    18    10    11    2
    19    10     9    1
    20    28    29    1
    21     9     8    1
    22     9    12    1
    23    29    30    1
    24    36    38   am
    25    36    37    2
    26    38    39    1
    27    12    13    1
    28    30    31    2
    29    42    44    1
    30    42    39    1
    31    42    43    1
    32    41    40    2
    33    39    40    1
    34    33    31    1
    35    31    32    1
    36    40    45   am
    37     4     3    2
    38     3     2    1
    39    45    46    1
    40    48    47    2
    41     2     5    1
    42     2     1    1
    43    46    47    1
    44    46    49    1
    45     5     6    1
    46     5     7    1
    47    47    51   am
    48    51    52    1
    49    52    53    1
    50    62    61    2
    51    61    60    1
    52    49    50    1
    53    66    65   ar
    54    54    53    2
    55    53    55   am
    56    63    60    1
    57    63    64    1
    58    60    59    1
    59    65    64    1
    60    65    67   ar
    61    59    57   am
    62    55    56    1
    63    57    56    1
    64    57    58    2
    65    69    68    1
    66    69    70    1
    67    71    70    2
