@<TRIPOS>MOLECULE
tmp/6hcdD00.pdb
 119 112 0 0 0
SMALL
GASTEIGER

@<TRIPOS>ATOM
      1  N         26.7810   57.5570   57.5330 N.3    13  ALA13      -0.1231
      2  CA        26.7900   56.9090   56.2300 C.3    13  ALA13       0.1694
      3  C         27.8340   57.5910   55.3460 C.2    13  ALA13       0.2592
      4  O         27.8000   58.8170   55.2050 O.2    13  ALA13      -0.2718
      5  CB        25.4240   56.9970   55.6270 C.3    13  ALA13       0.0304
      6  N         28.7580   56.8090   54.7810 N.am   14  VAL14      -0.1966
      7  CA        29.7880   57.3510   53.8970 C.3    14  VAL14       0.1727
      8  C         29.7440   56.5920   52.5650 C.2    14  VAL14       0.2616
      9  O         29.6920   55.3750   52.5370 O.2    14  VAL14      -0.2715
     10  CB        31.1890   57.2840   54.5450 C.3    14  VAL14       0.0290
     11  CG1       31.3010   58.1920   55.7680 C.3    14  VAL14       0.0023
     12  CG2       31.5870   55.8630   54.9040 C.3    14  VAL14       0.0023
     13  N         29.7780   57.3290   51.4500 N.am   15  ASP15      -0.1971
     14  CA        29.7900   56.7280   50.1230 C.3    15  ASP15       0.1709
     15  C         31.2520   56.4820   49.7340 C.2    15  ASP15       0.2293
     16  O         31.6920   55.3430   49.6690 O.2    15  ASP15      -0.2864
     17  CB        29.0160   57.5710   49.1040 C.3    15  ASP15       0.1436
     18  CG        28.9320   56.9410   47.7210 C.2    15  ASP15       0.3671
     19  OD1       29.0270   55.7090   47.6230 O.co2  15  ASP15      -0.2456
     20  OD2       28.7710   57.6920   46.7460 O.co2  15  ASP15      -0.2456
     21  N         34.0900   66.3570   51.8830 N.3    20  ARG20      -0.1245
     22  CA        32.7820   66.4420   52.5120 C.3    20  ARG20       0.1563
     23  C         32.5990   65.2870   53.5120 C.2    20  ARG20       0.2260
     24  O         32.1310   65.5030   54.6350 O.2    20  ARG20      -0.2867
     25  CB        31.6520   66.4240   51.4800 C.3    20  ARG20       0.0307
     26  CG        30.2700   66.5500   52.1210 C.3    20  ARG20       0.0489
     27  CD        29.1040   66.6040   51.1560 C.3    20  ARG20       0.2205
     28  NE        28.8320   65.3250   50.5130 N.pl3  20  ARG20      -0.0865
     29  CZ        28.8660   65.1210   49.2040 C.cat  20  ARG20       0.5346
     30  NH1       29.2430   66.0960   48.3940 N.pl3  20  ARG20       0.1354
     31  NH2       28.5460   63.9390   48.7130 N.pl3  20  ARG20       0.1354
     32  N         28.8480   53.3010   58.3370 N.3    42  VAL42      -0.1231
     33  CA        28.2120   52.3220   57.4780 C.3    42  VAL42       0.1692
     34  C         28.4290   52.6900   56.0120 C.2    42  VAL42       0.2592
     35  O         28.4590   53.8690   55.6280 O.2    42  VAL42      -0.2718
     36  CB        26.7140   52.1650   57.7900 C.3    42  VAL42       0.0266
     37  CG1       26.5040   51.7630   59.2450 C.3    42  VAL42       0.0020
     38  CG2       25.9280   53.4170   57.4550 C.3    42  VAL42       0.0020
     39  N         28.5660   51.6320   55.2060 N.am   43  HIS43      -0.1962
     40  CA        28.4820   51.7130   53.7600 C.3    43  HIS43       0.1787
     41  C         27.6720   50.5220   53.2620 C.2    43  HIS43       0.2621
     42  O         27.9170   49.4310   53.7280 O.2    43  HIS43      -0.2715
     43  CB        29.8740   51.7490   53.1250 C.3    43  HIS43       0.0785
     44  CG        29.8080   51.9230   51.6460 C.ar   43  HIS43       0.0821
     45  ND1       29.7900   53.1620   51.0480 N.ar   43  HIS43      -0.2267
     46  CD2       29.7150   51.0240   50.6430 C.ar   43  HIS43       0.1154
     47  CE1       29.7100   53.0080   49.7410 C.ar   43  HIS43       0.1986
     48  NE2       29.6690   51.7120   49.4660 N.ar   43  HIS43      -0.2212
     49  N         26.7510   50.7680   52.3210 N.am   44  SER44      -0.1936
     50  CA        25.7800   49.7750   51.8540 C.3    44  SER44       0.2055
     51  C         26.0940   49.3460   50.4150 C.2    44  SER44       0.2642
     52  O         26.2790   50.1930   49.5560 O.2    44  SER44      -0.2714
     53  CB        24.3810   50.3300   51.9640 C.3    44  SER44       0.2130
     54  OG        23.4410   49.4710   51.3590 O.3    44  SER44      -0.2179
     55  N         26.1400   48.0290   50.1810 N.am   45  LEU45      -0.1977
     56  CA        26.1710   47.4170   48.8330 C.3    45  LEU45       0.1596
     57  C         25.0650   46.3660   48.7350 C.2    45  LEU45       0.2287
     58  O         24.7640   45.7170   49.7240 O.2    45  LEU45      -0.2864
     59  CB        27.5280   46.7510   48.5860 C.3    45  LEU45       0.0297
     60  CG        28.7510   47.6480   48.7010 C.3    45  LEU45       0.0022
     61  CD1       30.0120   46.8110   48.7460 C.3    45  LEU45       0.0001
     62  CD2       28.7990   48.6410   47.5580 C.3    45  LEU45       0.0001
     63  N         20.6980   51.4130   49.3710 N.3    88  PRO88      -0.2116
     64  CA        21.3810   52.1350   50.4430 C.3    88  PRO88       0.1372
     65  C         20.4890   52.9110   51.4240 C.2    88  PRO88       0.2244
     66  O         20.6840   52.7780   52.6270 O.2    88  PRO88      -0.2868
     67  CB        22.3260   53.0730   49.6760 C.3    88  PRO88       0.0268
     68  CG        22.6210   52.3230   48.3940 C.3    88  PRO88       0.0207
     69  CD        21.3140   51.6470   48.0500 C.3    88  PRO88       0.0892
     70  N         20.4910   51.9610   55.3910 N.3    92  ILE92      -0.1245
     71  CA        20.9870   52.8910   56.4080 C.3    92  ILE92       0.1561
     72  C         19.8930   53.1080   57.4690 C.2    92  ILE92       0.2260
     73  O         20.1660   53.0660   58.6580 O.2    92  ILE92      -0.2867
     74  CB        21.4330   54.2100   55.7430 C.3    92  ILE92       0.0252
     75  CG1       22.6870   54.0010   54.8830 C.3    92  ILE92       0.0019
     76  CG2       21.6140   55.3230   56.7650 C.3    92  ILE92       0.0019
     77  CD1       22.8740   55.0360   53.7970 C.3    92  ILE92       0.0001
     78  N         24.8510   62.3270   57.6370 N.3   106  ILE106     -0.1231
     79  CA        25.0210   62.1100   56.2170 C.3   106  ILE106      0.1692
     80  C         25.5440   63.3950   55.5640 C.2   106  ILE106      0.2592
     81  O         25.2960   64.5080   56.0430 O.2   106  ILE106     -0.2718
     82  CB        23.7180   61.6400   55.5430 C.3   106  ILE106      0.0266
     83  CG1       22.5790   62.6560   55.6690 C.3   106  ILE106      0.0019
     84  CG2       23.2900   60.2650   56.0140 C.3   106  ILE106      0.0020
     85  CD1       21.5370   62.5340   54.5840 C.3   106  ILE106      0.0001
     86  N         26.2410   63.2190   54.4400 N.am  107  GLY107     -0.1957
     87  CA        26.6800   64.3310   53.6190 C.3   107  GLY107      0.1869
     88  C         25.6540   64.6520   52.5370 C.2   107  GLY107      0.2309
     89  O         25.0600   63.7430   51.9780 O.2   107  GLY107     -0.2863
     90  N         25.1050   67.3640   49.0080 N.3   109  ARG109     -0.1245
     91  CA        25.4810   68.4840   48.1400 C.3   109  ARG109      0.1563
     92  C         24.3830   69.5410   48.2730 C.2   109  ARG109      0.2260
     93  O         23.2510   69.2110   48.5540 O.2   109  ARG109     -0.2867
     94  CB        25.7160   68.0340   46.6890 C.3   109  ARG109      0.0307
     95  CG        24.4920   67.6050   45.8870 C.3   109  ARG109      0.0489
     96  CD        24.1220   66.1370   45.9980 C.3   109  ARG109      0.2205
     97  NE        25.2430   65.2110   45.8730 N.pl3 109  ARG109     -0.0865
     98  CZ        25.2860   64.0010   46.4250 C.cat 109  ARG109      0.5346
     99  NH1       26.3620   63.2440   46.2830 N.pl3 109  ARG109      0.1354
    100  NH2       24.2570   63.5470   47.1200 N.pl3 109  ARG109      0.1354
    101  N         19.1230   59.1910   47.2530 N.3   117  VAL117     -0.1231
    102  CA        19.6230   58.5150   48.4500 C.3   117  VAL117      0.1692
    103  C         19.4540   59.4200   49.6790 C.2   117  VAL117      0.2591
    104  O         18.8470   59.0090   50.6680 O.2   117  VAL117     -0.2718
    105  CB        21.0750   58.0230   48.2740 C.3   117  VAL117      0.0266
    106  CG1       21.6490   57.4430   49.5610 C.3   117  VAL117      0.0020
    107  CG2       21.1630   56.9880   47.1610 C.3   117  VAL117      0.0020
    108  N         19.9420   60.6570   49.5990 N.am  118  ALA118     -0.1980
    109  CA        19.8430   61.6070   50.7230 C.3   118  ALA118      0.1597
    110  C         18.3750   61.8510   51.0910 C.2   118  ALA118      0.2287
    111  O         18.0140   61.8260   52.2730 O.2   118  ALA118     -0.2864
    112  CB        20.5340   62.8970   50.3830 C.3   118  ALA118      0.0319
    113  N         16.9160   58.7930   52.8940 N.3   121  VAL121     -0.1245
    114  CA        17.4560   58.6610   54.2460 C.3   121  VAL121      0.1561
    115  C         16.7680   59.6690   55.1810 C.2   121  VAL121      0.2260
    116  O         16.2940   59.2970   56.2670 O.2   121  VAL121     -0.2867
    117  CB        18.9820   58.8130   54.3080 C.3   121  VAL121      0.0252
    118  CG1       19.4710   58.9430   55.7550 C.3   121  VAL121      0.0019
    119  CG2       19.6770   57.6650   53.5960 C.3   121  VAL121      0.0019
@<TRIPOS>BOND
     1    97    96    1
     2    97    98    2
     3    95    96    1
     4    95    94    1
     5    99    98    1
     6    98   100    1
     7    94    91    1
     8    20    18   ar
     9   107   105    1
    10   101   102    1
    11    62    60    1
    12    19    18   ar
    13    18    17    1
    14    69    68    1
    15    69    63    1
    16    91    92    1
    17    91    90    1
    18    92    93    2
    19   105   102    1
    20   105   106    1
    21    68    67    1
    22    30    29    1
    23   102   103    1
    24    59    60    1
    25    59    56    1
    26    60    61    1
    27    31    29    1
    28    57    56    1
    29    57    58    2
    30    56    55    1
    31    17    14    1
    32    29    28    2
    33    63    64    1
    34    48    47   ar
    35    48    46   ar
    36    52    51    2
    37   108   103   am
    38   108   109    1
    39    16    15    2
    40    67    64    1
    41   103   104    2
    42    15    14    1
    43    47    45   ar
    44    14    13    1
    45    55    51   am
    46   112   109    1
    47    51    50    1
    48    64    65    1
    49    28    27    1
    50    46    44   ar
    51   109   110    1
    52    45    44   ar
    53   110   111    2
    54    27    26    1
    55    54    53    1
    56    65    66    2
    57    13     8   am
    58    25    26    1
    59    25    22    1
    60    44    43    1
    61    50    53    1
    62    50    49    1
    63    21    22    1
    64    89    88    2
    65    49    41   am
    66    22    23    1
    67    88    87    1
    68     9     8    2
    69     8     7    1
    70   113   114    1
    71    43    40    1
    72    41    42    2
    73    41    40    1
    74    23    24    2
    75   119   117    1
    76    87    86    1
    77    40    39    1
    78    77    75    1
    79     7    10    1
    80     7     6    1
    81   114   117    1
    82   114   115    1
    83   117   118    1
    84    86    80   am
    85    10    12    1
    86    10    11    1
    87    85    83    1
    88     6     3   am
    89    75    74    1
    90   115   116    2
    91     4     3    2
    92    39    34   am
    93     3     2    1
    94    70    71    1
    95    82    83    1
    96    82    84    1
    97    82    79    1
    98    80    81    2
    99    80    79    1
   100     5     2    1
   101    35    34    2
   102    74    71    1
   103    74    76    1
   104    34    33    1
   105    79    78    1
   106     2     1    1
   107    71    72    1
   108    38    36    1
   109    72    73    2
   110    33    36    1
   111    33    32    1
   112    36    37    1
