@<TRIPOS>MOLECULE
tmp/6hckA00.pdb
 128 126 0 0 0
SMALL
GASTEIGER

@<TRIPOS>ATOM
      1  N        -27.0980  -13.5080    9.6050 N.3    45  ILE45      -0.1245
      2  CA       -26.4000  -13.1300   10.8280 C.3    45  ILE45       0.1561
      3  C        -27.2410  -13.6480   11.9810 C.2    45  ILE45       0.2260
      4  O        -28.4640  -13.4630   11.9960 O.2    45  ILE45      -0.2867
      5  CB       -26.1680  -11.6120   10.9410 C.3    45  ILE45       0.0252
      6  CG1      -25.4080  -11.0940    9.7190 C.3    45  ILE45       0.0019
      7  CG2      -25.3660  -11.2950   12.1860 C.3    45  ILE45       0.0019
      8  CD1      -25.2850   -9.5870    9.6710 C.3    45  ILE45       0.0001
      9  N        -22.8090  -14.4610   21.7560 N.3    61  GLN61      -0.1231
     10  CA       -21.8890  -14.6530   20.6450 C.3    61  GLN61       0.1698
     11  C        -22.6590  -14.4060   19.3560 C.2    61  GLN61       0.2592
     12  O        -23.8330  -14.7610   19.2610 O.2    61  GLN61      -0.2718
     13  CB       -21.2950  -16.0640   20.6730 C.3    61  GLN61       0.0381
     14  CG       -20.3990  -16.4000   19.5060 C.3    61  GLN61       0.0905
     15  CD       -19.0320  -15.7760   19.6630 C.2    61  GLN61       0.2608
     16  OE1      -18.8810  -14.5560   19.6050 O.2    61  GLN61      -0.2717
     17  NE2      -18.0260  -16.6120   19.8880 N.am   61  GLN61      -0.0878
     18  N        -21.9910  -13.8870   18.3380 N.am   62  TYR62      -0.1962
     19  CA       -22.6190  -13.6610   17.0490 C.3    62  TYR62       0.1771
     20  C        -21.9790  -14.5350   15.9800 C.2    62  TYR62       0.2620
     21  O        -20.7870  -14.7820   16.0250 O.2    62  TYR62      -0.2715
     22  CB       -22.4410  -12.2100   16.6340 C.3    62  TYR62       0.0574
     23  CG       -23.2000  -11.2140   17.4620 C.ar   62  TYR62      -0.0198
     24  CD1      -24.5020  -10.8830   17.1560 C.ar   62  TYR62      -0.0009
     25  CD2      -22.6060  -10.5820   18.5370 C.ar   62  TYR62      -0.0009
     26  CE1      -25.1980   -9.9650   17.9030 C.ar   62  TYR62       0.0417
     27  CE2      -23.2950   -9.6610   19.2910 C.ar   62  TYR62       0.0417
     28  CZ       -24.5870   -9.3600   18.9690 C.ar   62  TYR62       0.1957
     29  OH       -25.2720   -8.4440   19.7200 O.3    62  TYR62      -0.2866
     30  N        -22.7690  -14.9960   15.0240 N.am   63  TYR63      -0.1960
     31  CA       -22.2500  -15.8170   13.9470 C.3    63  TYR63       0.1771
     32  C        -22.8460  -15.3680   12.6310 C.2    63  TYR63       0.2619
     33  O        -23.9810  -14.9250   12.5740 O.2    63  TYR63      -0.2715
     34  CB       -22.6060  -17.2920   14.1300 C.3    63  TYR63       0.0574
     35  CG       -22.2540  -17.9310   15.4490 C.ar   63  TYR63      -0.0198
     36  CD1      -21.0050  -18.4760   15.6640 C.ar   63  TYR63      -0.0009
     37  CD2      -23.1910  -18.0430   16.4560 C.ar   63  TYR63      -0.0009
     38  CE1      -20.6890  -19.0850   16.8570 C.ar   63  TYR63       0.0417
     39  CE2      -22.8830  -18.6440   17.6520 C.ar   63  TYR63       0.0417
     40  CZ       -21.6310  -19.1640   17.8450 C.ar   63  TYR63       0.1957
     41  OH       -21.3210  -19.7660   19.0360 O.3    63  TYR63      -0.2866
     42  N        -22.0650  -15.4770   11.5770 N.am   64  LYS64      -0.1977
     43  CA       -22.5330  -15.1050   10.2700 C.3    64  LYS64       0.1596
     44  C        -22.1430  -16.2180    9.3480 C.2    64  LYS64       0.2287
     45  O        -21.1300  -16.8540    9.5410 O.2    64  LYS64      -0.2864
     46  CB       -21.9190  -13.7830    9.8160 C.3    64  LYS64       0.0298
     47  CG       -20.5040  -13.8800    9.2730 C.3    64  LYS64       0.0038
     48  CD       -20.1380  -12.6380    8.4860 C.3    64  LYS64       0.0206
     49  CE       -19.6150  -12.9800    7.1040 C.3    64  LYS64       0.1093
     50  NZ       -18.7600  -14.1980    7.1390 N.3    64  LYS64      -0.1314
     51  N        -10.9250  -17.2970   18.8570 N.3   126  TYR126     -0.1241
     52  CA       -11.6840  -16.0500   18.9280 C.3   126  TYR126      0.1605
     53  C        -12.0110  -15.6850   20.3710 C.2   126  TYR126      0.2264
     54  O        -11.8070  -14.5430   20.8010 O.2   126  TYR126     -0.2867
     55  CB       -12.9690  -16.1660   18.1060 C.3   126  TYR126      0.0534
     56  CG       -13.8660  -14.9510   18.2070 C.ar  126  TYR126     -0.0201
     57  CD1      -13.5940  -13.8030   17.4750 C.ar  126  TYR126     -0.0009
     58  CD2      -14.9700  -14.9420   19.0460 C.ar  126  TYR126     -0.0009
     59  CE1      -14.4080  -12.6910   17.5610 C.ar  126  TYR126      0.0417
     60  CE2      -15.7860  -13.8310   19.1430 C.ar  126  TYR126      0.0417
     61  CZ       -15.5000  -12.7100   18.3980 C.ar  126  TYR126      0.1957
     62  OH       -16.3120  -11.6030   18.4940 O.3   126  TYR126     -0.2866
     63  N        -15.2510   -5.9970   18.2910 N.3   146  GLN146     -0.1245
     64  CA       -16.4660   -6.2620   17.5310 C.3   146  GLN146      0.1566
     65  C        -16.5520   -5.3690   16.3020 C.2   146  GLN146      0.2260
     66  O        -16.7870   -5.8470   15.1900 O.2   146  GLN146     -0.2867
     67  CB       -17.6950   -6.0710   18.4220 C.3   146  GLN146      0.0367
     68  CG       -17.8870   -7.1520   19.4820 C.3   146  GLN146      0.0905
     69  CD       -18.1380   -8.5330   18.8940 C.2   146  GLN146      0.2608
     70  OE1      -17.2290   -9.1670   18.3560 O.2   146  GLN146     -0.2717
     71  NE2      -19.3730   -9.0100   19.0070 N.am  146  GLN146     -0.0878
     72  N        -13.9590   -6.5410   13.5990 N.3   149  ILE149     -0.1231
     73  CA       -14.3220   -7.6780   12.7620 C.3   149  ILE149      0.1692
     74  C        -15.4340   -7.2990   11.7900 C.2   149  ILE149      0.2591
     75  O        -15.4430   -7.7460   10.6370 O.2   149  ILE149     -0.2718
     76  CB       -14.7410   -8.8620   13.6560 C.3   149  ILE149      0.0266
     77  CG1      -13.6260   -9.2230   14.6490 C.3   149  ILE149      0.0019
     78  CG2      -15.1170  -10.0690   12.8080 C.3   149  ILE149      0.0020
     79  CD1      -12.3080   -9.6240   14.0060 C.3   149  ILE149      0.0001
     80  N        -16.3650   -6.4420   12.2180 N.am  150  LEU150     -0.1980
     81  CA       -17.3650   -5.9200   11.2890 C.3   150  LEU150      0.1596
     82  C        -16.6990   -5.1670   10.1490 C.2   150  LEU150      0.2287
     83  O        -17.0480   -5.3540    8.9780 O.2   150  LEU150     -0.2864
     84  CB       -18.3930   -5.0440   12.0060 C.3   150  LEU150      0.0297
     85  CG       -19.5270   -5.7990   12.7160 C.3   150  LEU150      0.0022
     86  CD1      -19.1140   -6.5130   13.9870 C.3   150  LEU150      0.0001
     87  CD2      -20.6610   -4.8410   13.0120 C.3   150  LEU150      0.0001
     88  N        -14.9040   -7.5960    7.7230 N.3   153  VAL153     -0.1231
     89  CA       -15.7890   -8.4910    6.9820 C.3   153  VAL153      0.1692
     90  C        -16.6930   -7.7180    6.0300 C.2   153  VAL153      0.2592
     91  O        -16.9040   -8.1340    4.8860 O.2   153  VAL153     -0.2718
     92  CB       -16.6200   -9.3350    7.9650 C.3   153  VAL153      0.0266
     93  CG1      -17.6880  -10.1160    7.2160 C.3   153  VAL153      0.0020
     94  CG2      -15.7250  -10.2750    8.7560 C.3   153  VAL153      0.0020
     95  N        -17.2330   -6.5850    6.4740 N.am  154  TYR154     -0.1976
     96  CA       -18.2200   -5.8440    5.7020 C.3   154  TYR154      0.1639
     97  C        -17.7210   -4.4910    5.2300 C.2   154  TYR154      0.2290
     98  O        -18.4800   -3.7570    4.5890 O.2   154  TYR154     -0.2864
     99  CB       -19.4920   -5.6390    6.5320 C.3   154  TYR154      0.0560
    100  CG       -20.1760   -6.9160    6.9530 C.ar  154  TYR154     -0.0198
    101  CD1      -20.9130   -7.6600    6.0430 C.ar  154  TYR154     -0.0009
    102  CD2      -20.0970   -7.3730    8.2630 C.ar  154  TYR154     -0.0009
    103  CE1      -21.5470   -8.8230    6.4200 C.ar  154  TYR154      0.0417
    104  CE2      -20.7300   -8.5380    8.6500 C.ar  154  TYR154      0.0417
    105  CZ       -21.4540   -9.2580    7.7240 C.ar  154  TYR154      0.1957
    106  OH       -22.0880  -10.4180    8.0990 O.3   154  TYR154     -0.2866
    107  N        -26.2200   -4.8410   16.6970 N.3   174  LEU174     -0.1245
    108  CA       -24.9110   -5.4560   16.8730 C.3   174  LEU174      0.1561
    109  C        -24.0240   -4.5750   17.7490 C.2   174  LEU174      0.2260
    110  O        -22.8230   -4.8170   17.8800 O.2   174  LEU174     -0.2867
    111  CB       -24.2390   -5.6910   15.5180 C.3   174  LEU174      0.0270
    112  CG       -24.8780   -6.7230   14.5880 C.3   174  LEU174      0.0019
    113  CD1      -24.1340   -6.7760   13.2630 C.3   174  LEU174      0.0001
    114  CD2      -24.8860   -8.0920   15.2480 C.3   174  LEU174      0.0001
    115  N         -6.0050  -12.3750   15.6980 N.3   219  TRP219     -0.1241
    116  CA        -6.8560  -13.5250   15.4030 C.3   219  TRP219      0.1605
    117  C         -7.3750  -13.4680   13.9720 C.2   219  TRP219      0.2264
    118  O         -7.3240  -14.4640   13.2400 O.2   219  TRP219     -0.2867
    119  CB        -8.0370  -13.5730   16.3730 C.3   219  TRP219      0.0550
    120  CG        -9.0550  -14.6040   15.9820 C.ar  219  TRP219      0.0003
    121  CD1       -8.9830  -15.9500   16.2110 C.ar  219  TRP219      0.0946
    122  CD2      -10.2610  -14.3910   15.2390 C.ar  219  TRP219      0.0152
    123  NE1      -10.0820  -16.5780   15.6870 N.ar  219  TRP219     -0.2442
    124  CE2      -10.8800  -15.6460   15.0800 C.ar  219  TRP219      0.0810
    125  CE3      -10.8830  -13.2600   14.7030 C.ar  219  TRP219      0.0012
    126  CZ2      -12.0910  -15.8030   14.4100 C.ar  219  TRP219      0.0191
    127  CZ3      -12.0900  -13.4180   14.0380 C.ar  219  TRP219      0.0001
    128  CH2      -12.6780  -14.6800   13.8980 C.ar  219  TRP219      0.0015
@<TRIPOS>BOND
     1    98    97    2
     2    91    90    2
     3    97    96    1
     4    96    95    1
     5    96    99    1
     6    90    95   am
     7    90    89    1
     8   101   103   ar
     9   101   100   ar
    10   103   105   ar
    11    99   100    1
    12   100   102   ar
    13    89    88    1
    14    89    92    1
    15    49    50    1
    16    49    48    1
    17    93    92    1
    18   105   106    1
    19   105   104   ar
    20    92    94    1
    21   102   104   ar
    22    48    47    1
    23    83    82    2
    24    47    46    1
    25    44    45    2
    26    44    43    1
    27     1     2    1
    28     8     6    1
    29     6     5    1
    30    46    43    1
    31    82    81    1
    32    43    42    1
    33    75    74    2
    34     2     5    1
    35     2     3    1
    36     5     7    1
    37    81    84    1
    38    81    80    1
    39    42    32   am
    40    74    80   am
    41    74    73    1
    42     3     4    2
    43    84    85    1
    44    33    32    2
    45    32    31    1
    46    85    87    1
    47    85    86    1
    48    73    72    1
    49    73    76    1
    50    78    76    1
    51   118   117    2
    52   113   112    1
    53    76    77    1
    54   128   127   ar
    55   128   126   ar
    56    31    34    1
    57    31    30    1
    58   117   116    1
    59    79    77    1
    60   127   125   ar
    61    34    35    1
    62   126   124   ar
    63   112   114    1
    64   112   111    1
    65   125   122   ar
    66    30    20   am
    67   124   122   ar
    68   124   123   ar
    69    66    65    2
    70   122   120   ar
    71   116   115    1
    72   116   119    1
    73    35    36   ar
    74    35    37   ar
    75   111   108    1
    76    36    38   ar
    77   123   121   ar
    78    20    21    2
    79    20    19    1
    80   120   121   ar
    81   120   119    1
    82    65    64    1
    83    37    39   ar
    84    22    19    1
    85    22    23    1
    86   107   108    1
    87    38    40   ar
    88   108   109    1
    89    19    18    1
    90    24    23   ar
    91    24    26   ar
    92    23    25   ar
    93    57    59   ar
    94    57    56   ar
    95    64    63    1
    96    64    67    1
    97    59    61   ar
    98    39    40   ar
    99   109   110    2
   100    40    41    1
   101    26    28   ar
   102    55    56    1
   103    55    52    1
   104    56    58   ar
   105    18    11   am
   106    70    69    2
   107    61    62    1
   108    61    60   ar
   109    67    68    1
   110    25    27   ar
   111    51    52    1
   112    69    71   am
   113    69    68    1
   114    52    53    1
   115    28    27   ar
   116    28    29    1
   117    58    60   ar
   118    12    11    2
   119    11    10    1
   120    14    15    1
   121    14    13    1
   122    16    15    2
   123    15    17   am
   124    53    54    2
   125    10    13    1
   126    10     9    1
