@<TRIPOS>MOLECULE
tmp/6hckA01.pdb
 110 110 0 0 0
SMALL
GASTEIGER

@<TRIPOS>ATOM
      1  N        -22.8090  -14.4610   21.7560 N.3    61  GLN61      -0.1231
      2  CA       -21.8890  -14.6530   20.6450 C.3    61  GLN61       0.1698
      3  C        -22.6590  -14.4060   19.3560 C.2    61  GLN61       0.2592
      4  O        -23.8330  -14.7610   19.2610 O.2    61  GLN61      -0.2718
      5  CB       -21.2950  -16.0640   20.6730 C.3    61  GLN61       0.0381
      6  CG       -20.3990  -16.4000   19.5060 C.3    61  GLN61       0.0905
      7  CD       -19.0320  -15.7760   19.6630 C.2    61  GLN61       0.2608
      8  OE1      -18.8810  -14.5560   19.6050 O.2    61  GLN61      -0.2717
      9  NE2      -18.0260  -16.6120   19.8880 N.am   61  GLN61      -0.0878
     10  N        -21.9910  -13.8870   18.3380 N.am   62  TYR62      -0.1962
     11  CA       -22.6190  -13.6610   17.0490 C.3    62  TYR62       0.1771
     12  C        -21.9790  -14.5350   15.9800 C.2    62  TYR62       0.2620
     13  O        -20.7870  -14.7820   16.0250 O.2    62  TYR62      -0.2715
     14  CB       -22.4410  -12.2100   16.6340 C.3    62  TYR62       0.0574
     15  CG       -23.2000  -11.2140   17.4620 C.ar   62  TYR62      -0.0198
     16  CD1      -24.5020  -10.8830   17.1560 C.ar   62  TYR62      -0.0009
     17  CD2      -22.6060  -10.5820   18.5370 C.ar   62  TYR62      -0.0009
     18  CE1      -25.1980   -9.9650   17.9030 C.ar   62  TYR62       0.0417
     19  CE2      -23.2950   -9.6610   19.2910 C.ar   62  TYR62       0.0417
     20  CZ       -24.5870   -9.3600   18.9690 C.ar   62  TYR62       0.1957
     21  OH       -25.2720   -8.4440   19.7200 O.3    62  TYR62      -0.2866
     22  N        -22.7690  -14.9960   15.0240 N.am   63  TYR63      -0.1960
     23  CA       -22.2500  -15.8170   13.9470 C.3    63  TYR63       0.1771
     24  C        -22.8460  -15.3680   12.6310 C.2    63  TYR63       0.2619
     25  O        -23.9810  -14.9250   12.5740 O.2    63  TYR63      -0.2715
     26  CB       -22.6060  -17.2920   14.1300 C.3    63  TYR63       0.0574
     27  CG       -22.2540  -17.9310   15.4490 C.ar   63  TYR63      -0.0198
     28  CD1      -21.0050  -18.4760   15.6640 C.ar   63  TYR63      -0.0009
     29  CD2      -23.1910  -18.0430   16.4560 C.ar   63  TYR63      -0.0009
     30  CE1      -20.6890  -19.0850   16.8570 C.ar   63  TYR63       0.0417
     31  CE2      -22.8830  -18.6440   17.6520 C.ar   63  TYR63       0.0417
     32  CZ       -21.6310  -19.1640   17.8450 C.ar   63  TYR63       0.1957
     33  OH       -21.3210  -19.7660   19.0360 O.3    63  TYR63      -0.2866
     34  N        -22.0650  -15.4770   11.5770 N.am   64  LYS64      -0.1977
     35  CA       -22.5330  -15.1050   10.2700 C.3    64  LYS64       0.1596
     36  C        -22.1430  -16.2180    9.3480 C.2    64  LYS64       0.2287
     37  O        -21.1300  -16.8540    9.5410 O.2    64  LYS64      -0.2864
     38  CB       -21.9190  -13.7830    9.8160 C.3    64  LYS64       0.0298
     39  CG       -20.5040  -13.8800    9.2730 C.3    64  LYS64       0.0038
     40  CD       -20.1380  -12.6380    8.4860 C.3    64  LYS64       0.0206
     41  CE       -19.6150  -12.9800    7.1040 C.3    64  LYS64       0.1093
     42  NZ       -18.7600  -14.1980    7.1390 N.3    64  LYS64      -0.1314
     43  N        -20.7620  -17.9160    6.1010 N.3    66  ALA66      -0.1231
     44  CA       -20.9080  -19.3410    6.3870 C.3    66  ALA66       0.1694
     45  C        -20.2080  -19.7140    7.6910 C.2    66  ALA66       0.2592
     46  O        -19.0870  -19.2770    7.9400 O.2    66  ALA66      -0.2718
     47  CB       -20.3440  -20.1560    5.2450 C.3    66  ALA66       0.0304
     48  N        -20.8700  -20.5150    8.5260 N.am   67  PHE67      -0.1976
     49  CA       -20.2660  -20.9930    9.7620 C.3    67  PHE67       0.1639
     50  C        -21.0590  -22.1950   10.2520 C.2    67  PHE67       0.2290
     51  O        -22.1650  -22.4680    9.7800 O.2    67  PHE67      -0.2864
     52  CB       -20.2300  -19.8900   10.8240 C.3    67  PHE67       0.0560
     53  CG       -19.1490  -20.0680   11.8470 C.ar   67  PHE67      -0.0200
     54  CD1      -17.8150  -19.9790   11.4840 C.ar   67  PHE67      -0.0042
     55  CD2      -19.4650  -20.3390   13.1690 C.ar   67  PHE67      -0.0042
     56  CE1      -16.8170  -20.1480   12.4180 C.ar   67  PHE67      -0.0003
     57  CE2      -18.4680  -20.5060   14.1110 C.ar   67  PHE67      -0.0003
     58  CZ       -17.1400  -20.4110   13.7320 C.ar   67  PHE67      -0.0000
     59  N        -11.4900  -21.9600   15.3040 N.3   122  LYS122     -0.1231
     60  CA       -11.6650  -20.5150   15.1940 C.3   122  LYS122      0.1693
     61  C        -12.4940  -19.9560   16.3430 C.2   122  LYS122      0.2591
     62  O        -12.2010  -18.8670   16.8480 O.2   122  LYS122     -0.2718
     63  CB       -12.3040  -20.1640   13.8500 C.3   122  LYS122      0.0285
     64  CG       -11.4150  -20.4690   12.6490 C.3   122  LYS122      0.0035
     65  CD       -11.8760  -19.7340   11.3990 C.3   122  LYS122      0.0206
     66  CE       -10.8830  -19.9010   10.2570 C.3   122  LYS122      0.1093
     67  NZ       -11.4680  -19.4920    8.9450 N.3   122  LYS122     -0.1314
     68  N        -13.5340  -20.6780   16.7660 N.am  123  GLN123     -0.1979
     69  CA       -14.2980  -20.2550   17.9350 C.3   123  GLN123      0.1601
     70  C        -13.4220  -20.2040   19.1820 C.2   123  GLN123      0.2287
     71  O        -13.4450  -19.2220   19.9340 O.2   123  GLN123     -0.2864
     72  CB       -15.4820  -21.1990   18.1560 C.3   123  GLN123      0.0394
     73  CG       -16.6620  -20.9720   17.2240 C.3   123  GLN123      0.0908
     74  CD       -17.9150  -21.7160   17.6690 C.2   123  GLN123      0.2608
     75  OE1      -18.4420  -21.4740   18.7580 O.2   123  GLN123     -0.2717
     76  NE2      -18.3890  -22.6370   16.8320 N.am  123  GLN123     -0.0878
     77  N        -10.9250  -17.2970   18.8570 N.3   126  TYR126     -0.1241
     78  CA       -11.6840  -16.0500   18.9280 C.3   126  TYR126      0.1605
     79  C        -12.0110  -15.6850   20.3710 C.2   126  TYR126      0.2264
     80  O        -11.8070  -14.5430   20.8010 O.2   126  TYR126     -0.2867
     81  CB       -12.9690  -16.1660   18.1060 C.3   126  TYR126      0.0534
     82  CG       -13.8660  -14.9510   18.2070 C.ar  126  TYR126     -0.0201
     83  CD1      -13.5940  -13.8030   17.4750 C.ar  126  TYR126     -0.0009
     84  CD2      -14.9700  -14.9420   19.0460 C.ar  126  TYR126     -0.0009
     85  CE1      -14.4080  -12.6910   17.5610 C.ar  126  TYR126      0.0417
     86  CE2      -15.7860  -13.8310   19.1430 C.ar  126  TYR126      0.0417
     87  CZ       -15.5000  -12.7100   18.3980 C.ar  126  TYR126      0.1957
     88  OH       -16.3120  -11.6030   18.4940 O.3   126  TYR126     -0.2866
     89  N        -13.9590   -6.5410   13.5990 N.3   149  ILE149     -0.1245
     90  CA       -14.3220   -7.6780   12.7620 C.3   149  ILE149      0.1561
     91  C        -15.4340   -7.2990   11.7900 C.2   149  ILE149      0.2260
     92  O        -15.4430   -7.7460   10.6370 O.2   149  ILE149     -0.2867
     93  CB       -14.7410   -8.8620   13.6560 C.3   149  ILE149      0.0252
     94  CG1      -13.6260   -9.2230   14.6490 C.3   149  ILE149      0.0019
     95  CG2      -15.1170  -10.0690   12.8080 C.3   149  ILE149      0.0019
     96  CD1      -12.3080   -9.6240   14.0060 C.3   149  ILE149      0.0001
     97  N         -6.0050  -12.3750   15.6980 N.3   219  TRP219     -0.1241
     98  CA        -6.8560  -13.5250   15.4030 C.3   219  TRP219      0.1605
     99  C         -7.3750  -13.4680   13.9720 C.2   219  TRP219      0.2264
    100  O         -7.3240  -14.4640   13.2400 O.2   219  TRP219     -0.2867
    101  CB        -8.0370  -13.5730   16.3730 C.3   219  TRP219      0.0550
    102  CG        -9.0550  -14.6040   15.9820 C.ar  219  TRP219      0.0003
    103  CD1       -8.9830  -15.9500   16.2110 C.ar  219  TRP219      0.0946
    104  CD2      -10.2610  -14.3910   15.2390 C.ar  219  TRP219      0.0152
    105  NE1      -10.0820  -16.5780   15.6870 N.ar  219  TRP219     -0.2442
    106  CE2      -10.8800  -15.6460   15.0800 C.ar  219  TRP219      0.0810
    107  CE3      -10.8830  -13.2600   14.7030 C.ar  219  TRP219      0.0012
    108  CZ2      -12.0910  -15.8030   14.4100 C.ar  219  TRP219      0.0191
    109  CZ3      -12.0900  -13.4180   14.0380 C.ar  219  TRP219      0.0001
    110  CH2      -12.6780  -14.6800   13.8980 C.ar  219  TRP219      0.0015
@<TRIPOS>BOND
     1    47    44    1
     2    43    44    1
     3    44    45    1
     4    41    42    1
     5    41    40    1
     6    45    46    2
     7    45    48   am
     8    40    39    1
     9    48    49    1
    10    67    66    1
    11    39    38    1
    12    36    37    2
    13    36    35    1
    14    49    50    1
    15    49    52    1
    16    51    50    2
    17    38    35    1
    18    66    65    1
    19    35    34    1
    20    92    91    2
    21    52    53    1
    22    65    64    1
    23    54    53   ar
    24    54    56   ar
    25    34    24   am
    26    91    90    1
    27    53    55   ar
    28    56    58   ar
    29    25    24    2
    30    24    23    1
    31    64    63    1
    32    90    89    1
    33    90    93    1
    34    95    93    1
    35    55    57   ar
    36   100    99    2
    37    93    94    1
    38    58    57   ar
    39    63    60    1
    40   110   109   ar
    41   110   108   ar
    42    23    26    1
    43    23    22    1
    44    99    98    1
    45    96    94    1
    46   109   107   ar
    47    26    27    1
    48   108   106   ar
    49   107   104   ar
    50    22    12   am
    51   106   104   ar
    52   106   105   ar
    53    60    59    1
    54    60    61    1
    55   104   102   ar
    56    98    97    1
    57    98   101    1
    58    27    28   ar
    59    27    29   ar
    60    28    30   ar
    61   105   103   ar
    62    12    13    2
    63    12    11    1
    64   102   103   ar
    65   102   101    1
    66    61    68   am
    67    61    62    2
    68    29    31   ar
    69    14    11    1
    70    14    15    1
    71    68    69    1
    72    76    74   am
    73    30    32   ar
    74    11    10    1
    75    16    15   ar
    76    16    18   ar
    77    73    74    1
    78    73    72    1
    79    15    17   ar
    80    83    85   ar
    81    83    82   ar
    82    85    87   ar
    83    31    32   ar
    84    74    75    2
    85    32    33    1
    86    18    20   ar
    87    69    72    1
    88    69    70    1
    89    81    82    1
    90    81    78    1
    91    82    84   ar
    92    10     3   am
    93    87    88    1
    94    87    86   ar
    95    17    19   ar
    96    77    78    1
    97    78    79    1
    98    20    19   ar
    99    20    21    1
   100    84    86   ar
   101    70    71    2
   102     4     3    2
   103     3     2    1
   104     6     7    1
   105     6     5    1
   106     8     7    2
   107     7     9   am
   108    79    80    2
   109     2     5    1
   110     2     1    1
