@<TRIPOS>MOLECULE
tmp/6hcoF00.pdb
 94 89 0 0 0
SMALL
GASTEIGER

@<TRIPOS>ATOM
      1  N        146.6550  155.8780  158.2990 N.3   340  PHE340     -0.1227
      2  CA       147.7220  156.2610  157.3910 C.3   340  PHE340      0.1736
      3  C        147.6540  155.4630  156.1090 C.2   340  PHE340      0.2595
      4  O        148.0770  155.9490  155.0610 O.2   340  PHE340     -0.2718
      5  CB       149.0830  156.0740  158.0490 C.3   340  PHE340      0.0547
      6  CG       150.2310  156.4640  157.1760 C.ar  340  PHE340     -0.0202
      7  CD1      150.5390  157.7860  156.9730 C.ar  340  PHE340     -0.0042
      8  CD2      150.9940  155.5040  156.5480 C.ar  340  PHE340     -0.0042
      9  CE1      151.5870  158.1390  156.1650 C.ar  340  PHE340     -0.0003
     10  CE2      152.0430  155.8590  155.7360 C.ar  340  PHE340     -0.0003
     11  CZ       152.3380  157.1750  155.5500 C.ar  340  PHE340     -0.0000
     12  N        147.1390  154.2440  156.1600 N.am  341  PHE341     -0.1976
     13  CA       147.0850  153.4870  154.9260 C.3   341  PHE341      0.1639
     14  C        145.9240  153.9220  154.0510 C.2   341  PHE341      0.2290
     15  O        146.0310  153.8610  152.8240 O.2   341  PHE341     -0.2864
     16  CB       146.9960  151.9940  155.2020 C.3   341  PHE341      0.0560
     17  CG       146.9730  151.1790  153.9600 C.ar  341  PHE341     -0.0200
     18  CD1      148.1180  151.0250  153.2100 C.ar  341  PHE341     -0.0042
     19  CD2      145.8000  150.6050  153.5120 C.ar  341  PHE341     -0.0042
     20  CE1      148.0990  150.2960  152.0490 C.ar  341  PHE341     -0.0003
     21  CE2      145.7750  149.8750  152.3510 C.ar  341  PHE341     -0.0003
     22  CZ       146.9270  149.7190  151.6200 C.ar  341  PHE341     -0.0000
     23  N        146.8380  157.5690  152.3560 N.3   344  THR344     -0.1203
     24  CA       147.7700  157.3810  151.2600 C.3   344  THR344      0.1994
     25  C        147.1490  156.5790  150.1340 C.2   344  THR344      0.2617
     26  O        147.5100  156.7770  148.9730 O.2   344  THR344     -0.2717
     27  CB       149.0300  156.7050  151.7530 C.3   344  THR344      0.1784
     28  OG1      149.1850  155.4580  151.0720 O.3   344  THR344     -0.2211
     29  CG2      148.9300  156.4760  153.2360 C.3   344  THR344      0.0376
     30  N        146.2290  155.7110  150.4330 N.am  345  ASN345     -0.1974
     31  CA       145.6420  155.1880  149.2770 C.3   345  ASN345      0.1688
     32  C        145.0260  156.4070  148.6450 C.2   345  ASN345      0.2292
     33  O        145.4110  156.8280  147.5520 O.2   345  ASN345     -0.2864
     34  CB       144.6140  154.1650  149.5770 C.3   345  ASN345      0.1181
     35  CG       144.3870  153.2750  148.4080 C.2   345  ASN345      0.2629
     36  OD1      143.2620  152.9230  148.0820 O.2   345  ASN345     -0.2716
     37  ND2      145.4680  152.9290  147.7360 N.am  345  ASN345     -0.0877
     38  N        147.6050  158.0960  146.7070 N.3   348  PHE348     -0.1241
     39  CA       148.3190  157.3880  145.6580 C.3   348  PHE348      0.1605
     40  C        147.4040  156.7150  144.6510 C.2   348  PHE348      0.2264
     41  O        147.9040  156.1930  143.6520 O.2   348  PHE348     -0.2867
     42  CB       149.2620  156.3540  146.2520 C.3   348  PHE348      0.0534
     43  CG       150.4740  156.9430  146.8890 C.ar  348  PHE348     -0.0203
     44  CD1      151.5590  157.2980  146.1210 C.ar  348  PHE348     -0.0042
     45  CD2      150.5320  157.1400  148.2510 C.ar  348  PHE348     -0.0042
     46  CE1      152.6780  157.8340  146.7010 C.ar  348  PHE348     -0.0003
     47  CE2      151.6430  157.6790  148.8350 C.ar  348  PHE348     -0.0003
     48  CZ       152.7190  158.0240  148.0600 C.ar  348  PHE348     -0.0000
     49  N        155.7920  160.9890  137.5870 N.3   448  LEU448     -0.1245
     50  CA       156.9750  160.9960  138.4320 C.3   448  LEU448      0.1561
     51  C        156.9540  162.1550  139.4180 C.2   448  LEU448      0.2260
     52  O        157.4160  162.0000  140.5530 O.2   448  LEU448     -0.2867
     53  CB       158.2260  161.0540  137.5630 C.3   448  LEU448      0.0270
     54  CG       159.5670  161.0220  138.2890 C.3   448  LEU448      0.0019
     55  CD1      159.6960  159.7440  139.0990 C.3   448  LEU448      0.0001
     56  CD2      160.7060  161.1450  137.2990 C.3   448  LEU448      0.0001
     57  N        154.6520  161.4800  142.3700 N.3   451  THR451     -0.1203
     58  CA       155.3040  160.4160  143.1150 C.3   451  THR451      0.1994
     59  C        156.4310  160.9710  143.9720 C.2   451  THR451      0.2617
     60  O        156.6460  160.5150  145.0980 O.2   451  THR451     -0.2717
     61  CB       155.8180  159.3670  142.1360 C.3   451  THR451      0.1784
     62  OG1      154.7290  158.9370  141.3110 O.3   451  THR451     -0.2211
     63  CG2      156.3720  158.1630  142.8600 C.3   451  THR451      0.0376
     64  N        157.1380  161.9830  143.4730 N.am  452  ILE452     -0.1979
     65  CA       158.0650  162.7050  144.3340 C.3   452  ILE452      0.1595
     66  C        157.3030  163.5130  145.3730 C.2   452  ILE452      0.2287
     67  O        157.6510  163.5050  146.5580 O.2   452  ILE452     -0.2864
     68  CB       159.0000  163.5920  143.4970 C.3   452  ILE452      0.0276
     69  CG1      159.8720  162.7280  142.5940 C.3   452  ILE452      0.0022
     70  CG2      159.8870  164.4290  144.3890 C.3   452  ILE452      0.0022
     71  CD1      160.7880  161.7950  143.3590 C.3   452  ILE452      0.0001
     72  N        155.5050  161.5400  148.3060 N.3   455  VAL455     -0.1245
     73  CA       156.4900  161.0150  149.2430 C.3   455  VAL455      0.1561
     74  C        156.9870  162.1160  150.1620 C.2   455  VAL455      0.2260
     75  O        157.0230  161.9510  151.3860 O.2   455  VAL455     -0.2867
     76  CB       157.6390  160.3400  148.4830 C.3   455  VAL455      0.0252
     77  CG1      158.7860  160.0670  149.4040 C.3   455  VAL455      0.0019
     78  CG2      157.1560  159.0430  147.9310 C.3   455  VAL455      0.0019
     79  N        154.2120  162.3900  152.3940 N.3   458  MET458     -0.1245
     80  CA       154.0760  161.2630  153.3060 C.3   458  MET458      0.1570
     81  C        154.9060  161.4420  154.5580 C.2   458  MET458      0.2261
     82  O        154.5150  160.9750  155.6320 O.2   458  MET458     -0.2867
     83  CB       154.5090  159.9770  152.6370 C.3   458  MET458      0.0387
     84  CG       154.3650  158.7360  153.4110 C.3   458  MET458      0.0595
     85  SD       154.8670  157.5010  152.2170 S.3   458  MET458     -0.1393
     86  CE       153.3790  157.3990  151.2180 C.3   458  MET458      0.0692
     87  N        155.5640  159.0160  159.9720 N.3   464  LEU464     -0.1245
     88  CA       156.9660  158.6940  159.7670 C.3   464  LEU464      0.1561
     89  C        157.9200  159.6280  160.5010 C.2   464  LEU464      0.2260
     90  O        159.0840  159.2710  160.6850 O.2   464  LEU464     -0.2867
     91  CB       157.2800  158.7010  158.2780 C.3   464  LEU464      0.0270
     92  CG       156.6070  157.5820  157.5020 C.3   464  LEU464      0.0019
     93  CD1      156.8960  157.7360  156.0430 C.3   464  LEU464      0.0001
     94  CD2      157.1230  156.2680  157.9900 C.3   464  LEU464      0.0001
@<TRIPOS>BOND
     1    56    54    1
     2    53    54    1
     3    53    50    1
     4    49    50    1
     5    54    55    1
     6    50    51    1
     7    51    52    2
     8    62    61    1
     9    61    63    1
    10    61    58    1
    11    57    58    1
    12    69    71    1
    13    69    68    1
    14    58    59    1
    15    64    59   am
    16    64    65    1
    17    68    65    1
    18    68    70    1
    19    41    40    2
    20    59    60    2
    21    65    66    1
    22    40    39    1
    23    66    67    2
    24    39    42    1
    25    39    38    1
    26    44    46   ar
    27    44    43   ar
    28    42    43    1
    29    46    48   ar
    30    43    45   ar
    31    33    32    2
    32    37    35   am
    33    78    76    1
    34    48    47   ar
    35    36    35    2
    36    45    47   ar
    37    72    73    1
    38    35    34    1
    39    76    73    1
    40    76    77    1
    41    32    31    1
    42    26    25    2
    43    73    74    1
    44    31    34    1
    45    31    30    1
    46    25    30   am
    47    25    24    1
    48    74    75    2
    49    28    27    1
    50    86    85    1
    51    24    27    1
    52    24    23    1
    53    22    20   ar
    54    22    21   ar
    55    27    29    1
    56    20    18   ar
    57    85    84    1
    58    21    19   ar
    59    79    80    1
    60    83    80    1
    61    83    84    1
    62    15    14    2
    63    18    17   ar
    64    80    81    1
    65    19    17   ar
    66    17    16    1
    67    14    13    1
    68    81    82    2
    69    13    16    1
    70    13    12    1
    71     4     3    2
    72    11    10   ar
    73    11     9   ar
    74    10     8   ar
    75    93    92    1
    76     3    12   am
    77     3     2    1
    78     9     7   ar
    79     8     6   ar
    80     7     6   ar
    81     6     5    1
    82     2     5    1
    83     2     1    1
    84    92    94    1
    85    92    91    1
    86    91    88    1
    87    88    87    1
    88    88    89    1
    89    89    90    2
