@<TRIPOS>MOLECULE
tmp/6hcpB08.pdb
 77 75 0 0 0
SMALL
GASTEIGER

@<TRIPOS>ATOM
      1  N        203.9230   66.2570  128.7570 N.3   546  PHE546     -0.1227
      2  CA       202.7000   66.5230  129.4510 C.3   546  PHE546      0.1736
      3  C        202.2320   67.9170  129.0410 C.2   546  PHE546      0.2596
      4  O        203.0510   68.8600  128.9440 O.2   546  PHE546     -0.2718
      5  CB       202.9260   66.4800  130.9690 C.3   546  PHE546      0.0547
      6  CG       203.5540   65.1980  131.4630 C.ar  546  PHE546     -0.0202
      7  CD1      204.9250   64.9990  131.3850 C.ar  546  PHE546     -0.0042
      8  CD2      202.7700   64.1450  131.9240 C.ar  546  PHE546     -0.0042
      9  CE1      205.4940   63.7850  131.7540 C.ar  546  PHE546     -0.0003
     10  CE2      203.3530   62.9730  132.3870 C.ar  546  PHE546     -0.0003
     11  CZ       204.7050   62.7670  132.2370 C.ar  546  PHE546     -0.0000
     12  N        200.9170   68.0730  128.8590 N.am  547  THR547     -0.1939
     13  CA       200.3370   69.3870  128.6470 C.3   547  THR547      0.2028
     14  C        199.0800   69.5430  129.5000 C.2   547  THR547      0.2642
     15  O        198.3450   68.5710  129.7460 O.2   547  THR547     -0.2714
     16  CB       199.9550   69.6330  127.1790 C.3   547  THR547      0.1808
     17  OG1      199.1860   68.5010  126.7720 O.3   547  THR547     -0.2208
     18  CG2      201.1430   69.8530  126.2700 C.3   547  THR547      0.0379
     19  N        198.8580   70.7870  129.9290 N.am  548  TYR548     -0.1973
     20  CA       197.5870   71.2530  130.3980 C.3   548  TYR548      0.1639
     21  C        197.1260   72.3520  129.4390 C.2   548  TYR548      0.2290
     22  O        197.8750   73.2810  129.1360 O.2   548  TYR548     -0.2864
     23  CB       197.6630   71.7930  131.8340 C.3   548  TYR548      0.0560
     24  CG       196.3940   72.4620  132.3010 C.ar  548  TYR548     -0.0198
     25  CD1      195.2430   71.7220  132.5430 C.ar  548  TYR548     -0.0009
     26  CD2      196.3050   73.8420  132.4030 C.ar  548  TYR548     -0.0009
     27  CE1      194.0500   72.3310  132.9000 C.ar  548  TYR548      0.0417
     28  CE2      195.1180   74.4680  132.7530 C.ar  548  TYR548      0.0417
     29  CZ       193.9850   73.7110  133.0010 C.ar  548  TYR548      0.1957
     30  OH       192.8070   74.3200  133.3310 O.3   548  TYR548     -0.2866
     31  N        193.9670   67.7020  129.3520 N.3   572  ASN572     -0.1225
     32  CA       195.1880   67.0860  129.8290 C.3   572  ASN572      0.1785
     33  C        195.6440   66.0160  128.8340 C.2   572  ASN572      0.2597
     34  O        194.8550   65.1670  128.4220 O.2   572  ASN572     -0.2718
     35  CB       194.9970   66.4280  131.1990 C.3   572  ASN572      0.1169
     36  CG       194.4660   67.3840  132.2510 C.2   572  ASN572      0.2627
     37  OD1      194.7750   68.5640  132.2320 O.2   572  ASN572     -0.2716
     38  ND2      193.8200   66.8460  133.2660 N.am  572  ASN572     -0.0877
     39  N        196.9490   65.9840  128.5620 N.am  573  GLN573     -0.1965
     40  CA       197.5680   64.9160  127.7970 C.3   573  GLN573      0.1733
     41  C        198.9000   64.5400  128.4320 C.2   573  GLN573      0.2616
     42  O        199.6520   65.4070  128.8800 O.2   573  GLN573     -0.2715
     43  CB       197.8760   65.3240  126.3570 C.3   573  GLN573      0.0408
     44  CG       196.6740   65.6970  125.5200 C.3   573  GLN573      0.0908
     45  CD       197.0420   65.6690  124.0510 C.2   573  GLN573      0.2608
     46  OE1      197.8920   64.8970  123.6250 O.2   573  GLN573     -0.2717
     47  NE2      196.5660   66.6520  123.3170 N.am  573  GLN573     -0.0878
     48  N        199.1800   63.2380  128.4340 N.am  574  ALA574     -0.1977
     49  CA       200.4590   62.7060  128.8170 C.3   574  ALA574      0.1597
     50  C        200.8300   61.6400  127.8010 C.2   574  ALA574      0.2287
     51  O        200.0290   60.7350  127.5190 O.2   574  ALA574     -0.2864
     52  CB       200.4100   62.1350  130.2160 C.3   574  ALA574      0.0319
     53  N        197.7140   59.0890  127.0790 N.3   597  ALA597     -0.1231
     54  CA       196.6460   59.2640  128.0510 C.3   597  ALA597      0.1694
     55  C        196.0910   60.6810  127.9470 C.2   597  ALA597      0.2592
     56  O        196.8170   61.6650  128.1120 O.2   597  ALA597     -0.2718
     57  CB       197.1580   58.9900  129.4460 C.3   597  ALA597      0.0304
     58  N        194.7740   60.7770  127.7320 N.am  598  VAL598     -0.1966
     59  CA       194.1000   62.0480  127.6930 C.3   598  VAL598      0.1727
     60  C        192.8630   62.0300  128.5920 C.2   598  VAL598      0.2616
     61  O        192.2940   60.9750  128.8570 O.2   598  VAL598     -0.2715
     62  CB       193.7330   62.4440  126.2480 C.3   598  VAL598      0.0290
     63  CG1      194.9390   62.3440  125.3270 C.3   598  VAL598      0.0023
     64  CG2      192.5700   61.6380  125.7040 C.3   598  VAL598      0.0023
     65  N        192.4160   63.2360  128.9460 N.am  599  SER599     -0.1950
     66  CA       191.2270   63.4900  129.7370 C.3   599  SER599      0.1924
     67  C        190.0110   63.7300  128.8200 C.2   599  SER599      0.2314
     68  O        190.0960   63.5790  127.5990 O.2   599  SER599     -0.2863
     69  CB       191.4860   64.6460  130.6720 C.3   599  SER599      0.2116
     70  OG       191.7380   65.8710  129.9670 O.3   599  SER599     -0.2180
     71  N        193.1870   55.9460  127.6230 N.3   615  THR615     -0.1218
     72  CA       194.5910   55.6440  127.6180 C.3   615  THR615      0.1862
     73  C        194.8280   54.5330  126.6100 C.2   615  THR615      0.2287
     74  O        194.1800   53.4950  126.6520 O.2   615  THR615     -0.2866
     75  CB       195.0720   55.2460  129.0290 C.3   615  THR615      0.1770
     76  OG1      194.8940   56.3780  129.8850 O.3   615  THR615     -0.2211
     77  CG2      196.5110   54.7830  129.0490 C.3   615  THR615      0.0375
@<TRIPOS>BOND
     1    47    45   am
     2    46    45    2
     3    45    44    1
     4    63    62    1
     5    44    43    1
     6    64    62    1
     7    62    59    1
     8    18    16    1
     9    43    40    1
    10    73    74    2
    11    73    72    1
    12    17    16    1
    13    53    54    1
    14    16    13    1
    15    51    50    2
    16    68    67    2
    17    72    71    1
    18    72    75    1
    19    59    58    1
    20    59    60    1
    21    58    55   am
    22    40    41    1
    23    40    39    1
    24    50    49    1
    25    55    54    1
    26    55    56    2
    27    54    57    1
    28    34    33    2
    29    41    48   am
    30    41    42    2
    31    48    49    1
    32    39    33   am
    33    60    61    2
    34    60    65   am
    35    13    12    1
    36    13    14    1
    37     1     2    1
    38    49    52    1
    39    67    66    1
    40    33    32    1
    41    12     3   am
    42     4     3    2
    43    65    66    1
    44    75    77    1
    45    75    76    1
    46     3     2    1
    47    22    21    2
    48    31    32    1
    49    21    20    1
    50     2     5    1
    51    14    15    2
    52    14    19   am
    53    66    69    1
    54    32    35    1
    55    19    20    1
    56    70    69    1
    57    20    23    1
    58     5     6    1
    59    35    36    1
    60     7     6   ar
    61     7     9   ar
    62     6     8   ar
    63     9    11   ar
    64    23    24    1
    65     8    10   ar
    66    37    36    2
    67    11    10   ar
    68    36    38   am
    69    24    26   ar
    70    24    25   ar
    71    26    28   ar
    72    25    27   ar
    73    28    29   ar
    74    27    29   ar
    75    29    30    1
