@<TRIPOS>MOLECULE
tmp/6hcpC03.pdb
 175 170 0 0 0
SMALL
GASTEIGER

@<TRIPOS>ATOM
      1  N        182.9780   17.2250  110.5160 N.3    65  TRP65      -0.1241
      2  CA       182.8290   15.7780  110.5350 C.3    65  TRP65       0.1605
      3  C        183.9510   15.0780  109.7450 C.2    65  TRP65       0.2264
      4  O        184.1150   13.8470  109.8520 O.2    65  TRP65      -0.2867
      5  CB       181.4390   15.3910  110.0350 C.3    65  TRP65       0.0550
      6  CG       181.0590   16.0440  108.7400 C.ar   65  TRP65       0.0003
      7  CD1      180.2710   17.1520  108.5690 C.ar   65  TRP65       0.0946
      8  CD2      181.3050   15.5260  107.4230 C.ar   65  TRP65       0.0152
      9  NE1      180.1330   17.4410  107.2340 N.ar   65  TRP65      -0.2442
     10  CE2      180.7220   16.4380  106.5060 C.ar   65  TRP65       0.0810
     11  CE3      181.9900   14.4110  106.9340 C.ar   65  TRP65       0.0012
     12  CZ2      180.8240   16.2510  105.1300 C.ar   65  TRP65       0.0191
     13  CZ3      182.1320   14.2560  105.5710 C.ar   65  TRP65       0.0001
     14  CH2      181.5840   15.1870  104.6870 C.ar   65  TRP65       0.0015
     15  N        188.1710    9.7420  107.8050 N.3    93  TYR93      -0.1241
     16  CA       187.7580   11.1560  107.6760 C.3    93  TYR93       0.1605
     17  C        188.7190   12.1170  108.3690 C.2    93  TYR93       0.2264
     18  O        188.7730   13.2750  107.9980 O.2    93  TYR93      -0.2867
     19  CB       186.3440   11.3470  108.2190 C.3    93  TYR93       0.0534
     20  CG       185.2240   11.0310  107.2800 C.ar   93  TYR93      -0.0201
     21  CD1      185.3410   11.1690  105.9020 C.ar   93  TYR93      -0.0009
     22  CD2      184.0170   10.5890  107.7850 C.ar   93  TYR93      -0.0009
     23  CE1      184.2540   10.9430  105.0740 C.ar   93  TYR93       0.0417
     24  CE2      182.9310   10.3680  106.9710 C.ar   93  TYR93       0.0417
     25  CZ       183.0560   10.5110  105.6100 C.ar   93  TYR93       0.1957
     26  OH       181.9770   10.2300  104.8290 O.3    93  TYR93      -0.2866
     27  N        178.4490   21.4420  110.6860 N.3   221  ARG221     -0.1245
     28  CA       177.8680   20.8970  109.4550 C.3   221  ARG221      0.1563
     29  C        177.9140   21.9510  108.3410 C.2   221  ARG221      0.2260
     30  O        177.9430   21.6120  107.1600 O.2   221  ARG221     -0.2867
     31  CB       176.4450   20.4260  109.7550 C.3   221  ARG221      0.0307
     32  CG       175.6580   19.9410  108.5510 C.3   221  ARG221      0.0489
     33  CD       176.2580   18.7520  107.8220 C.3   221  ARG221      0.2205
     34  NE       175.2390   18.2400  106.9130 N.pl3 221  ARG221     -0.0865
     35  CZ       175.4650   17.6170  105.7650 C.cat 221  ARG221      0.5346
     36  NH1      176.7000   17.4410  105.3410 N.pl3 221  ARG221      0.1354
     37  NH2      174.4430   17.1840  105.0440 N.pl3 221  ARG221      0.1354
     38  N        181.2450    4.9610  111.4150 N.3   280  TYR280     -0.1241
     39  CA       180.8990    6.3830  111.4410 C.3   280  TYR280      0.1605
     40  C        179.4720    6.5100  111.9590 C.2   280  TYR280      0.2264
     41  O        178.5610    5.8410  111.4340 O.2   280  TYR280     -0.2867
     42  CB       181.0190    6.9800  110.0330 C.3   280  TYR280      0.0534
     43  CG       180.5890    8.4210  109.9240 C.ar  280  TYR280     -0.0201
     44  CD1      181.4870    9.4420  110.1840 C.ar  280  TYR280     -0.0009
     45  CD2      179.3220    8.7620  109.4840 C.ar  280  TYR280     -0.0009
     46  CE1      181.1390   10.7700  110.0050 C.ar  280  TYR280      0.0417
     47  CE2      178.9430   10.0930  109.3450 C.ar  280  TYR280      0.0417
     48  CZ       179.8740   11.0980  109.5570 C.ar  280  TYR280      0.1957
     49  OH       179.5390   12.4280  109.4100 O.3   280  TYR280     -0.2866
     50  N        176.6550    9.8990  112.9420 N.3   282  TYR282     -0.1241
     51  CA       176.3760   11.3350  112.9210 C.3   282  TYR282      0.1605
     52  C        174.9140   11.5520  113.3010 C.2   282  TYR282      0.2264
     53  O        174.0120   11.0170  112.6750 O.2   282  TYR282     -0.2867
     54  CB       176.6730   11.9390  111.5380 C.3   282  TYR282      0.0534
     55  CG       176.3410   13.4070  111.4190 C.ar  282  TYR282     -0.0201
     56  CD1      175.0380   13.8470  111.2240 C.ar  282  TYR282     -0.0009
     57  CD2      177.3400   14.3580  111.5150 C.ar  282  TYR282     -0.0009
     58  CE1      174.7430   15.2040  111.1430 C.ar  282  TYR282      0.0417
     59  CE2      177.0660   15.7150  111.3990 C.ar  282  TYR282      0.0417
     60  CZ       175.7670   16.1400  111.2380 C.ar  282  TYR282      0.1957
     61  OH       175.5210   17.4780  111.1090 O.3   282  TYR282     -0.2866
     62  N        172.2870   18.3140  112.4460 N.3   285  ALA285     -0.1231
     63  CA       171.6760   18.9770  111.3180 C.3   285  ALA285      0.1694
     64  C        172.1000   18.2540  110.0370 C.2   285  ALA285      0.2592
     65  O        173.2720   17.9390  109.8760 O.2   285  ALA285     -0.2718
     66  CB       172.0950   20.4240  111.2750 C.3   285  ALA285      0.0304
     67  N        171.1830   18.1210  109.0860 N.am  286  SER286     -0.1952
     68  CA       171.6160   17.7470  107.7310 C.3   286  SER286      0.1924
     69  C        172.0460   18.9980  106.9390 C.2   286  SER286      0.2314
     70  O        173.1430   19.0200  106.3710 O.2   286  SER286     -0.2863
     71  CB       170.5750   16.9310  107.0160 C.3   286  SER286      0.2116
     72  OG       169.3520   17.5840  106.9820 O.3   286  SER286     -0.2180
     73  N        169.0030   15.2700  110.6340 N.3   302  GLY302     -0.1210
     74  CA       169.2600   14.0000  109.9920 C.3   302  GLY302      0.1956
     75  C        170.1870   13.1250  110.8030 C.2   302  GLY302      0.2612
     76  O        170.8500   13.6000  111.7370 O.2   302  GLY302     -0.2717
     77  N        170.2020   11.8230  110.4620 N.am  303  GLN303     -0.1965
     78  CA       171.1040   10.8750  111.0870 C.3   303  GLN303      0.1733
     79  C        171.7260   10.0090  109.9970 C.2   303  GLN303      0.2616
     80  O        171.0490    9.6340  109.0210 O.2   303  GLN303     -0.2715
     81  CB       170.3690    9.9910  112.1110 C.3   303  GLN303      0.0408
     82  CG       169.7060   10.7960  113.2100 C.3   303  GLN303      0.0908
     83  CD       169.0110    9.9670  114.2600 C.2   303  GLN303      0.2608
     84  OE1      168.7240    8.7910  114.0490 O.2   303  GLN303     -0.2717
     85  NE2      168.6760   10.6130  115.3720 N.am  303  GLN303     -0.0878
     86  N        172.9830    9.6290  110.2180 N.am  304  LEU304     -0.1977
     87  CA       173.6960    8.7810  109.2910 C.3   304  LEU304      0.1596
     88  C        174.6530    7.8930  110.0730 C.2   304  LEU304      0.2287
     89  O        175.2660    8.3040  111.0360 O.2   304  LEU304     -0.2864
     90  CB       174.4540    9.6440  108.2720 C.3   304  LEU304      0.0297
     91  CG       175.3690    8.8570  107.3270 C.3   304  LEU304      0.0022
     92  CD1      174.5700    7.9170  106.4410 C.3   304  LEU304      0.0001
     93  CD2      176.2070    9.7790  106.4700 C.3   304  LEU304      0.0001
     94  N        177.5270    4.5770  108.9320 N.3   306  PHE306     -0.1241
     95  CA       177.9750    3.5300  108.0330 C.3   306  PHE306      0.1605
     96  C        179.1410    2.7840  108.6660 C.2   306  PHE306      0.2264
     97  O        179.8740    3.3160  109.4910 O.2   306  PHE306     -0.2867
     98  CB       178.2700    4.0670  106.6240 C.3   306  PHE306      0.0534
     99  CG       179.4010    5.0570  106.5540 C.ar  306  PHE306     -0.0203
    100  CD1      180.7140    4.6350  106.4460 C.ar  306  PHE306     -0.0042
    101  CD2      179.1430    6.4220  106.5980 C.ar  306  PHE306     -0.0042
    102  CE1      181.7610    5.5530  106.4720 C.ar  306  PHE306     -0.0003
    103  CE2      180.1840    7.3370  106.5660 C.ar  306  PHE306     -0.0003
    104  CZ       181.4850    6.9060  106.5180 C.ar  306  PHE306     -0.0000
    105  N        180.3740   -2.3610  102.6740 N.3   341  GLN341     -0.1245
    106  CA       179.8460   -1.2360  103.4560 C.3   341  GLN341      0.1566
    107  C        178.3570   -1.4630  103.7070 C.2   341  GLN341      0.2260
    108  O        177.6390   -1.9430  102.8230 O.2   341  GLN341     -0.2867
    109  CB       180.1180    0.0660  102.7020 C.3   341  GLN341      0.0367
    110  CG       179.6500    1.3190  103.4410 C.3   341  GLN341      0.0905
    111  CD       180.2740    2.5460  102.8170 C.2   341  GLN341      0.2608
    112  OE1      181.4650    2.5590  102.5000 O.2   341  GLN341     -0.2717
    113  NE2      179.4810    3.5970  102.6760 N.am  341  GLN341     -0.0878
    114  N        175.1650    1.1080  104.9980 N.3   343  ASP343     -0.1239
    115  CA       174.7160    2.4650  105.2750 C.3   343  ASP343      0.1674
    116  C        173.3750    2.4130  106.0070 C.2   343  ASP343      0.2266
    117  O        172.4880    1.6100  105.6610 O.2   343  ASP343     -0.2867
    118  CB       174.5570    3.2630  103.9820 C.3   343  ASP343      0.1410
    119  CG       175.8470    3.8950  103.4860 C.2   343  ASP343      0.3668
    120  OD1      176.7450    3.1430  103.0820 O.co2 343  ASP343     -0.2456
    121  OD2      175.9660    5.1340  103.5710 O.co2 343  ASP343     -0.2456
    122  N        170.4840    5.4180  107.8400 N.3   345  GLY345     -0.1210
    123  CA       170.2230    6.8360  107.9560 C.3   345  GLY345      0.1956
    124  C        168.7590    7.2000  107.9600 C.2   345  GLY345      0.2612
    125  O        167.8950    6.4020  107.5950 O.2   345  GLY345     -0.2717
    126  N        168.5050    8.4290  108.4250 N.am  346  TYR346     -0.1962
    127  CA       167.2510    9.1220  108.2290 C.3   346  TYR346      0.1771
    128  C        167.5330   10.4000  107.4510 C.2   346  TYR346      0.2619
    129  O        168.2290   11.2960  107.9630 O.2   346  TYR346     -0.2715
    130  CB       166.6130    9.5460  109.5530 C.3   346  TYR346      0.0574
    131  CG       165.9820    8.4480  110.3640 C.ar  346  TYR346     -0.0198
    132  CD1      164.9050    7.7220  109.8850 C.ar  346  TYR346     -0.0009
    133  CD2      166.3470    8.2670  111.6850 C.ar  346  TYR346     -0.0009
    134  CE1      164.2590    6.7870  110.6740 C.ar  346  TYR346      0.0417
    135  CE2      165.7060    7.3410  112.4930 C.ar  346  TYR346      0.0417
    136  CZ       164.6340    6.6310  111.9960 C.ar  346  TYR346      0.1957
    137  OH       164.0210    5.6910  112.7630 O.3   346  TYR346     -0.2866
    138  N        166.8560   10.5420  106.3090 N.am  347  ARG347     -0.1977
    139  CA       166.7340   11.8310  105.6630 C.3   347  ARG347      0.1597
    140  C        165.7460   12.6850  106.4650 C.2   347  ARG347      0.2287
    141  O        165.9010   13.8770  106.5280 O.2   347  ARG347     -0.2864
    142  CB       166.2970   11.6350  104.2010 C.3   347  ARG347      0.0334
    143  CG       166.2810   12.9140  103.3740 C.3   347  ARG347      0.0492
    144  CD       165.8630   12.7050  101.9160 C.3   347  ARG347      0.2205
    145  NE       164.5360   12.1140  101.7740 N.pl3 347  ARG347     -0.0865
    146  CZ       163.3850   12.7780  101.8680 C.cat 347  ARG347      0.5346
    147  NH1      163.3840   14.0850  102.0260 N.pl3 347  ARG347      0.1354
    148  NH2      162.2350   12.1290  101.8280 N.pl3 347  ARG347      0.1354
    149  N        169.8270    1.0880  105.2960 N.3   378  LEU378     -0.1231
    150  CA       169.4340    1.5720  103.9840 C.3   378  LEU378      0.1693
    151  C        169.9000    0.5970  102.9000 C.2   378  LEU378      0.2592
    152  O        169.1000    0.1910  102.0660 O.2   378  LEU378     -0.2718
    153  CB       170.0150    2.9720  103.7480 C.3   378  LEU378      0.0284
    154  CG       169.4770    4.0690  104.6650 C.3   378  LEU378      0.0019
    155  CD1      170.1880    5.4000  104.4050 C.3   378  LEU378      0.0001
    156  CD2      167.9670    4.2020  104.5120 C.3   378  LEU378      0.0001
    157  N        171.2120    0.3540  102.8080 N.am  379  PHE379     -0.1976
    158  CA       171.7170   -0.4830  101.7070 C.3   379  PHE379      0.1639
    159  C        173.1340   -0.9720  102.0130 C.2   379  PHE379      0.2290
    160  O        173.8540   -0.3800  102.8070 O.2   379  PHE379     -0.2864
    161  CB       171.6550    0.2510  100.3610 C.3   379  PHE379      0.0560
    162  CG       172.4580    1.5250  100.2720 C.ar  379  PHE379     -0.0200
    163  CD1      173.8100    1.4880   99.9460 C.ar  379  PHE379     -0.0042
    164  CD2      171.8840    2.7520  100.5790 C.ar  379  PHE379     -0.0042
    165  CE1      174.5770    2.6470   99.9610 C.ar  379  PHE379     -0.0003
    166  CE2      172.6540    3.9120  100.5890 C.ar  379  PHE379     -0.0003
    167  CZ       173.9990    3.8530  100.2900 C.ar  379  PHE379     -0.0000
    168  N        179.6090   19.5220  101.1840 N.3   652  LEU652     -0.1245
    169  CA       178.2090   19.1470  101.1840 C.3   652  LEU652      0.1561
    170  C        177.2780   20.3230  101.5080 C.2   652  LEU652      0.2260
    171  O        176.1190   20.2330  101.2030 O.2   652  LEU652     -0.2867
    172  CB       177.9650   17.9900  102.1610 C.3   652  LEU652      0.0270
    173  CG       178.6930   16.6860  101.8160 C.3   652  LEU652      0.0019
    174  CD1      178.1690   15.5460  102.6870 C.3   652  LEU652      0.0001
    175  CD2      178.5600   16.3260  100.3360 C.3   652  LEU652      0.0001
@<TRIPOS>BOND
     1   163   165   ar
     2   163   162   ar
     3   165   167   ar
     4   162   161    1
     5   162   164   ar
     6   167   166   ar
     7   175   173    1
     8   161   158    1
     9   164   166   ar
    10   169   168    1
    11   169   170    1
    12   169   172    1
    13   171   170    2
    14   158   159    1
    15   158   157    1
    16   145   146    2
    17   145   144    1
    18   173   172    1
    19   173   174    1
    20   148   146    1
    21   146   147    1
    22   144   143    1
    23   159   160    2
    24   152   151    2
    25   112   111    2
    26   105   106    1
    27   113   111   am
    28   109   110    1
    29   109   106    1
    30   157   151   am
    31   111   110    1
    32   108   107    2
    33   151   150    1
    34   120   119   ar
    35   143   142    1
    36   106   107    1
    37   119   121   ar
    38   119   118    1
    39   153   150    1
    40   153   154    1
    41   118   115    1
    42   150   149    1
    43   142   139    1
    44   155   154    1
    45   156   154    1
    46    14    12   ar
    47    14    13   ar
    48    26    25    1
    49   114   115    1
    50    37    35    1
    51    23    25   ar
    52    23    21   ar
    53    12    10   ar
    54   115   116    1
    55    36    35    1
    56    13    11   ar
    57    25    24   ar
    58   117   116    2
    59   139   138    1
    60   139   140    1
    61    35    34    2
    62    21    20   ar
    63   138   128   am
    64    70    69    2
    65    92    91    1
    66   100   102   ar
    67   100    99   ar
    68   140   141    2
    69    93    91    1
    70   102   104   ar
    71    10     9   ar
    72    10     8   ar
    73   104   103   ar
    74    99   101   ar
    75    99    98    1
    76   103   101   ar
    77    98    95    1
    78    34    33    1
    79    11     8   ar
    80    69    68    1
    81    24    22   ar
    82    72    71    1
    83    71    68    1
    84    30    29    2
    85     9     7   ar
    86    20    22   ar
    87    20    19    1
    88    91    90    1
    89     8     6   ar
    90   128   129    2
    91   128   127    1
    92   125   124    2
    93    16    15    1
    94    16    19    1
    95    16    17    1
    96    68    67    1
    97    33    32    1
    98   122   123    1
    99   123   124    1
   100   124   126   am
   101    18    17    2
   102    95    96    1
   103    95    94    1
   104   127   126    1
   105   127   130    1
   106    90    87    1
   107    29    28    1
   108    32    31    1
   109     7     6   ar
   110    96    97    2
   111     6     5    1
   112    80    79    2
   113    67    64   am
   114    87    88    1
   115    87    86    1
   116    47    45   ar
   117    47    48   ar
   118    49    48    1
   119    28    31    1
   120    28    27    1
   121    45    43   ar
   122   130   131    1
   123    48    46   ar
   124     3     4    2
   125     3     2    1
   126    65    64    2
   127   132   131   ar
   128   132   134   ar
   129    43    42    1
   130    43    44   ar
   131    74    73    1
   132    74    75    1
   133    79    86   am
   134    79    78    1
   135    46    44   ar
   136    42    39    1
   137     5     2    1
   138    64    63    1
   139    88    89    2
   140   131   133   ar
   141    77    75   am
   142    77    78    1
   143     1     2    1
   144   134   136   ar
   145    75    76    2
   146    78    81    1
   147    61    60    1
   148    58    56   ar
   149    58    60   ar
   150    56    55   ar
   151    60    59   ar
   152    66    63    1
   153    63    62    1
   154    59    57   ar
   155    38    39    1
   156    55    57   ar
   157    55    54    1
   158    41    40    2
   159    39    40    1
   160    54    51    1
   161   133   135   ar
   162   136   135   ar
   163   136   137    1
   164    81    82    1
   165    53    52    2
   166    51    50    1
   167    51    52    1
   168    82    83    1
   169    84    83    2
   170    83    85   am
