@<TRIPOS>MOLECULE
tmp/6hcpB06.pdb
 110 106 0 0 0
SMALL
GASTEIGER

@<TRIPOS>ATOM
      1  N        204.6910   58.1080   93.9370 N.3   192  PHE192     -0.1241
      2  CA       205.9120   58.1720   93.1710 C.3   192  PHE192      0.1605
      3  C        206.4680   59.5880   93.3190 C.2   192  PHE192      0.2264
      4  O        205.7260   60.5440   93.1210 O.2   192  PHE192     -0.2867
      5  CB       205.6370   57.8200   91.7050 C.3   192  PHE192      0.0534
      6  CG       206.8670   57.8870   90.8300 C.ar  192  PHE192     -0.0203
      7  CD1      207.8680   56.9290   90.9370 C.ar  192  PHE192     -0.0042
      8  CD2      207.0900   58.9810   90.0090 C.ar  192  PHE192     -0.0042
      9  CE1      209.0260   57.0240   90.1800 C.ar  192  PHE192     -0.0003
     10  CE2      208.2770   59.1060   89.3010 C.ar  192  PHE192     -0.0003
     11  CZ       209.2420   58.1300   89.3890 C.ar  192  PHE192     -0.0000
     12  N        210.1400   62.2880   93.0720 N.3   194  LEU194     -0.1245
     13  CA       211.4440   62.6000   92.5270 C.3   194  LEU194      0.1561
     14  C        211.9760   63.8500   93.2340 C.2   194  LEU194      0.2260
     15  O        211.2460   64.8340   93.3820 O.2   194  LEU194     -0.2867
     16  CB       211.2850   62.8240   91.0200 C.3   194  LEU194      0.0270
     17  CG       212.5710   63.1030   90.2480 C.3   194  LEU194      0.0019
     18  CD1      213.4630   61.8720   90.2260 C.3   194  LEU194      0.0001
     19  CD2      212.2500   63.5690   88.8370 C.3   194  LEU194      0.0001
     20  N        208.8770   66.5820   92.7370 N.3   209  ALA209     -0.1231
     21  CA       207.6280   66.2620   92.1180 C.3   209  ALA209      0.1694
     22  C        207.1020   64.9320   92.6740 C.2   209  ALA209      0.2592
     23  O        207.8870   64.0300   92.9960 O.2   209  ALA209     -0.2718
     24  CB       207.7840   66.1790   90.6270 C.3   209  ALA209      0.0304
     25  N        205.7750   64.8100   92.7060 N.am  210  TYR210     -0.1962
     26  CA       205.1750   63.5730   93.1850 C.3   210  TYR210      0.1771
     27  C        203.8020   63.3780   92.5450 C.2   210  TYR210      0.2619
     28  O        203.1520   64.3120   92.0940 O.2   210  TYR210     -0.2715
     29  CB       205.1240   63.5830   94.7140 C.3   210  TYR210      0.0574
     30  CG       204.0080   64.4230   95.2670 C.ar  210  TYR210     -0.0198
     31  CD1      202.7190   63.9160   95.3560 C.ar  210  TYR210     -0.0009
     32  CD2      204.1800   65.7790   95.4830 C.ar  210  TYR210     -0.0009
     33  CE1      201.6530   64.7060   95.7390 C.ar  210  TYR210      0.0417
     34  CE2      203.1250   66.5760   95.8880 C.ar  210  TYR210      0.0417
     35  CZ       201.8500   66.0470   95.9920 C.ar  210  TYR210      0.1957
     36  OH       200.8090   66.8390   96.3800 O.3   210  TYR210     -0.2866
     37  N        203.3710   62.1130   92.5650 N.am  211  ASP211     -0.1971
     38  CA       202.0900   61.6840   92.1500 C.3   211  ASP211      0.1709
     39  C        201.5830   60.7030   93.2250 C.2   211  ASP211      0.2293
     40  O        202.2970   59.7610   93.5620 O.2   211  ASP211     -0.2864
     41  CB       202.2100   61.0350   90.7750 C.3   211  ASP211      0.1436
     42  CG       200.9090   60.5910   90.1420 C.2   211  ASP211      0.3671
     43  OD1      199.8520   60.9320   90.6730 O.co2 211  ASP211     -0.2456
     44  OD2      200.9820   59.9500   89.0800 O.co2 211  ASP211     -0.2456
     45  N        198.8440   65.5440   92.7560 N.3   253  LYS253     -0.1231
     46  CA       200.0610   65.6360   91.9800 C.3   253  LYS253      0.1693
     47  C        200.6410   67.0270   92.2090 C.2   253  LYS253      0.2593
     48  O        199.9010   68.0030   92.2090 O.2   253  LYS253     -0.2718
     49  CB       199.8070   65.4680   90.4760 C.3   253  LYS253      0.0285
     50  CG       199.1370   64.1770   90.0470 C.3   253  LYS253      0.0035
     51  CD       198.8300   64.1430   88.5610 C.3   253  LYS253      0.0206
     52  CE       198.1350   62.8660   88.1390 C.3   253  LYS253      0.1093
     53  NZ       197.6350   62.9580   86.7470 N.3   253  LYS253     -0.1314
     54  N        201.9340   67.0800   92.5190 N.am  254  GLY254     -0.1942
     55  CA       202.5700   68.3640   92.7980 C.3   254  GLY254      0.2014
     56  C        203.9910   68.4200   92.2800 C.2   254  GLY254      0.2638
     57  O        204.6480   67.4050   92.1210 O.2   254  GLY254     -0.2714
     58  N        204.4730   69.6470   92.0790 N.am  255  ALA255     -0.1977
     59  CA       205.8450   69.8730   91.7050 C.3   255  ALA255      0.1597
     60  C        206.2500   71.2680   92.1670 C.2   255  ALA255      0.2287
     61  O        205.4230   72.2040   92.1650 O.2   255  ALA255     -0.2864
     62  CB       205.9960   69.7100   90.2160 C.3   255  ALA255      0.0319
     63  N        203.1690   74.0690   91.7780 N.3   275  GLN275     -0.1231
     64  CA       201.7880   73.8540   91.4710 C.3   275  GLN275      0.1698
     65  C        201.3790   72.4520   91.9570 C.2   275  GLN275      0.2593
     66  O        202.1970   71.5210   92.0110 O.2   275  GLN275     -0.2718
     67  CB       201.5160   74.0290   89.9740 C.3   275  GLN275      0.0381
     68  CG       202.5730   73.4750   89.0550 C.3   275  GLN275      0.0905
     69  CD       202.3400   73.9600   87.6390 C.2   275  GLN275      0.2608
     70  OE1      202.2670   75.1570   87.3690 O.2   275  GLN275     -0.2717
     71  NE2      202.0800   73.0160   86.7530 N.am  275  GLN275     -0.0878
     72  N        200.0760   72.2860   92.1390 N.am  276  SER276     -0.1938
     73  CA       199.5430   70.9700   92.4560 C.3   276  SER276      0.2055
     74  C        198.1030   70.8920   91.9630 C.2   276  SER276      0.2643
     75  O        197.4430   71.9140   91.7290 O.2   276  SER276     -0.2714
     76  CB       199.6700   70.6610   93.9340 C.3   276  SER276      0.2130
     77  OG       198.8030   71.4660   94.7210 O.3   276  SER276     -0.2179
     78  N        197.6360   69.6590   91.7800 N.am  277  THR277     -0.1950
     79  CA       196.2640   69.4010   91.5160 C.3   277  THR277      0.1897
     80  C        195.7600   68.3580   92.5180 C.2   277  THR277      0.2313
     81  O        196.4850   67.4300   92.8310 O.2   277  THR277     -0.2863
     82  CB       196.0410   68.8990   90.0820 C.3   277  THR277      0.1794
     83  OG1      196.7790   67.6900   89.9490 O.3   277  THR277     -0.2208
     84  CG2      196.5020   69.8900   89.0270 C.3   277  THR277      0.0378
     85  N        193.0650   73.2010   91.0830 N.3   309  ASP309     -0.1225
     86  CA       194.3520   73.5020   90.4850 C.3   309  ASP309      0.1805
     87  C        194.9530   74.6760   91.2650 C.2   309  ASP309      0.2598
     88  O        194.3390   75.7260   91.3400 O.2   309  ASP309     -0.2718
     89  CB       194.2340   73.8790   89.0000 C.3   309  ASP309      0.1424
     90  CG       193.8620   72.7200   88.0820 C.2   309  ASP309      0.3668
     91  OD1      194.2100   71.5640   88.4050 O.co2 309  ASP309     -0.2456
     92  OD2      193.1190   72.9640   87.1140 O.co2 309  ASP309     -0.2456
     93  N        196.1670   74.4720   91.7710 N.am  310  LYS310     -0.1966
     94  CA       196.8290   75.3610   92.6870 C.3   310  LYS310      0.1728
     95  C        198.1550   75.8160   92.0490 C.2   310  LYS310      0.2616
     96  O        198.8820   75.0110   91.4470 O.2   310  LYS310     -0.2715
     97  CB       197.1070   74.6430   94.0180 C.3   310  LYS310      0.0311
     98  CG       195.8810   74.3180   94.8650 C.3   310  LYS310      0.0038
     99  CD       196.0920   73.2310   95.9030 C.3   310  LYS310      0.0206
    100  CE       195.6510   71.8790   95.3770 C.3   310  LYS310      0.1093
    101  NZ       196.4680   70.7750   95.9290 N.3   310  LYS310     -0.1314
    102  N        198.5270   77.0710   92.3380 N.am  311  LYS311     -0.1977
    103  CA       199.8550   77.5800   92.0400 C.3   311  LYS311      0.1596
    104  C        200.3230   78.4300   93.2150 C.2   311  LYS311      0.2287
    105  O        199.5410   79.0810   93.8610 O.2   311  LYS311     -0.2864
    106  CB       199.8170   78.4360   90.7710 C.3   311  LYS311      0.0298
    107  CG       199.4790   77.6940   89.4870 C.3   311  LYS311      0.0038
    108  CD       199.4370   78.6430   88.2790 C.3   311  LYS311      0.0206
    109  CE       199.4900   77.9290   86.9440 C.3   311  LYS311      0.1093
    110  NZ       198.4400   76.8890   86.8420 N.3   311  LYS311     -0.1314
@<TRIPOS>BOND
     1    53    52    1
     2    71    69   am
     3   110   109    1
     4   109   108    1
     5    92    90   ar
     6    70    69    2
     7    69    68    1
     8    90    91   ar
     9    90    89    1
    10    52    51    1
    11   108   107    1
    12    51    50    1
    13    19    17    1
    14    89    86    1
    15    84    82    1
    16    68    67    1
    17    44    42   ar
    18    10    11   ar
    19    10     8   ar
    20    11     9   ar
    21   107   106    1
    22    83    82    1
    23    67    64    1
    24     8     6   ar
    25    50    49    1
    26    82    79    1
    27    42    43   ar
    28    42    41    1
    29     9     7   ar
    30    62    59    1
    31    18    17    1
    32    17    16    1
    33    49    46    1
    34    86    85    1
    35    86    87    1
    36    24    21    1
    37   106   103    1
    38    41    38    1
    39     6     7   ar
    40     6     5    1
    41    16    13    1
    42    87    88    2
    43    87    93   am
    44    96    95    2
    45    64    63    1
    46    64    65    1
    47    79    78    1
    48    79    80    1
    49    59    58    1
    50    59    60    1
    51     5     2    1
    52    75    74    2
    53    93    94    1
    54    78    74   am
    55    65    66    2
    56    65    72   am
    57    74    73    1
    58    46    47    1
    59    46    45    1
    60   103   102    1
    61   103   104    1
    62    95   102   am
    63    95    94    1
    64    58    56   am
    65    28    27    2
    66    21    22    1
    67    21    20    1
    68    57    56    2
    69    72    73    1
    70    38    37    1
    71    38    39    1
    72    61    60    2
    73    47    48    2
    74    47    54   am
    75    56    55    1
    76    73    76    1
    77    80    81    2
    78    54    55    1
    79    13    12    1
    80    13    14    1
    81    27    37   am
    82    27    26    1
    83    22    25   am
    84    22    23    2
    85    94    97    1
    86    25    26    1
    87     4     3    2
    88     2     3    1
    89     2     1    1
    90    26    29    1
    91   104   105    2
    92    39    40    2
    93    14    15    2
    94    76    77    1
    95    97    98    1
    96    29    30    1
    97    98    99    1
    98    30    31   ar
    99    30    32   ar
   100    31    33   ar
   101   100    99    1
   102   100   101    1
   103    32    34   ar
   104    33    35   ar
   105    34    35   ar
   106    35    36    1
