@<TRIPOS>MOLECULE
tmp/6hcpB07.pdb
 77 73 0 0 0
SMALL
GASTEIGER

@<TRIPOS>ATOM
      1  N        212.1280   91.0780  114.8410 N.3   405  LEU405     -0.1231
      2  CA       211.0120   92.0130  114.6320 C.3   405  LEU405      0.1693
      3  C        210.5950   91.8920  113.1720 C.2   405  LEU405      0.2593
      4  O        211.4510   91.9050  112.2870 O.2   405  LEU405     -0.2718
      5  CB       211.4590   93.4620  114.8870 C.3   405  LEU405      0.0284
      6  CG       212.0200   93.7840  116.2660 C.3   405  LEU405      0.0019
      7  CD1      212.6820   95.1530  116.2690 C.3   405  LEU405      0.0001
      8  CD2      210.9310   93.7210  117.3200 C.3   405  LEU405      0.0001
      9  N        209.2930   91.9840  112.9030 N.am  406  GLY406     -0.1942
     10  CA       208.8410   91.9110  111.5220 C.3   406  GLY406      0.2014
     11  C        207.3660   92.2500  111.3640 C.2   406  GLY406      0.2638
     12  O        206.6240   92.3540  112.3180 O.2   406  GLY406     -0.2714
     13  N        206.9590   92.4300  110.1150 N.am  407  LEU407     -0.1977
     14  CA       205.5660   92.5680  109.7960 C.3   407  LEU407      0.1596
     15  C        205.3320   92.0580  108.3810 C.2   407  LEU407      0.2287
     16  O        206.2660   91.8810  107.5910 O.2   407  LEU407     -0.2864
     17  CB       205.0950   94.0100  109.9750 C.3   407  LEU407      0.0297
     18  CG       205.3370   94.9550  108.8140 C.3   407  LEU407      0.0022
     19  CD1      204.8160   96.3490  109.1660 C.3   407  LEU407      0.0001
     20  CD2      206.8140   95.0100  108.4530 C.3   407  LEU407      0.0001
     21  N        202.0440   91.9320  112.6800 N.3   431  PRO431     -0.2102
     22  CA       203.3910   92.0420  113.2290 C.3   431  PRO431      0.1504
     23  C        203.7990   90.7980  114.0240 C.2   431  PRO431      0.2576
     24  O        202.9540   89.9900  114.4020 O.2   431  PRO431     -0.2718
     25  CB       203.2370   93.2430  114.1760 C.3   431  PRO431      0.0282
     26  CG       201.8430   93.0550  114.7500 C.3   431  PRO431      0.0208
     27  CD       201.0370   92.4990  113.5930 C.3   431  PRO431      0.0893
     28  N        205.0980   90.6780  114.2850 N.am  432  GLY432     -0.1943
     29  CA       205.6150   89.6860  115.1810 C.3   432  GLY432      0.2014
     30  C        206.8940   90.1710  115.8400 C.2   432  GLY432      0.2638
     31  O        207.6720   90.9500  115.2420 O.2   432  GLY432     -0.2714
     32  N        207.1010   89.7230  117.0690 N.am  433  VAL433     -0.1977
     33  CA       208.3330   90.0020  117.7930 C.3   433  VAL433      0.1596
     34  C        208.6850   88.7810  118.6350 C.2   433  VAL433      0.2287
     35  O        207.8190   88.1490  119.2620 O.2   433  VAL433     -0.2864
     36  CB       208.1990   91.2720  118.6560 C.3   433  VAL433      0.0276
     37  CG1      206.9370   91.2670  119.4910 C.3   433  VAL433      0.0022
     38  CG2      209.4210   91.4820  119.5470 C.3   433  VAL433      0.0022
     39  N        205.4870   87.2610  120.5670 N.3   449  TYR449     -0.1241
     40  CA       204.1480   87.6520  120.1700 C.3   449  TYR449      0.1605
     41  C        204.0520   87.4720  118.6610 C.2   449  TYR449      0.2264
     42  O        204.9150   87.9160  117.9150 O.2   449  TYR449     -0.2867
     43  CB       203.8150   89.0990  120.5350 C.3   449  TYR449      0.0534
     44  CG       202.4950   89.5720  119.9740 C.ar  449  TYR449     -0.0201
     45  CD1      201.3140   89.4120  120.6740 C.ar  449  TYR449     -0.0009
     46  CD2      202.4050   90.0350  118.6730 C.ar  449  TYR449     -0.0009
     47  CE1      200.0970   89.8130  120.1430 C.ar  449  TYR449      0.0417
     48  CE2      201.1920   90.3780  118.1080 C.ar  449  TYR449      0.0417
     49  CZ       200.0350   90.3150  118.8580 C.ar  449  TYR449      0.1957
     50  OH       198.8370   90.6470  118.2640 O.3   449  TYR449     -0.2866
     51  N        200.9500   86.3470  115.3430 N.3   451  GLU451     -0.1245
     52  CA       199.5570   86.2230  115.0100 C.3   451  GLU451      0.1567
     53  C        199.3700   85.1180  113.9650 C.2   451  GLU451      0.2260
     54  O        200.3210   84.6740  113.3310 O.2   451  GLU451     -0.2867
     55  CB       199.0340   87.5420  114.4520 C.3   451  GLU451      0.0388
     56  CG       199.2300   88.7030  115.3970 C.3   451  GLU451      0.1160
     57  CD       198.7060   90.0340  114.8960 C.2   451  GLU451      0.3649
     58  OE1      198.4480   90.1570  113.6760 O.co2 451  GLU451     -0.2457
     59  OE2      198.4680   90.9070  115.7530 O.co2 451  GLU451     -0.2457
     60  N        195.8840   85.6980  117.9870 N.3   476  LYS476     -0.1245
     61  CA       197.0380   86.3530  118.6670 C.3   476  LYS476      0.1561
     62  C        197.5960   85.4470  119.7550 C.2   476  LYS476      0.2260
     63  O        196.8530   84.9570  120.6140 O.2   476  LYS476     -0.2867
     64  CB       196.5810   87.6750  119.2970 C.3   476  LYS476      0.0271
     65  CG       196.0580   88.6770  118.2880 C.3   476  LYS476      0.0035
     66  CD       195.5360   89.9560  118.9200 C.3   476  LYS476      0.0206
     67  CE       195.3250   91.0620  117.9120 C.3   476  LYS476      0.1093
     68  NZ       194.5200   92.1670  118.4850 N.3   476  LYS476     -0.1314
     69  N        200.7470   85.0180  122.7210 N.3   478  GLN478     -0.1245
     70  CA       201.9170   85.3310  123.5340 C.3   478  GLN478      0.1566
     71  C        202.4410   84.0320  124.1400 C.2   478  GLN478      0.2260
     72  O        201.6520   83.2030  124.5970 O.2   478  GLN478     -0.2867
     73  CB       201.5350   86.2890  124.6680 C.3   478  GLN478      0.0367
     74  CG       201.2050   87.6910  124.1980 C.3   478  GLN478      0.0905
     75  CD       200.8560   88.5950  125.3600 C.2   478  GLN478      0.2608
     76  OE1      201.6230   88.7500  126.3070 O.2   478  GLN478     -0.2717
     77  NE2      199.6750   89.1790  125.3070 N.am  478  GLN478     -0.0878
@<TRIPOS>BOND
     1    16    15    2
     2    15    14    1
     3    20    18    1
     4    18    19    1
     5    18    17    1
     6    14    17    1
     7    14    13    1
     8    13    11   am
     9    11    10    1
    10    11    12    2
    11    10     9    1
    12     4     3    2
    13    21    22    1
    14    21    27    1
    15     9     3   am
    16     3     2    1
    17    22    23    1
    18    22    25    1
    19    54    53    2
    20    27    26    1
    21    58    57   ar
    22    53    52    1
    23    23    28   am
    24    23    24    2
    25    25    26    1
    26    28    29    1
    27    55    52    1
    28    55    56    1
    29     2     1    1
    30     2     5    1
    31     5     6    1
    32    57    56    1
    33    57    59   ar
    34    52    51    1
    35    29    30    1
    36    31    30    2
    37    30    32   am
    38     6     7    1
    39     6     8    1
    40    32    33    1
    41    33    34    1
    42    33    36    1
    43    67    68    1
    44    67    66    1
    45    42    41    2
    46    60    61    1
    47    48    46   ar
    48    48    49   ar
    49    50    49    1
    50    65    66    1
    51    65    64    1
    52    34    35    2
    53    36    37    1
    54    36    38    1
    55    41    40    1
    56    61    64    1
    57    61    62    1
    58    46    44   ar
    59    49    47   ar
    60    62    63    2
    61    44    43    1
    62    44    45   ar
    63    47    45   ar
    64    40    43    1
    65    40    39    1
    66    69    70    1
    67    70    71    1
    68    70    73    1
    69    71    72    2
    70    74    73    1
    71    74    75    1
    72    77    75   am
    73    75    76    2
