@<TRIPOS>MOLECULE
tmp/6hcpC09.pdb
 92 92 0 0 0
SMALL
GASTEIGER

@<TRIPOS>ATOM
      1  N        211.3150   -6.2410  111.6100 N.3   198  TRP198     -0.1241
      2  CA       212.4260   -7.2060  111.6200 C.3   198  TRP198      0.1605
      3  C        213.3450   -6.9360  110.4310 C.2   198  TRP198      0.2264
      4  O        212.8810   -6.8690  109.2850 O.2   198  TRP198     -0.2867
      5  CB       211.8800   -8.6300  111.5980 C.3   198  TRP198      0.0550
      6  CG       212.9430   -9.6530  111.3150 C.ar  198  TRP198      0.0003
      7  CD1      213.9730  -10.0170  112.1360 C.ar  198  TRP198      0.0946
      8  CD2      213.1580  -10.3520  110.0750 C.ar  198  TRP198      0.0152
      9  NE1      214.8190  -10.8810  111.4890 N.ar  198  TRP198     -0.2442
     10  CE2      214.3020  -11.1640  110.2530 C.ar  198  TRP198      0.0810
     11  CE3      212.4630  -10.4270  108.8630 C.ar  198  TRP198      0.0012
     12  CZ2      214.7780  -12.0080  109.2510 C.ar  198  TRP198      0.0191
     13  CZ3      212.9170  -11.2840  107.8840 C.ar  198  TRP198      0.0001
     14  CH2      214.0530  -12.0750  108.0840 C.ar  198  TRP198      0.0015
     15  N        218.7010  -10.6070  104.1640 N.3   202  ASN202     -0.1225
     16  CA       218.2560  -10.4630  102.7790 C.3   202  ASN202      0.1785
     17  C        216.8130   -9.9510  102.7190 C.2   202  ASN202      0.2597
     18  O        216.2700   -9.8640  101.6560 O.2   202  ASN202     -0.2718
     19  CB       218.3030  -11.8040  102.0390 C.3   202  ASN202      0.1169
     20  CG       219.7290  -12.2160  101.7810 C.2   202  ASN202      0.2627
     21  OD1      220.1240  -13.3090  102.1650 O.2   202  ASN202     -0.2716
     22  ND2      220.5380  -11.2640  101.3400 N.am  202  ASN202     -0.0877
     23  N        216.1520   -9.9130  103.8710 N.am  203  ALA203     -0.1966
     24  CA       214.7240   -9.7320  103.9430 C.3   203  ALA203      0.1728
     25  C        214.3970   -8.7920  105.1120 C.2   203  ALA203      0.2616
     26  O        215.1600   -8.6790  106.0910 O.2   203  ALA203     -0.2715
     27  CB       214.0550  -11.0630  104.1130 C.3   203  ALA203      0.0334
     28  N        213.2140   -8.1760  105.0260 N.am  204  ARG204     -0.1963
     29  CA       212.7270   -7.2480  106.0500 C.3   204  ARG204      0.1729
     30  C        211.2090   -7.3920  106.1350 C.2   204  ARG204      0.2616
     31  O        210.5510   -7.6290  105.1050 O.2   204  ARG204     -0.2715
     32  CB       213.1140   -5.8150  105.6730 C.3   204  ARG204      0.0348
     33  CG       214.6110   -5.5870  105.5900 C.3   204  ARG204      0.0492
     34  CD       214.9640   -4.2500  104.9950 C.3   204  ARG204      0.2205
     35  NE       214.6610   -4.2450  103.5840 N.pl3 204  ARG204     -0.0865
     36  CZ       215.3580   -4.9040  102.6750 C.cat 204  ARG204      0.5346
     37  NH1      214.9760   -4.8510  101.4150 N.pl3 204  ARG204      0.1354
     38  NH2      216.4790   -5.5310  103.0220 N.pl3 204  ARG204      0.1354
     39  N        210.6640   -7.2100  107.3420 N.am  205  VAL205     -0.1977
     40  CA       209.2260   -7.1950  107.5450 C.3   205  VAL205      0.1596
     41  C        208.8710   -5.9990  108.4310 C.2   205  VAL205      0.2287
     42  O        209.5180   -5.7690  109.4470 O.2   205  VAL205     -0.2864
     43  CB       208.6880   -8.4930  108.1720 C.3   205  VAL205      0.0276
     44  CG1      207.2100   -8.3890  108.5100 C.3   205  VAL205      0.0022
     45  CG2      208.9320   -9.6840  107.2530 C.3   205  VAL205      0.0022
     46  N        206.4640   -7.0050  103.4120 N.3   259  GLY259     -0.1210
     47  CA       207.6930   -7.7870  103.3000 C.3   259  GLY259      0.1956
     48  C        208.5050   -7.3770  102.0920 C.2   259  GLY259      0.2612
     49  O        207.9630   -7.0440  101.0770 O.2   259  GLY259     -0.2717
     50  N        209.8320   -7.3690  102.2510 N.am  260  GLU260     -0.1965
     51  CA       210.7610   -7.1400  101.1950 C.3   260  GLU260      0.1733
     52  C        211.7870   -8.2820  101.1770 C.2   260  GLU260      0.2616
     53  O        212.2210   -8.7330  102.2500 O.2   260  GLU260     -0.2715
     54  CB       211.5130   -5.8270  101.3940 C.3   260  GLU260      0.0429
     55  CG       210.6040   -4.6110  101.2910 C.3   260  GLU260      0.1163
     56  CD       211.2740   -3.2960  101.6190 C.2   260  GLU260      0.3649
     57  OE1      212.4990   -3.3000  101.8840 O.co2 260  GLU260     -0.2457
     58  OE2      210.5890   -2.2640  101.5120 O.co2 260  GLU260     -0.2457
     59  N        212.2380   -8.6210   99.9730 N.am  261  TYR261     -0.1974
     60  CA       213.2500   -9.6900   99.7890 C.3   261  TYR261      0.1639
     61  C        214.2410   -9.2530   98.7210 C.2   261  TYR261      0.2290
     62  O        213.8710   -8.9550   97.5760 O.2   261  TYR261     -0.2864
     63  CB       212.5920  -11.0210   99.4190 C.3   261  TYR261      0.0560
     64  CG       213.5280  -12.1940   99.5720 C.ar  261  TYR261     -0.0198
     65  CD1      214.4980  -12.4580   98.6220 C.ar  261  TYR261     -0.0009
     66  CD2      213.5580  -12.9240  100.7530 C.ar  261  TYR261     -0.0009
     67  CE1      215.4560  -13.4500   98.8250 C.ar  261  TYR261      0.0417
     68  CE2      214.5020  -13.9280  100.9650 C.ar  261  TYR261      0.0417
     69  CZ       215.4550  -14.1920   99.9980 C.ar  261  TYR261      0.1957
     70  OH       216.4490  -15.1170  100.2310 O.3   261  TYR261     -0.2866
     71  N        211.9340   -8.1240   95.6150 N.3   269  ALA269     -0.1231
     72  CA       210.5050   -8.3300   95.6170 C.3   269  ALA269      0.1694
     73  C        209.9240   -7.6670   96.8620 C.2   269  ALA269      0.2592
     74  O        210.6010   -7.5510   97.8940 O.2   269  ALA269     -0.2718
     75  CB       210.1520   -9.7890   95.5870 C.3   269  ALA269      0.0304
     76  N        208.6250   -7.3630   96.7940 N.am  270  TYR270     -0.1962
     77  CA       207.9240   -6.8560   97.9490 C.3   270  TYR270      0.1771
     78  C        206.4600   -7.2600   97.8670 C.2   270  TYR270      0.2619
     79  O        205.9400   -7.5300   96.8050 O.2   270  TYR270     -0.2715
     80  CB       208.1000   -5.3420   98.0640 C.3   270  TYR270      0.0574
     81  CG       207.2870   -4.5500   97.0730 C.ar  270  TYR270     -0.0198
     82  CD1      205.9730   -4.2120   97.3500 C.ar  270  TYR270     -0.0009
     83  CD2      207.8040   -4.2050   95.8360 C.ar  270  TYR270     -0.0009
     84  CE1      205.2160   -3.4970   96.4380 C.ar  270  TYR270      0.0417
     85  CE2      207.0540   -3.5140   94.9030 C.ar  270  TYR270      0.0417
     86  CZ       205.7510   -3.1620   95.2100 C.ar  270  TYR270      0.1957
     87  OH       204.9990   -2.4760   94.3060 O.3   270  TYR270     -0.2866
     88  N        205.8540   -7.4040   99.0370 N.am  271  ALA271     -0.1977
     89  CA       204.4460   -7.6620   99.1390 C.3   271  ALA271      0.1597
     90  C        203.9100   -6.9260  100.3640 C.2   271  ALA271      0.2287
     91  O        204.5470   -6.9330  101.4330 O.2   271  ALA271     -0.2864
     92  CB       204.1730   -9.1390   99.2300 C.3   271  ALA271      0.0319
@<TRIPOS>BOND
     1    87    86    1
     2    85    86   ar
     3    85    83   ar
     4    86    84   ar
     5    75    72    1
     6    71    72    1
     7    72    73    1
     8    83    81   ar
     9    84    82   ar
    10    76    73   am
    11    76    77    1
    12    79    78    2
    13    73    74    2
    14    81    82   ar
    15    81    80    1
    16    62    61    2
    17    78    77    1
    18    78    88   am
    19    77    80    1
    20    65    67   ar
    21    65    64   ar
    22    61    60    1
    23    67    69   ar
    24    88    89    1
    25    89    92    1
    26    89    90    1
    27    63    64    1
    28    63    60    1
    29    64    66   ar
    30    60    59    1
    31    59    52   am
    32    69    70    1
    33    69    68   ar
    34    90    91    2
    35    66    68   ar
    36    49    48    2
    37    52    51    1
    38    52    53    2
    39    51    54    1
    40    51    50    1
    41    55    54    1
    42    55    56    1
    43    22    20   am
    44    37    36    1
    45    58    56   ar
    46    56    57   ar
    47    18    17    2
    48    20    19    1
    49    20    21    2
    50    19    16    1
    51    48    50   am
    52    48    47    1
    53    36    38    1
    54    36    35    2
    55    17    16    1
    56    17    23   am
    57    16    15    1
    58    47    46    1
    59    35    34    1
    60    23    24    1
    61    24    27    1
    62    24    25    1
    63    34    33    1
    64    28    25   am
    65    28    29    1
    66    31    30    2
    67    25    26    2
    68    33    32    1
    69    32    29    1
    70    29    30    1
    71    30    39   am
    72    45    43    1
    73    39    40    1
    74    40    43    1
    75    40    41    1
    76    13    14   ar
    77    13    11   ar
    78    14    12   ar
    79    43    44    1
    80    41    42    2
    81    11     8   ar
    82    12    10   ar
    83     4     3    2
    84     8    10   ar
    85     8     6   ar
    86    10     9   ar
    87     3     2    1
    88     6     5    1
    89     6     7   ar
    90     9     7   ar
    91     5     2    1
    92     1     2    1
