@<TRIPOS>MOLECULE
tmp/6hcpA00.pdb
 84 79 0 0 0
SMALL
GASTEIGER

@<TRIPOS>ATOM
      1  N        194.5990   26.9470  176.3840 N.3   390  LEU390     -0.1245
      2  CA       195.8240   26.3360  176.8870 C.3   390  LEU390      0.1561
      3  C        196.2470   25.2500  175.9040 C.2   390  LEU390      0.2260
      4  O        195.4230   24.4420  175.4840 O.2   390  LEU390     -0.2867
      5  CB       195.5570   25.7560  178.2840 C.3   390  LEU390      0.0270
      6  CG       196.7120   25.0110  178.9510 C.3   390  LEU390      0.0019
      7  CD1      197.8670   25.9590  179.2650 C.3   390  LEU390      0.0001
      8  CD2      196.2370   24.3370  180.2230 C.3   390  LEU390      0.0001
      9  N        199.8990   22.5090  175.1030 N.3   392  ASP392     -0.1239
     10  CA       201.2480   22.0270  175.3380 C.3   392  ASP392      0.1674
     11  C        201.6670   21.1980  174.1320 C.2   392  ASP392      0.2266
     12  O        200.8860   20.3680  173.6440 O.2   392  ASP392     -0.2867
     13  CB       201.3130   21.1730  176.6080 C.3   392  ASP392      0.1410
     14  CG       202.7230   20.7650  177.0440 C.2   392  ASP392      0.3668
     15  OD1      203.7010   21.4530  176.6440 O.co2 392  ASP392     -0.2456
     16  OD2      202.8190   19.8340  177.8900 O.co2 392  ASP392     -0.2456
     17  N        198.4970   19.1720  172.3530 N.3   405  LEU405     -0.1231
     18  CA       197.1890   18.9660  172.9850 C.3   405  LEU405      0.1693
     19  C        196.7510   20.3200  173.5280 C.2   405  LEU405      0.2593
     20  O        197.5480   21.0150  174.1740 O.2   405  LEU405     -0.2718
     21  CB       197.3030   18.0240  174.1920 C.3   405  LEU405      0.0284
     22  CG       197.7700   16.6030  173.9490 C.3   405  LEU405      0.0019
     23  CD1      197.9130   15.8900  175.2870 C.3   405  LEU405      0.0001
     24  CD2      196.7960   15.8590  173.0500 C.3   405  LEU405      0.0001
     25  N        195.4460   20.6010  173.4610 N.am  406  GLY406     -0.1942
     26  CA       194.9620   21.7950  174.0900 C.3   406  GLY406      0.2014
     27  C        193.4460   21.8650  174.1430 C.2   406  GLY406      0.2638
     28  O        192.7400   21.0550  173.5380 O.2   406  GLY406     -0.2714
     29  N        192.9610   22.8700  174.8710 N.am  407  LEU407     -0.1977
     30  CA       191.5630   23.1960  174.7890 C.3   407  LEU407      0.1596
     31  C        191.3730   24.7010  174.9080 C.2   407  LEU407      0.2287
     32  O        192.2530   25.4140  175.3770 O.2   407  LEU407     -0.2864
     33  CB       190.8060   22.4140  175.8660 C.3   407  LEU407      0.0297
     34  CG       190.9460   22.9070  177.2940 C.3   407  LEU407      0.0022
     35  CD1      190.1010   24.1450  177.5340 C.3   407  LEU407      0.0001
     36  CD2      190.5280   21.7940  178.2520 C.3   407  LEU407      0.0001
     37  N        188.4070   21.1850  171.9410 N.3   431  PRO431     -0.2102
     38  CA       189.7420   20.6020  172.0570 C.3   431  PRO431      0.1504
     39  C        190.4800   20.6120  170.7110 C.2   431  PRO431      0.2576
     40  O        189.8500   20.7500  169.6630 O.2   431  PRO431     -0.2718
     41  CB       189.4280   19.1650  172.4770 C.3   431  PRO431      0.0282
     42  CG       188.1400   18.8580  171.7260 C.3   431  PRO431      0.0208
     43  CD       187.3830   20.1730  171.6580 C.3   431  PRO431      0.0893
     44  N        191.7880   20.3550  170.7620 N.am  432  GLY432     -0.1943
     45  CA       192.5690   20.0650  169.5740 C.3   432  GLY432      0.2014
     46  C        193.7270   19.1500  169.9250 C.2   432  GLY432      0.2638
     47  O        194.2250   19.1780  171.0740 O.2   432  GLY432     -0.2714
     48  N        194.0810   18.2750  168.9850 N.am  433  VAL433     -0.1977
     49  CA       195.2430   17.4300  169.1460 C.3   433  VAL433      0.1596
     50  C        195.9240   17.2800  167.7840 C.2   433  VAL433      0.2287
     51  O        195.2710   17.2130  166.7470 O.2   433  VAL433     -0.2864
     52  CB       194.8650   16.0690  169.7470 C.3   433  VAL433      0.0276
     53  CG1      193.7970   15.3690  168.9340 C.3   433  VAL433      0.0022
     54  CG2      196.0760   15.1600  169.9010 C.3   433  VAL433      0.0022
     55  N        193.2640   16.6150  164.8100 N.3   449  TYR449     -0.1241
     56  CA       191.8430   16.8170  165.0100 C.3   449  TYR449      0.1605
     57  C        191.6930   18.1960  165.6190 C.2   449  TYR449      0.2264
     58  O        192.3710   18.5190  166.6000 O.2   449  TYR449     -0.2867
     59  CB       191.2340   15.7810  165.9600 C.3   449  TYR449      0.0534
     60  CG       189.8040   16.0890  166.3460 C.ar  449  TYR449     -0.0201
     61  CD1      188.7520   15.6270  165.5740 C.ar  449  TYR449     -0.0009
     62  CD2      189.5140   16.9700  167.3750 C.ar  449  TYR449     -0.0009
     63  CE1      187.4410   15.9530  165.8740 C.ar  449  TYR449      0.0417
     64  CE2      188.2100   17.3680  167.6410 C.ar  449  TYR449      0.0417
     65  CZ       187.1660   16.8310  166.9100 C.ar  449  TYR449      0.1957
     66  OH       185.8740   17.2070  167.1670 O.3   449  TYR449     -0.2866
     67  N        188.7100   21.8310  165.7050 N.3   451  GLU451     -0.1245
     68  CA       187.3580   22.2860  165.4560 C.3   451  GLU451      0.1567
     69  C        187.3870   23.7450  165.0060 C.2   451  GLU451      0.2260
     70  O        188.3630   24.4370  165.1840 O.2   451  GLU451     -0.2867
     71  CB       186.5080   22.1040  166.7160 C.3   451  GLU451      0.0388
     72  CG       186.4870   20.6670  167.2080 C.3   451  GLU451      0.1160
     73  CD       185.6340   20.4120  168.4490 C.2   451  GLU451      0.3649
     74  OE1      185.3100   21.3810  169.1630 O.co2 451  GLU451     -0.2457
     75  OE2      185.2620   19.2250  168.6620 O.co2 451  GLU451     -0.2457
     76  N        184.1620   20.2500  162.6040 N.3   476  LYS476     -0.1245
     77  CA       185.1610   19.2710  163.0730 C.3   476  LYS476      0.1561
     78  C        185.9870   18.7830  161.8920 C.2   476  LYS476      0.2260
     79  O        185.4430   18.3160  160.8950 O.2   476  LYS476     -0.2867
     80  CB       184.4870   18.0680  163.7400 C.3   476  LYS476      0.0271
     81  CG       183.6240   18.4300  164.9440 C.3   476  LYS476      0.0035
     82  CD       182.8970   17.2600  165.5810 C.3   476  LYS476      0.0206
     83  CE       182.2770   17.6800  166.9010 C.3   476  LYS476      0.1093
     84  NZ       181.3580   16.6420  167.4260 N.3   476  LYS476     -0.1314
@<TRIPOS>BOND
     1    79    78    2
     2    78    77    1
     3    76    77    1
     4    77    80    1
     5    80    81    1
     6    55    56    1
     7    81    82    1
     8    69    70    2
     9    69    68    1
    10    56    57    1
    11    56    59    1
    12    68    67    1
    13    68    71    1
    14    61    63   ar
    15    61    60   ar
    16    82    83    1
    17    57    58    2
    18    63    65   ar
    19    59    60    1
    20    60    62   ar
    21    71    72    1
    22    51    50    2
    23    83    84    1
    24    65    66    1
    25    65    64   ar
    26    72    73    1
    27    62    64   ar
    28    50    49    1
    29    73    75   ar
    30    73    74   ar
    31    53    52    1
    32    48    49    1
    33    48    46   am
    34    49    52    1
    35    45    46    1
    36    45    44    1
    37    40    39    2
    38    52    54    1
    39    46    47    2
    40    39    44   am
    41    39    38    1
    42    43    42    1
    43    43    37    1
    44    42    41    1
    45    37    38    1
    46    38    41    1
    47    17    18    1
    48    18    19    1
    49    18    21    1
    50    24    22    1
    51    25    19   am
    52    25    26    1
    53    19    20    2
    54    28    27    2
    55    12    11    2
    56    22    21    1
    57    22    23    1
    58    26    27    1
    59    11    10    1
    60    27    29   am
    61    30    29    1
    62    30    31    1
    63    30    33    1
    64    31    32    2
    65     9    10    1
    66    10    13    1
    67     4     3    2
    68    33    34    1
    69     3     2    1
    70     1     2    1
    71    13    14    1
    72    15    14   ar
    73     2     5    1
    74    14    16   ar
    75    34    35    1
    76    34    36    1
    77     5     6    1
    78     6     7    1
    79     6     8    1
