@<TRIPOS>MOLECULE
tmp/6hcpB00.pdb
 91 89 0 0 0
SMALL
GASTEIGER

@<TRIPOS>ATOM
      1  N        224.5040   92.1500  107.9910 N.3   321  PHE321     -0.1241
      2  CA       225.4450   93.2450  108.1500 C.3   321  PHE321      0.1605
      3  C        225.5260   93.5510  109.6460 C.2   321  PHE321      0.2264
      4  O        224.7280   93.0050  110.4320 O.2   321  PHE321     -0.2867
      5  CB       225.0160   94.4630  107.3280 C.3   321  PHE321      0.0534
      6  CG       223.7300   95.1100  107.7720 C.ar  321  PHE321     -0.0203
      7  CD1      223.7220   96.0750  108.7640 C.ar  321  PHE321     -0.0042
      8  CD2      222.5150   94.7070  107.2390 C.ar  321  PHE321     -0.0042
      9  CE1      222.5300   96.6010  109.2350 C.ar  321  PHE321     -0.0003
     10  CE2      221.3260   95.2490  107.6990 C.ar  321  PHE321     -0.0003
     11  CZ       221.3330   96.1860  108.7000 C.ar  321  PHE321     -0.0000
     12  N        222.8450   92.0720  112.2710 N.3   328  HIS328     -0.1241
     13  CA       221.5450   92.0110  111.6300 C.3   328  HIS328      0.1621
     14  C        221.5160   90.8260  110.6640 C.2   328  HIS328      0.2264
     15  O        222.4240   90.6560  109.8510 O.2   328  HIS328     -0.2867
     16  CB       221.2390   93.3190  110.8920 C.3   328  HIS328      0.0745
     17  CG       221.1740   94.5140  111.7750 C.ar  328  HIS328      0.0817
     18  ND1      219.9830   95.1380  112.0750 N.ar  328  HIS328     -0.2268
     19  CD2      222.1470   95.2250  112.3950 C.ar  328  HIS328      0.1154
     20  CE1      220.2120   96.1650  112.8750 C.ar  328  HIS328      0.1986
     21  NE2      221.5440   96.2540  113.0680 N.ar  328  HIS328     -0.2212
     22  N        218.4520   89.7060  108.0890 N.3   330  TRP330     -0.1227
     23  CA       217.1610   90.2140  107.6610 C.3   330  TRP330      0.1737
     24  C        216.6810   89.4120  106.4520 C.2   330  TRP330      0.2595
     25  O        217.4680   88.7670  105.7550 O.2   330  TRP330     -0.2718
     26  CB       217.2260   91.7120  107.3300 C.3   330  TRP330      0.0564
     27  CG       218.1770   92.0150  106.2090 C.ar  330  TRP330      0.0003
     28  CD1      219.5050   92.3340  106.3330 C.ar  330  TRP330      0.0946
     29  CD2      217.8980   92.0120  104.7980 C.ar  330  TRP330      0.0152
     30  NE1      220.0700   92.5100  105.0940 N.ar  330  TRP330     -0.2442
     31  CE2      219.1080   92.3340  104.1330 C.ar  330  TRP330      0.0810
     32  CE3      216.7660   91.7340  104.0190 C.ar  330  TRP330      0.0012
     33  CZ2      219.2100   92.3530  102.7440 C.ar  330  TRP330      0.0191
     34  CZ3      216.8680   91.7660  102.6450 C.ar  330  TRP330      0.0001
     35  CH2      218.0810   92.0550  102.0130 C.ar  330  TRP330      0.0015
     36  N        215.3700   89.5080  106.2060 N.am  331  VAL331     -0.1980
     37  CA       214.7540   88.8780  105.0740 C.3   331  VAL331      0.1595
     38  C        213.5750   89.7500  104.6210 C.2   331  VAL331      0.2287
     39  O        212.9150   90.4040  105.4200 O.2   331  VAL331     -0.2864
     40  CB       214.3240   87.4300  105.4100 C.3   331  VAL331      0.0276
     41  CG1      213.4650   87.3850  106.6710 C.3   331  VAL331      0.0022
     42  CG2      213.6280   86.7680  104.2290 C.3   331  VAL331      0.0022
     43  N        208.6720   91.4970  105.8640 N.3   390  LEU390     -0.1231
     44  CA       209.9740   92.0300  106.2530 C.3   390  LEU390      0.1693
     45  C        210.2520   91.5500  107.6770 C.2   390  LEU390      0.2592
     46  O        209.4010   91.7100  108.5590 O.2   390  LEU390     -0.2718
     47  CB       209.9210   93.5690  106.2400 C.3   390  LEU390      0.0284
     48  CG       209.6580   94.2310  104.8910 C.3   390  LEU390      0.0019
     49  CD1      209.3570   95.7190  105.0780 C.3   390  LEU390      0.0001
     50  CD2      210.8320   94.0230  103.9550 C.3   390  LEU390      0.0001
     51  N        211.4740   91.0760  107.9220 N.am  391  ALA391     -0.1966
     52  CA       211.8990   90.8480  109.2790 C.3   391  ALA391      0.1728
     53  C        213.4120   91.0660  109.4110 C.2   391  ALA391      0.2616
     54  O        214.1660   90.8400  108.4840 O.2   391  ALA391     -0.2715
     55  CB       211.5120   89.4450  109.7350 C.3   391  ALA391      0.0334
     56  N        213.8180   91.3540  110.6460 N.am  392  ASP392     -0.1971
     57  CA       215.2240   91.4750  111.0120 C.3   392  ASP392      0.1709
     58  C        215.4050   90.7890  112.3600 C.2   392  ASP392      0.2293
     59  O        214.5960   90.9850  113.2620 O.2   392  ASP392     -0.2864
     60  CB       215.6400   92.9500  111.1100 C.3   392  ASP392      0.1436
     61  CG       217.1330   93.2090  111.2960 C.2   392  ASP392      0.3671
     62  OD1      217.9320   92.2980  111.0350 O.co2 392  ASP392     -0.2456
     63  OD2      217.4970   94.3710  111.5990 O.co2 392  ASP392     -0.2456
     64  N        218.1170   90.9830  115.2360 N.3   394  LEU394     -0.1245
     65  CA       219.2320   91.7390  115.8090 C.3   394  LEU394      0.1561
     66  C        219.8640   90.9060  116.9200 C.2   394  LEU394      0.2260
     67  O        219.1700   90.4800  117.8330 O.2   394  LEU394     -0.2867
     68  CB       218.7220   93.0610  116.3860 C.3   394  LEU394      0.0270
     69  CG       218.1500   94.0610  115.3860 C.3   394  LEU394      0.0019
     70  CD1      216.7190   93.6970  115.0310 C.3   394  LEU394      0.0001
     71  CD2      218.2010   95.4740  115.9580 C.3   394  LEU394      0.0001
     72  N        212.1280   91.0780  114.8410 N.3   405  LEU405     -0.1231
     73  CA       211.0120   92.0130  114.6320 C.3   405  LEU405      0.1693
     74  C        210.5950   91.8920  113.1720 C.2   405  LEU405      0.2593
     75  O        211.4510   91.9050  112.2870 O.2   405  LEU405     -0.2718
     76  CB       211.4590   93.4620  114.8870 C.3   405  LEU405      0.0284
     77  CG       212.0200   93.7840  116.2660 C.3   405  LEU405      0.0019
     78  CD1      212.6820   95.1530  116.2690 C.3   405  LEU405      0.0001
     79  CD2      210.9310   93.7210  117.3200 C.3   405  LEU405      0.0001
     80  N        209.2930   91.9840  112.9030 N.am  406  GLY406     -0.1942
     81  CA       208.8410   91.9110  111.5220 C.3   406  GLY406      0.2014
     82  C        207.3660   92.2500  111.3640 C.2   406  GLY406      0.2638
     83  O        206.6240   92.3540  112.3180 O.2   406  GLY406     -0.2714
     84  N        206.9590   92.4300  110.1150 N.am  407  LEU407     -0.1977
     85  CA       205.5660   92.5680  109.7960 C.3   407  LEU407      0.1596
     86  C        205.3320   92.0580  108.3810 C.2   407  LEU407      0.2287
     87  O        206.2660   91.8810  107.5910 O.2   407  LEU407     -0.2864
     88  CB       205.0950   94.0100  109.9750 C.3   407  LEU407      0.0297
     89  CG       205.3370   94.9550  108.8140 C.3   407  LEU407      0.0022
     90  CD1      204.8160   96.3490  109.1660 C.3   407  LEU407      0.0001
     91  CD2      206.8140   95.0100  108.4530 C.3   407  LEU407      0.0001
@<TRIPOS>BOND
     1    35    34   ar
     2    35    33   ar
     3    34    32   ar
     4    33    31   ar
     5    50    48    1
     6    32    29   ar
     7    31    29   ar
     8    31    30   ar
     9    42    40    1
    10    38    37    1
    11    38    39    2
    12    29    27   ar
    13    48    49    1
    14    48    47    1
    15    37    40    1
    16    37    36    1
    17    30    28   ar
    18    40    41    1
    19    25    24    2
    20    43    44    1
    21    36    24   am
    22    27    28   ar
    23    27    26    1
    24    47    44    1
    25    44    45    1
    26    24    23    1
    27     8    10   ar
    28     8     6   ar
    29     5     6    1
    30     5     2    1
    31    26    23    1
    32    87    86    2
    33    23    22    1
    34    45    51   am
    35    45    46    2
    36    10    11   ar
    37     6     7   ar
    38    51    52    1
    39     1     2    1
    40     2     3    1
    41    86    85    1
    42    91    89    1
    43    54    53    2
    44    11     9   ar
    45     7     9   ar
    46    89    90    1
    47    89    88    1
    48    52    53    1
    49    52    55    1
    50    53    56   am
    51     3     4    2
    52    85    88    1
    53    85    84    1
    54    15    14    2
    55    84    82   am
    56    56    57    1
    57    14    13    1
    58    16    13    1
    59    16    17    1
    60    57    60    1
    61    57    58    1
    62    62    61   ar
    63    60    61    1
    64    61    63   ar
    65    82    81    1
    66    82    83    2
    67    81    80    1
    68    13    12    1
    69    17    18   ar
    70    17    19   ar
    71    18    20   ar
    72    75    74    2
    73    58    59    2
    74    19    21   ar
    75    20    21   ar
    76    80    74   am
    77    74    73    1
    78    73    72    1
    79    73    76    1
    80    76    77    1
    81    70    69    1
    82    64    65    1
    83    69    71    1
    84    69    68    1
    85    65    68    1
    86    65    66    1
    87    77    78    1
    88    77    79    1
    89    66    67    2
