@<TRIPOS>MOLECULE
tmp/6hd1A00.pdb
 189 188 0 0 0
SMALL
GASTEIGER

@<TRIPOS>ATOM
      1  N         98.8900  140.9830   83.2360 N.3     8  GLY8       -0.1210
      2  CA        98.3660  141.2540   84.5550 C.3     8  GLY8        0.1956
      3  C         99.2300  142.2680   85.2670 C.2     8  GLY8        0.2613
      4  O        100.4500  142.1110   85.3350 O.2     8  GLY8       -0.2717
      5  N         98.6180  143.3250   85.7870 N.am    9  THR9       -0.1938
      6  CA        99.3540  144.4110   86.4270 C.3     9  THR9        0.2028
      7  C         99.0160  144.5310   87.9000 C.2     9  THR9        0.2643
      8  O         99.1080  145.6110   88.4830 O.2     9  THR9       -0.2714
      9  CB        99.0730  145.7190   85.7070 C.3     9  THR9        0.1808
     10  OG1       97.6590  145.9520   85.6980 O.3     9  THR9       -0.2208
     11  CG2       99.5870  145.6560   84.2840 C.3     9  THR9        0.0379
     12  N         98.6350  143.4280   88.5260 N.am   10  GLY10      -0.1939
     13  CA        98.1590  143.4860   89.8880 C.3    10  GLY10       0.2014
     14  C         99.2500  143.4710   90.9280 C.2    10  GLY10       0.2639
     15  O        100.2010  144.2540   90.8550 O.2    10  GLY10      -0.2714
     16  N         99.1070  142.5840   91.9120 N.am   11  ASP11      -0.1957
     17  CA       100.0260  142.5420   93.0410 C.3    11  ASP11       0.1840
     18  C        101.4080  142.0790   92.6080 C.2    11  ASP11       0.2622
     19  O        102.4020  142.7830   92.8080 O.2    11  ASP11      -0.2715
     20  CB        99.4740  141.6130   94.1240 C.3    11  ASP11       0.1450
     21  CG       100.2160  141.7330   95.4450 C.2    11  ASP11       0.3671
     22  OD1      101.1160  142.5900   95.5760 O.co2  11  ASP11      -0.2456
     23  OD2       99.9070  140.9470   96.3620 O.co2  11  ASP11      -0.2456
     24  N        101.4840  140.8920   92.0160 N.am   12  PHE12      -0.1974
     25  CA       102.7810  140.3270   91.6910 C.3    12  PHE12       0.1639
     26  C        103.4040  141.0120   90.4920 C.2    12  PHE12       0.2290
     27  O        104.6310  141.0770   90.3920 O.2    12  PHE12      -0.2864
     28  CB       102.6460  138.8390   91.4040 C.3    12  PHE12       0.0560
     29  CG       103.9430  138.1090   91.4280 C.ar   12  PHE12      -0.0200
     30  CD1      104.4770  137.7060   92.6320 C.ar   12  PHE12      -0.0042
     31  CD2      104.6490  137.8590   90.2660 C.ar   12  PHE12      -0.0042
     32  CE1      105.6720  137.0290   92.6840 C.ar   12  PHE12      -0.0003
     33  CE2      105.8540  137.1860   90.3050 C.ar   12  PHE12      -0.0003
     34  CZ       106.3670  136.7710   91.5190 C.ar   12  PHE12      -0.0000
     35  N         97.6590  144.9660   80.2940 N.3    31  SER31      -0.1202
     36  CA        96.5270  144.9570   81.2070 C.3    31  SER31       0.2020
     37  C         95.2490  144.9150   80.3880 C.2    31  SER31       0.2619
     38  O         95.2770  144.8190   79.1570 O.2    31  SER31      -0.2717
     39  CB        96.5390  146.1770   82.1300 C.3    31  SER31       0.2103
     40  OG        96.2990  147.3620   81.3940 O.3    31  SER31      -0.2182
     41  N         94.1140  144.9800   81.0790 N.am   32  ARG32      -0.1965
     42  CA        92.8480  145.1140   80.3740 C.3    32  ARG32       0.1729
     43  C         92.6580  146.5200   79.8380 C.2    32  ARG32       0.2616
     44  O         91.9950  146.7080   78.8140 O.2    32  ARG32      -0.2715
     45  CB        91.6910  144.7500   81.2940 C.3    32  ARG32       0.0348
     46  CG        91.6120  143.2830   81.5990 C.3    32  ARG32       0.0492
     47  CD        90.4640  142.9980   82.5260 C.3    32  ARG32       0.2205
     48  NE        90.7210  143.5050   83.8650 N.pl3  32  ARG32      -0.0865
     49  CZ        89.8450  143.4510   84.8610 C.cat  32  ARG32       0.5346
     50  NH1       90.1640  143.9360   86.0490 N.pl3  32  ARG32       0.1354
     51  NH2       88.6560  142.9020   84.6680 N.pl3  32  ARG32       0.1354
     52  N         93.2290  147.5140   80.5070 N.am   33  ASN33      -0.1972
     53  CA        93.0160  148.8940   80.1380 C.3    33  ASN33       0.1688
     54  C         94.3560  149.6140   80.1060 C.2    33  ASN33       0.2292
     55  O         94.8980  149.9620   81.1660 O.2    33  ASN33      -0.2864
     56  CB        92.0720  149.5720   81.1260 C.3    33  ASN33       0.1181
     57  CG        90.6840  148.9900   81.0780 C.2    33  ASN33       0.2629
     58  OD1       90.1600  148.6970   80.0040 O.2    33  ASN33      -0.2716
     59  ND2       90.0790  148.8080   82.2430 N.am   33  ASN33      -0.0877
     60  N         96.9400  143.3970   75.5020 N.3    49  TYR49      -0.1241
     61  CA        97.3740  142.0040   75.5260 C.3    49  TYR49       0.1605
     62  C         97.8870  141.5640   74.1660 C.2    49  TYR49       0.2264
     63  O         98.9560  140.9540   74.0620 O.2    49  TYR49      -0.2867
     64  CB        96.2160  141.1140   75.9630 C.3    49  TYR49       0.0534
     65  CG        95.8890  141.2110   77.4210 C.ar   49  TYR49      -0.0201
     66  CD1       96.8390  141.6240   78.3350 C.ar   49  TYR49      -0.0009
     67  CD2       94.6150  140.9240   77.8830 C.ar   49  TYR49      -0.0009
     68  CE1       96.5410  141.7090   79.6710 C.ar   49  TYR49       0.0417
     69  CE2       94.3060  141.0170   79.2220 C.ar   49  TYR49       0.0417
     70  CZ        95.2730  141.4180   80.1090 C.ar   49  TYR49       0.1957
     71  OH        94.9750  141.5160   81.4470 O.3    49  TYR49      -0.2866
     72  N        100.7460  136.7700   85.2220 N.3    62  ALA62      -0.1231
     73  CA       100.4920  136.9740   86.6450 C.3    62  ALA62       0.1694
     74  C         98.9980  137.1420   86.9010 C.2    62  ALA62       0.2592
     75  O         98.5290  138.1510   87.4190 O.2    62  ALA62      -0.2718
     76  CB       101.2810  138.1740   87.1530 C.3    62  ALA62       0.0304
     77  N         98.2440  136.1220   86.5100 N.am   63  ILE63      -0.1966
     78  CA        96.7950  136.1110   86.6350 C.3    63  ILE63       0.1727
     79  C         96.3860  134.8120   87.3110 C.2    63  ILE63       0.2616
     80  O         97.1540  133.8510   87.3710 O.2    63  ILE63      -0.2715
     81  CB        96.1110  136.2590   85.2660 C.3    63  ILE63       0.0290
     82  CG1       96.6570  135.2120   84.2990 C.3    63  ILE63       0.0022
     83  CG2       96.3110  137.6460   84.7030 C.3    63  ILE63       0.0023
     84  CD1       95.9580  135.1970   82.9620 C.3    63  ILE63       0.0001
     85  N         95.1630  134.7900   87.8350 N.am   64  HIS64      -0.1973
     86  CA        94.6800  133.5800   88.4770 C.3    64  HIS64       0.1656
     87  C         94.2540  132.5500   87.4360 C.2    64  HIS64       0.2291
     88  O         94.2930  132.7920   86.2310 O.2    64  HIS64      -0.2864
     89  CB        93.5220  133.8990   89.4240 C.3    64  HIS64       0.0771
     90  CG        93.9030  134.7740   90.5790 C.ar   64  HIS64       0.0820
     91  ND1       94.6230  134.3140   91.6590 N.ar   64  HIS64      -0.2267
     92  CD2       93.6570  136.0820   90.8200 C.ar   64  HIS64       0.1154
     93  CE1       94.8080  135.3030   92.5140 C.ar   64  HIS64       0.1986
     94  NE2       94.2310  136.3860   92.0280 N.ar   64  HIS64      -0.2212
     95  N         90.7410  133.2480   85.3550 N.3    67  HIS67      -0.1241
     96  CA        90.7800  134.2550   84.3050 C.3    67  HIS67       0.1621
     97  C         91.8380  133.9010   83.2630 C.2    67  HIS67       0.2264
     98  O         92.6800  134.7060   82.8820 O.2    67  HIS67      -0.2867
     99  CB        91.0170  135.6200   84.9270 C.3    67  HIS67       0.0745
    100  CG        89.9970  135.9740   85.9570 C.ar   67  HIS67       0.0817
    101  ND1       90.1770  135.7240   87.3000 N.ar   67  HIS67      -0.2268
    102  CD2       88.7530  136.4900   85.8350 C.ar   67  HIS67       0.1154
    103  CE1       89.1050  136.1150   87.9660 C.ar   67  HIS67       0.1986
    104  NE2       88.2270  136.5850   87.1000 N.ar   67  HIS67      -0.2212
    105  N         90.6830  134.5120   78.2340 N.3    70  PHE70      -0.1241
    106  CA        91.0010  135.3920   77.1210 C.3    70  PHE70       0.1605
    107  C         92.1950  134.9160   76.3160 C.2    70  PHE70       0.2264
    108  O         92.4290  135.4430   75.2250 O.2    70  PHE70      -0.2867
    109  CB        91.2530  136.8190   77.6180 C.3    70  PHE70       0.0534
    110  CG        92.4800  136.9700   78.4750 C.ar   70  PHE70      -0.0203
    111  CD1       92.4170  136.7320   79.8370 C.ar   70  PHE70      -0.0042
    112  CD2       93.6820  137.4090   77.9330 C.ar   70  PHE70      -0.0042
    113  CE1       93.5360  136.8810   80.6320 C.ar   70  PHE70      -0.0003
    114  CE2       94.8050  137.5550   78.7250 C.ar   70  PHE70      -0.0003
    115  CZ        94.7290  137.3010   80.0760 C.ar   70  PHE70      -0.0000
    116  N        102.9610  131.1090   86.6270 N.3    86  ILE86      -0.1231
    117  CA       103.4230  131.3420   87.9840 C.3    86  ILE86       0.1692
    118  C        102.3090  131.1780   89.0040 C.2    86  ILE86       0.2593
    119  O        102.5100  131.4620   90.1800 O.2    86  ILE86      -0.2718
    120  CB       104.0550  132.7370   88.1230 C.3    86  ILE86       0.0266
    121  CG1      102.9740  133.7890   87.9570 C.3    86  ILE86       0.0019
    122  CG2      105.1220  132.9700   87.0750 C.3    86  ILE86       0.0020
    123  CD1      103.4350  135.1510   88.2870 C.3    86  ILE86       0.0001
    124  N        101.1360  130.7370   88.5780 N.am   87  SER87      -0.1938
    125  CA        99.9580  130.8220   89.4240 C.3    87  SER87       0.2055
    126  C         99.9560  129.7520   90.5040 C.2    87  SER87       0.2643
    127  O        100.5800  128.6990   90.3710 O.2    87  SER87      -0.2714
    128  CB        98.6990  130.6860   88.5820 C.3    87  SER87       0.2130
    129  OG        98.6410  129.3950   88.0130 O.3    87  SER87      -0.2179
    130  N         99.2420  130.0390   91.5870 N.am   88  ASN88      -0.1971
    131  CA        99.0110  129.0990   92.6710 C.3    88  ASN88       0.1688
    132  C         97.5210  128.8360   92.8230 C.2    88  ASN88       0.2292
    133  O         96.6950  129.2950   92.0340 O.2    88  ASN88      -0.2864
    134  CB        99.5820  129.6250   93.9870 C.3    88  ASN88       0.1181
    135  CG       101.0800  129.6330   93.9980 C.2    88  ASN88       0.2629
    136  OD1      101.7140  128.6920   93.5370 O.2    88  ASN88      -0.2716
    137  ND2      101.6630  130.7010   94.5190 N.am   88  ASN88      -0.0877
    138  N        108.5500  130.7080   89.5880 N.3   116  PHE116     -0.1227
    139  CA       108.2560  131.8890   90.4000 C.3   116  PHE116      0.1736
    140  C        107.1160  131.7130   91.3910 C.2   116  PHE116      0.2595
    141  O        106.8420  132.6310   92.1650 O.2   116  PHE116     -0.2718
    142  CB       107.9530  133.1130   89.5400 C.3   116  PHE116      0.0547
    143  CG       109.1320  133.6600   88.8400 C.ar  116  PHE116     -0.0202
    144  CD1      110.0250  134.4620   89.5100 C.ar  116  PHE116     -0.0042
    145  CD2      109.3400  133.3960   87.5050 C.ar  116  PHE116     -0.0042
    146  CE1      111.1150  134.9820   88.8680 C.ar  116  PHE116     -0.0003
    147  CE2      110.4310  133.9130   86.8530 C.ar  116  PHE116     -0.0003
    148  CZ       111.3210  134.7070   87.5370 C.ar  116  PHE116     -0.0000
    149  N        106.4490  130.5670   91.4130 N.am  117  ASN117     -0.1974
    150  CA       105.2770  130.4180   92.2570 C.3   117  ASN117      0.1688
    151  C        105.6110  130.2900   93.7310 C.2   117  ASN117      0.2292
    152  O        104.6950  130.3150   94.5550 O.2   117  ASN117     -0.2864
    153  CB       104.4730  129.2050   91.8140 C.3   117  ASN117      0.1181
    154  CG       105.3160  127.9570   91.7250 C.2   117  ASN117      0.2629
    155  OD1      106.5270  127.9960   91.9280 O.2   117  ASN117     -0.2716
    156  ND2      104.6760  126.8330   91.4470 N.am  117  ASN117     -0.0877
    157  N        108.0880  132.2710   95.5550 N.3   119  ILE119     -0.1231
    158  CA       108.4280  133.5010   96.2510 C.3   119  ILE119      0.1692
    159  C        107.1980  134.3820   96.4100 C.2   119  ILE119      0.2593
    160  O        106.1500  134.1610   95.7990 O.2   119  ILE119     -0.2718
    161  CB       109.5430  134.2450   95.5100 C.3   119  ILE119      0.0266
    162  CG1      109.0350  134.7160   94.1630 C.3   119  ILE119      0.0019
    163  CG2      110.7050  133.3330   95.2780 C.3   119  ILE119      0.0020
    164  CD1      110.0030  135.6140   93.4630 C.3   119  ILE119      0.0001
    165  N        107.3280  135.3880   97.2630 N.am  120  SER120     -0.1938
    166  CA       106.2500  136.3160   97.5460 C.3   120  SER120      0.2055
    167  C        106.5940  137.6880   96.9960 C.2   120  SER120      0.2643
    168  O        107.7630  138.0610   96.8970 O.2   120  SER120     -0.2714
    169  CB       106.0040  136.4260   99.0460 C.3   120  SER120      0.2130
    170  OG       107.0980  137.0770   99.6590 O.3   120  SER120     -0.2179
    171  N        105.5530  138.4470   96.6620 N.am  121  ALA121     -0.1963
    172  CA       105.7670  139.7630   96.0780 C.3   121  ALA121      0.1728
    173  C        106.3280  140.7460   97.0900 C.2   121  ALA121      0.2616
    174  O        107.0190  141.6960   96.7100 O.2   121  ALA121     -0.2715
    175  CB       104.4640  140.2990   95.4930 C.3   121  ALA121      0.0334
    176  N        106.0550  140.5370   98.3740 N.am  122  TRP122     -0.1974
    177  CA       106.5970  141.4410   99.3760 C.3   122  TRP122      0.1640
    178  C        108.0760  141.1830   99.6000 C.2   122  TRP122      0.2290
    179  O        108.8200  142.0930   99.9780 O.2   122  TRP122     -0.2864
    180  CB       105.8130  141.3130  100.6770 C.3   122  TRP122      0.0576
    181  CG       106.3030  142.2130  101.7490 C.ar  122  TRP122      0.0006
    182  CD1      106.9430  141.8470  102.8880 C.ar  122  TRP122      0.0946
    183  CD2      106.2510  143.6390  101.7570 C.ar  122  TRP122      0.0152
    184  NE1      107.2630  142.9540  103.6270 N.ar  122  TRP122     -0.2442
    185  CE2      106.8530  144.0690  102.9500 C.ar  122  TRP122      0.0810
    186  CE3      105.7430  144.5950  100.8770 C.ar  122  TRP122      0.0012
    187  CZ2      106.9600  145.4090  103.2850 C.ar  122  TRP122      0.0191
    188  CZ3      105.8510  145.9220  101.2130 C.ar  122  TRP122      0.0001
    189  CH2      106.4540  146.3190  102.4060 C.ar  122  TRP122      0.0015
@<TRIPOS>BOND
     1    63    62    2
     2    62    61    1
     3   108   107    2
     4    60    61    1
     5    61    64    1
     6    64    65    1
     7   107   106    1
     8   106   109    1
     9   106   105    1
    10    65    67   ar
    11    65    66   ar
    12   109   110    1
    13    67    69   ar
    14   112   110   ar
    15   112   114   ar
    16    66    68   ar
    17   110   111   ar
    18   114   115   ar
    19    44    43    2
    20    38    37    2
    21    69    70   ar
    22    68    70   ar
    23   111   113   ar
    24    43    42    1
    25    43    52   am
    26    58    57    2
    27   115   113   ar
    28    54    53    1
    29    54    55    2
    30    70    71    1
    31    53    52    1
    32    53    56    1
    33    35    36    1
    34    42    41    1
    35    42    45    1
    36    37    41   am
    37    37    36    1
    38    57    56    1
    39    57    59   am
    40    36    39    1
    41    45    46    1
    42    40    39    1
    43    46    47    1
    44    47    48    1
    45    98    97    2
    46    84    82    1
    47     1     2    1
    48    97    96    1
    49    48    49    2
    50    11     9    1
    51    82    81    1
    52    96    99    1
    53    96    95    1
    54     2     3    1
    55    51    49    1
    56    83    81    1
    57    49    50    1
    58    99   100    1
    59    72    73    1
    60    81    78    1
    61     3     4    2
    62     3     5   am
    63    10     9    1
    64     9     6    1
    65     5     6    1
    66   102   100   ar
    67   102   104   ar
    68   100   101   ar
    69    88    87    2
    70     6     7    1
    71    77    78    1
    72    77    74   am
    73   116   117    1
    74    78    79    1
    75    73    74    1
    76    73    76    1
    77   147   145   ar
    78   147   148   ar
    79    74    75    2
    80   122   120    1
    81   104   103   ar
    82   101   103   ar
    83    79    80    2
    84    79    85   am
    85    87    86    1
    86   145   143   ar
    87   148   146   ar
    88    85    86    1
    89     7     8    2
    90     7    12   am
    91   121   120    1
    92   121   123    1
    93   117   120    1
    94   117   118    1
    95   129   128    1
    96    86    89    1
    97    12    13    1
    98   124   118   am
    99   124   125    1
   100   128   125    1
   101   143   144   ar
   102   143   142    1
   103   146   144   ar
   104   118   119    2
   105    89    90    1
   106   125   126    1
   107   142   139    1
   108   138   139    1
   109    13    14    1
   110    31    33   ar
   111    31    29   ar
   112    33    34   ar
   113   127   126    2
   114    27    26    2
   115   139   140    1
   116    26    25    1
   117   126   130   am
   118    90    92   ar
   119    90    91   ar
   120    92    94   ar
   121    15    14    2
   122    14    16   am
   123   140   149   am
   124   140   141    2
   125    28    29    1
   126    28    25    1
   127   149   150    1
   128    29    30   ar
   129   156   154   am
   130    34    32   ar
   131   130   131    1
   132    91    93   ar
   133    25    24    1
   134   154   153    1
   135   154   155    2
   136   153   150    1
   137    16    17    1
   138    24    18   am
   139    94    93   ar
   140   133   132    2
   141   150   151    1
   142    18    19    2
   143    18    17    1
   144    30    32   ar
   145   131   132    1
   146   131   134    1
   147    17    20    1
   148   164   162    1
   149   136   135    2
   150   151   152    2
   151   134   135    1
   152   135   137   am
   153    20    21    1
   154   162   161    1
   155   163   161    1
   156    21    22   ar
   157    21    23   ar
   158   175   172    1
   159   161   158    1
   160   157   158    1
   161   160   159    2
   162   172   171    1
   163   172   173    1
   164   158   159    1
   165   159   165   am
   166   171   167   am
   167   174   173    2
   168   168   167    2
   169   167   166    1
   170   173   176   am
   171   165   166    1
   172   166   169    1
   173   176   177    1
   174   169   170    1
   175   177   178    1
   176   177   180    1
   177   178   179    2
   178   180   181    1
   179   186   188   ar
   180   186   183   ar
   181   188   189   ar
   182   181   183   ar
   183   181   182   ar
   184   183   185   ar
   185   189   187   ar
   186   182   184   ar
   187   185   187   ar
   188   185   184   ar
