@<TRIPOS>MOLECULE
tmp/6hd1A01.pdb
 223 212 0 0 0
SMALL
GASTEIGER

@<TRIPOS>ATOM
      1  N        108.0680  120.7610  138.3390 N.3   223  SER223     -0.1217
      2  CA       108.2090  119.3460  138.6560 C.3   223  SER223      0.1889
      3  C        107.2890  118.4680  137.8260 C.2   223  SER223      0.2288
      4  O        107.7020  117.4000  137.3700 O.2   223  SER223     -0.2866
      5  CB       107.9450  119.1140  140.1370 C.3   223  SER223      0.2089
      6  OG       108.0470  117.7360  140.4340 O.3   223  SER223     -0.2183
      7  N        108.6870  118.4910  134.4760 N.3   226  ASN226     -0.1225
      8  CA       109.8670  117.6450  134.4620 C.3   226  ASN226      0.1785
      9  C        109.4990  116.1710  134.5080 C.2   226  ASN226      0.2597
     10  O        110.3790  115.3170  134.4300 O.2   226  ASN226     -0.2718
     11  CB       110.7820  117.9970  135.6310 C.3   226  ASN226      0.1169
     12  CG       112.2170  117.5680  135.4100 C.2   226  ASN226      0.2627
     13  OD1      112.5780  117.0630  134.3510 O.2   226  ASN226     -0.2716
     14  ND2      113.0490  117.7720  136.4210 N.am  226  ASN226     -0.0877
     15  N        108.2180  115.8480  134.6490 N.am  227  ARG227     -0.1979
     16  CA       107.7560  114.4760  134.5280 C.3   227  ARG227      0.1597
     17  C        107.0200  114.2070  133.2320 C.2   227  ARG227      0.2287
     18  O        107.0480  113.0810  132.7480 O.2   227  ARG227     -0.2864
     19  CB       106.8390  114.1150  135.6960 C.3   227  ARG227      0.0334
     20  CG       107.5430  114.1320  137.0180 C.3   227  ARG227      0.0492
     21  CD       106.6290  113.7310  138.1430 C.3   227  ARG227      0.2205
     22  NE       107.3040  113.8480  139.4290 N.pl3 227  ARG227     -0.0865
     23  CZ       108.0180  112.8780  139.9870 C.cat 227  ARG227      0.5346
     24  NH1      108.6010  113.0730  141.1600 N.pl3 227  ARG227      0.1354
     25  NH2      108.1440  111.7120  139.3730 N.pl3 227  ARG227      0.1354
     26  N        110.1310  114.1980  129.8290 N.3   230  PRO230     -0.2102
     27  CA       111.0280  113.0980  129.4600 C.3   230  PRO230      0.1504
     28  C        110.3060  111.8270  129.0690 C.2   230  PRO230      0.2575
     29  O        110.8030  111.1000  128.2030 O.2   230  PRO230     -0.2718
     30  CB       111.8720  112.8980  130.7150 C.3   230  PRO230      0.0282
     31  CG       111.0380  113.3290  131.7720 C.3   230  PRO230      0.0208
     32  CD       110.2570  114.4700  131.2720 C.3   230  PRO230      0.0893
     33  N        109.1500  111.5390  129.6600 N.am  231  ILE231     -0.1980
     34  CA       108.4120  110.3510  129.2600 C.3   231  ILE231      0.1595
     35  C        107.8140  110.5510  127.8820 C.2   231  ILE231      0.2287
     36  O        107.7540  109.6110  127.0820 O.2   231  ILE231     -0.2864
     37  CB       107.3410  110.0320  130.3030 C.3   231  ILE231      0.0276
     38  CG1      107.9940  109.8350  131.6490 C.3   231  ILE231      0.0022
     39  CG2      106.6420  108.7570  129.9820 C.3   231  ILE231      0.0022
     40  CD1      107.0090  109.7890  132.7560 C.3   231  ILE231      0.0001
     41  N        109.4580  112.3760  125.8090 N.3   233  ALA233     -0.1231
     42  CA       110.6680  112.2390  125.0190 C.3   233  ALA233      0.1694
     43  C        111.0960  110.7930  124.9030 C.2   233  ALA233      0.2591
     44  O        111.7390  110.4190  123.9190 O.2   233  ALA233     -0.2718
     45  CB       111.7960  113.0590  125.6290 C.3   233  ALA233      0.0304
     46  N        110.7570  109.9650  125.8790 N.am  234  LEU234     -0.1980
     47  CA       111.1890  108.5800  125.7960 C.3   234  LEU234      0.1596
     48  C        110.2590  107.7700  124.9150 C.2   234  LEU234      0.2287
     49  O        110.7200  106.9490  124.1180 O.2   234  LEU234     -0.2864
     50  CB       111.2710  107.9640  127.1840 C.3   234  LEU234      0.0297
     51  CG       111.8120  106.5450  127.1980 C.3   234  LEU234      0.0022
     52  CD1      113.2010  106.5600  126.6450 C.3   234  LEU234      0.0001
     53  CD2      111.8240  106.0090  128.5950 C.3   234  LEU234      0.0001
     54  N        110.7470  108.5660  121.3760 N.3   237  LEU237     -0.1245
     55  CA       111.9630  107.9220  120.9090 C.3   237  LEU237      0.1561
     56  C        111.7400  106.4420  120.6360 C.2   237  LEU237      0.2260
     57  O        112.2430  105.9190  119.6380 O.2   237  LEU237     -0.2867
     58  CB       113.0830  108.1240  121.9160 C.3   237  LEU237      0.0270
     59  CG       114.4040  107.4620  121.5580 C.3   237  LEU237      0.0019
     60  CD1      114.9250  107.9640  120.2400 C.3   237  LEU237      0.0001
     61  CD2      115.4100  107.7030  122.6590 C.3   237  LEU237      0.0001
     62  N        113.4080  116.2070  125.0700 N.3   283  ALA283     -0.1245
     63  CA       114.5570  115.8460  125.8790 C.3   283  ALA283      0.1562
     64  C        115.4050  117.0570  126.1890 C.2   283  ALA283      0.2260
     65  O        116.0230  117.1120  127.2510 O.2   283  ALA283     -0.2867
     66  CB       115.3940  114.7930  125.1800 C.3   283  ALA283      0.0290
     67  N        113.8330  118.5380  129.2120 N.3   286  HIS286     -0.1226
     68  CA       114.1490  117.7350  130.3880 C.3   286  HIS286      0.1752
     69  C        115.5820  117.9350  130.8470 C.2   286  HIS286      0.2595
     70  O        115.8750  117.7810  132.0360 O.2   286  HIS286     -0.2718
     71  CB       113.8700  116.2670  130.0900 C.3   286  HIS286      0.0759
     72  CG       114.3930  115.3210  131.1190 C.ar  286  HIS286      0.0818
     73  ND1      114.0040  115.3640  132.4350 N.ar  286  HIS286     -0.2268
     74  CD2      115.2450  114.2770  131.0120 C.ar  286  HIS286      0.1154
     75  CE1      114.6010  114.3910  133.1000 C.ar  286  HIS286      0.1986
     76  NE2      115.3600  113.7170  132.2580 N.ar  286  HIS286     -0.2212
     77  N        116.4750  118.3000  129.9340 N.am  287  VAL287     -0.1980
     78  CA       117.7920  118.7650  130.3320 C.3   287  VAL287      0.1595
     79  C        117.6770  120.0570  131.1170 C.2   287  VAL287      0.2287
     80  O        118.1800  120.1660  132.2380 O.2   287  VAL287     -0.2864
     81  CB       118.6820  118.9540  129.1000 C.3   287  VAL287      0.0276
     82  CG1      119.9550  119.6100  129.4900 C.3   287  VAL287      0.0022
     83  CG2      118.9820  117.6410  128.4930 C.3   287  VAL287      0.0022
     84  N        116.2930  120.0320  134.4950 N.3   290  THR290     -0.1203
     85  CA       117.1020  119.2960  135.4480 C.3   290  THR290      0.1994
     86  C        118.2960  120.1070  135.9090 C.2   290  THR290      0.2617
     87  O        118.5790  120.1680  137.1060 O.2   290  THR290     -0.2717
     88  CB       117.5520  117.9930  134.8310 C.3   290  THR290      0.1784
     89  OG1      116.3880  117.2490  134.4640 O.3   290  THR290     -0.2211
     90  CG2      118.3610  117.2020  135.8100 C.3   290  THR290      0.0376
     91  N        118.9660  120.7890  134.9840 N.am  291  LEU291     -0.1979
     92  CA       120.1250  121.5910  135.3380 C.3   291  LEU291      0.1596
     93  C        119.7800  122.8070  136.1780 C.2   291  LEU291      0.2287
     94  O        120.6830  123.4040  136.7640 O.2   291  LEU291     -0.2864
     95  CB       120.8320  122.0470  134.0770 C.3   291  LEU291      0.0297
     96  CG       121.3790  120.9030  133.2500 C.3   291  LEU291      0.0022
     97  CD1      122.0260  121.4420  132.0120 C.3   291  LEU291      0.0001
     98  CD2      122.3610  120.1200  134.0650 C.3   291  LEU291      0.0001
     99  N        117.3620  122.6400  138.6050 N.3   293  ILE293     -0.1245
    100  CA       116.9210  122.1720  139.9240 C.3   293  ILE293      0.1561
    101  C        117.5720  122.8980  141.1120 C.2   293  ILE293      0.2260
    102  O        116.8350  123.3520  141.9940 O.2   293  ILE293     -0.2867
    103  CB       117.0500  120.6450  140.0160 C.3   293  ILE293      0.0252
    104  CG1      115.9960  119.9670  139.1540 C.3   293  ILE293      0.0019
    105  CG2      116.9480  120.1590  141.4420 C.3   293  ILE293      0.0019
    106  CD1      116.1820  118.4900  139.0620 C.3   293  ILE293      0.0001
    107  N        122.6730  106.9220  137.0140 N.3   330  TYR330     -0.1227
    108  CA       121.7410  107.2900  135.9560 C.3   330  TYR330      0.1736
    109  C        122.0680  108.6380  135.3460 C.2   330  TYR330      0.2595
    110  O        121.7000  108.9030  134.1980 O.2   330  TYR330     -0.2718
    111  CB       120.3000  107.2900  136.4660 C.3   330  TYR330      0.0548
    112  CG       119.9640  108.2620  137.5750 C.ar  330  TYR330     -0.0200
    113  CD1      120.0190  107.8710  138.8880 C.ar  330  TYR330     -0.0009
    114  CD2      119.5350  109.5460  137.3000 C.ar  330  TYR330     -0.0009
    115  CE1      119.7020  108.7330  139.9010 C.ar  330  TYR330      0.0417
    116  CE2      119.2130  110.4150  138.3080 C.ar  330  TYR330      0.0417
    117  CZ       119.2960  110.0010  139.6050 C.ar  330  TYR330      0.1957
    118  OH       118.9740  110.8640  140.6190 O.3   330  TYR330     -0.2866
    119  N        122.7440  109.4890  136.1060 N.am  331  VAL331     -0.1980
    120  CA       123.1750  110.7710  135.5830 C.3   331  VAL331      0.1595
    121  C        124.2290  110.5770  134.5100 C.2   331  VAL331      0.2287
    122  O        124.1440  111.1600  133.4240 O.2   331  VAL331     -0.2864
    123  CB       123.6800  111.6410  136.7370 C.3   331  VAL331      0.0276
    124  CG1      124.3060  112.8600  136.2080 C.3   331  VAL331      0.0022
    125  CG2      122.5310  112.0020  137.6300 C.3   331  VAL331      0.0022
    126  N        122.5460  109.2770  131.6610 N.3   334  GLY334     -0.1210
    127  CA       121.7330  110.2610  130.9800 C.3   334  GLY334      0.1956
    128  C        122.5230  111.1830  130.0850 C.2   334  GLY334      0.2611
    129  O        122.0490  111.5350  129.0050 O.2   334  GLY334     -0.2717
    130  N        123.7230  111.5610  130.5010 N.am  335  ILE335     -0.1979
    131  CA       124.5610  112.4460  129.7100 C.3   335  ILE335      0.1595
    132  C        125.0770  111.7550  128.4600 C.2   335  ILE335      0.2287
    133  O        125.0570  112.3380  127.3760 O.2   335  ILE335     -0.2864
    134  CB       125.7050  112.9610  130.5890 C.3   335  ILE335      0.0276
    135  CG1      125.1410  113.8480  131.6800 C.3   335  ILE335      0.0022
    136  CG2      126.7060  113.7170  129.7800 C.3   335  ILE335      0.0022
    137  CD1      126.1510  114.2160  132.7040 C.3   335  ILE335      0.0001
    138  N        123.5040  109.2980  127.1560 N.3   337  GLY337     -0.1210
    139  CA       122.2960  109.1440  126.3820 C.3   337  GLY337      0.1956
    140  C        121.8420  110.4180  125.7250 C.2   337  GLY337      0.2611
    141  O        121.1730  110.3650  124.6950 O.2   337  GLY337     -0.2717
    142  N        122.2020  111.5620  126.2840 N.am  338  PHE338     -0.1976
    143  CA       121.7770  112.8080  125.6740 C.3   338  PHE338      0.1639
    144  C        122.7370  113.2730  124.6030 C.2   338  PHE338      0.2290
    145  O        122.3140  113.9050  123.6330 O.2   338  PHE338     -0.2864
    146  CB       121.6340  113.8940  126.7270 C.3   338  PHE338      0.0560
    147  CG       121.2630  115.2110  126.1660 C.ar  338  PHE338     -0.0200
    148  CD1      120.0140  115.4090  125.6380 C.ar  338  PHE338     -0.0042
    149  CD2      122.1560  116.2510  126.1680 C.ar  338  PHE338     -0.0042
    150  CE1      119.6630  116.6220  125.1090 C.ar  338  PHE338     -0.0003
    151  CE2      121.8070  117.4680  125.6500 C.ar  338  PHE338     -0.0003
    152  CZ       120.5580  117.6550  125.1260 C.ar  338  PHE338     -0.0000
    153  N        122.0020  111.7600  121.5930 N.3   341  PHE341     -0.1241
    154  CA       120.6790  112.1830  121.1800 C.3   341  PHE341      0.1605
    155  C        120.7510  113.5450  120.5190 C.2   341  PHE341      0.2264
    156  O        119.8870  113.9090  119.7190 O.2   341  PHE341     -0.2867
    157  CB       119.7820  112.1960  122.4000 C.3   341  PHE341      0.0534
    158  CG       118.3490  112.1690  122.0940 C.ar  341  PHE341     -0.0203
    159  CD1      117.7840  111.0500  121.5500 C.ar  341  PHE341     -0.0042
    160  CD2      117.5470  113.2130  122.4330 C.ar  341  PHE341     -0.0042
    161  CE1      116.4530  110.9970  121.3000 C.ar  341  PHE341     -0.0003
    162  CE2      116.2170  113.1530  122.1800 C.ar  341  PHE341     -0.0003
    163  CZ       115.6660  112.0540  121.6170 C.ar  341  PHE341     -0.0000
    164  N        119.0750  105.7500  127.2700 N.3   376  CYS376     -0.1235
    165  CA       117.9300  106.4620  127.8090 C.3   376  CYS376      0.1677
    166  C        117.0310  105.5270  128.6000 C.2   376  CYS376      0.2270
    167  O        116.3820  105.9570  129.5560 O.2   376  CYS376     -0.2867
    168  CB       117.1530  107.1370  126.6890 C.3   376  CYS376      0.0956
    169  SG       118.0580  108.4630  125.8760 S.3   376  CYS376     -0.0801
    170  N        118.7670  105.0400  131.9030 N.3   379  HIS379     -0.1226
    171  CA       118.7090  106.2400  132.7260 C.3   379  HIS379      0.1752
    172  C        117.4810  106.2540  133.6080 C.2   379  HIS379      0.2596
    173  O        117.5290  106.7850  134.7190 O.2   379  HIS379     -0.2718
    174  CB       118.7540  107.4730  131.8340 C.3   379  HIS379      0.0759
    175  CG       118.4470  108.7560  132.5350 C.ar  379  HIS379      0.0818
    176  ND1      119.1230  109.1770  133.6530 N.ar  379  HIS379     -0.2268
    177  CD2      117.5790  109.7450  132.2300 C.ar  379  HIS379      0.1154
    178  CE1      118.6740  110.3640  134.0140 C.ar  379  HIS379      0.1986
    179  NE2      117.7370  110.7330  133.1650 N.ar  379  HIS379     -0.2212
    180  N        116.3930  105.6460  133.1720 N.am  380  THR380     -0.1953
    181  CA       115.2070  105.5990  134.0000 C.3   380  THR380      0.1897
    182  C        115.0530  104.2880  134.7420 C.2   380  THR380      0.2313
    183  O        114.3170  104.2380  135.7260 O.2   380  THR380     -0.2863
    184  CB       113.9650  105.8830  133.1620 C.3   380  THR380      0.1794
    185  OG1      112.8130  105.8510  134.0020 O.3   380  THR380     -0.2208
    186  CG2      113.8060  104.8790  132.0770 C.3   380  THR380      0.0378
    187  N        117.1560  105.0250  137.8830 N.3   383  TYR383     -0.1241
    188  CA       116.3120  105.8850  138.7000 C.3   383  TYR383      0.1605
    189  C        115.1140  105.1250  139.2440 C.2   383  TYR383      0.2264
    190  O        114.6200  105.4390  140.3320 O.2   383  TYR383     -0.2867
    191  CB       115.8600  107.0900  137.8850 C.3   383  TYR383      0.0534
    192  CG       114.9980  108.0330  138.6560 C.ar  383  TYR383     -0.0201
    193  CD1      115.5380  108.8330  139.6430 C.ar  383  TYR383     -0.0009
    194  CD2      113.6420  108.1240  138.4010 C.ar  383  TYR383     -0.0009
    195  CE1      114.7500  109.6980  140.3610 C.ar  383  TYR383      0.0417
    196  CE2      112.8460  108.9850  139.1110 C.ar  383  TYR383      0.0417
    197  CZ       113.4050  109.7690  140.0880 C.ar  383  TYR383      0.1957
    198  OH       112.6140  110.6320  140.8020 O.3   383  TYR383     -0.2866
    199  N        103.9100  104.9600  139.8770 N.3   400  ALA400     -0.1245
    200  CA       104.7220  106.1630  139.9880 C.3   400  ALA400      0.1562
    201  C        104.9890  106.8540  138.6490 C.2   400  ALA400      0.2260
    202  O        106.0270  107.5160  138.5240 O.2   400  ALA400     -0.2867
    203  CB       106.0480  105.8310  140.6750 C.3   400  ALA400      0.0290
    204  N        106.1910  106.7980  135.7260 N.3   402  TYR402     -0.1241
    205  CA       107.1690  106.6100  134.6680 C.3   402  TYR402      0.1605
    206  C        107.1360  105.2140  134.0990 C.2   402  TYR402      0.2264
    207  O        107.4550  105.0290  132.9230 O.2   402  TYR402     -0.2867
    208  CB       108.5860  106.9280  135.1530 C.3   402  TYR402      0.0534
    209  CG       109.0850  106.0900  136.2980 C.ar  402  TYR402     -0.0201
    210  CD1      108.8790  106.4970  137.6000 C.ar  402  TYR402     -0.0009
    211  CD2      109.8000  104.9210  136.0810 C.ar  402  TYR402     -0.0009
    212  CE1      109.3310  105.7590  138.6540 C.ar  402  TYR402      0.0417
    213  CE2      110.2580  104.1710  137.1310 C.ar  402  TYR402      0.0417
    214  CZ       110.0220  104.6000  138.4170 C.ar  402  TYR402      0.1957
    215  OH       110.4690  103.8690  139.4880 O.3   402  TYR402     -0.2866
    216  N        107.5460  102.9620  130.2980 N.3   406  LEU406     -0.1245
    217  CA       108.5310  101.9190  130.0580 C.3   406  LEU406      0.1561
    218  C        107.9600  100.7050  129.3490 C.2   406  LEU406      0.2260
    219  O        108.6940   99.7390  129.1190 O.2   406  LEU406     -0.2867
    220  CB       109.1730  101.4800  131.3730 C.3   406  LEU406      0.0270
    221  CG       110.4580  102.1590  131.8330 C.3   406  LEU406      0.0019
    222  CD1      110.2810  103.6100  132.1610 C.3   406  LEU406      0.0001
    223  CD2      110.8950  101.4340  133.0670 C.3   406  LEU406      0.0001
@<TRIPOS>BOND
     1    57    56    2
     2   156   155    2
     3    60    59    1
     4   155   154    1
     5    56    55    1
     6    55    54    1
     7    55    58    1
     8   154   153    1
     9   154   157    1
    10   161   159   ar
    11   161   163   ar
    12   159   158   ar
    13    59    58    1
    14    59    61    1
    15   163   162   ar
    16   158   157    1
    17   158   160   ar
    18   162   160   ar
    19   145   144    2
    20    44    43    2
    21    49    48    2
    22   144   143    1
    23   141   140    2
    24    43    42    1
    25    43    46   am
    26    48    47    1
    27    42    45    1
    28    42    41    1
    29    62    63    1
    30   150   152   ar
    31   150   148   ar
    32   152   151   ar
    33    66    63    1
    34   148   147   ar
    35   151   149   ar
    36   143   142    1
    37   143   146    1
    38   140   142   am
    39   140   139    1
    40    47    46    1
    41    47    50    1
    42   169   168    1
    43    63    64    1
    44   147   149   ar
    45   147   146    1
    46    64    65    2
    47   139   138    1
    48    52    51    1
    49   168   165    1
    50    36    35    2
    51    50    51    1
    52    51    53    1
    53   164   165    1
    54   133   132    2
    55   165   166    1
    56    35    34    1
    57    29    28    2
    58   132   131    1
    59    83    81    1
    60   166   167    2
    61   129   128    2
    62    28    27    1
    63    28    33   am
    64    81    82    1
    65    81    78    1
    66   219   218    2
    67    67    68    1
    68    34    33    1
    69    34    37    1
    70   218   217    1
    71    27    26    1
    72    27    30    1
    73   131   130    1
    74   131   134    1
    75   136   134    1
    76    26    32    1
    77    77    78    1
    78    77    69   am
    79    39    37    1
    80   217   216    1
    81   217   220    1
    82   128   130   am
    83   128   127    1
    84    71    68    1
    85    71    72    1
    86    37    38    1
    87    78    79    1
    88    68    69    1
    89   134   135    1
    90    30    31    1
    91    69    70    2
    92   127   126    1
    93    74    72   ar
    94    74    76   ar
    95    79    80    2
    96    72    73   ar
    97    32    31    1
    98   220   221    1
    99    38    40    1
   100   135   137    1
   101   221   222    1
   102   221   223    1
   103   174   175    1
   104   174   171    1
   105   170   171    1
   106    97    96    1
   107   186   184    1
   108   177   175   ar
   109   177   179   ar
   110    76    75   ar
   111    73    75   ar
   112   175   176   ar
   113   171   172    1
   114    18    17    2
   115   207   206    2
   116   184   181    1
   117   184   185    1
   118   179   178   ar
   119   180   172   am
   120   180   181    1
   121    17    16    1
   122    96    98    1
   123    96    95    1
   124   122   121    2
   125   172   173    2
   126   176   178   ar
   127   181   182    1
   128    95    92    1
   129   206   205    1
   130   110   109    2
   131    13    12    2
   132    10     9    2
   133     8     7    1
   134     8     9    1
   135     8    11    1
   136    89    88    1
   137    84    85    1
   138     9    15   am
   139   121   120    1
   140    16    15    1
   141    16    19    1
   142   205   208    1
   143   205   204    1
   144   182   183    2
   145    88    85    1
   146    88    90    1
   147    91    92    1
   148    91    86   am
   149   208   209    1
   150    92    93    1
   151   109   108    1
   152   109   119   am
   153    12    11    1
   154    12    14   am
   155    85    86    1
   156   120   119    1
   157   120   123    1
   158    19    20    1
   159    86    87    2
   160   108   111    1
   161   108   107    1
   162   211   209   ar
   163   211   213   ar
   164    93    94    2
   165   124   123    1
   166   209   210   ar
   167   111   112    1
   168   123   125    1
   169    20    21    1
   170   213   214   ar
   171   114   112   ar
   172   114   116   ar
   173     4     3    2
   174   112   113   ar
   175   210   212   ar
   176     3     2    1
   177   187   188    1
   178   191   192    1
   179   191   188    1
   180    21    22    1
   181   116   117   ar
   182     1     2    1
   183   194   192   ar
   184   194   196   ar
   185   214   212   ar
   186   214   215    1
   187   202   201    2
   188    99   100    1
   189   201   200    1
   190   192   193   ar
   191     2     5    1
   192   188   189    1
   193   113   115   ar
   194   106   104    1
   195   196   197   ar
   196   104   103    1
   197   189   190    2
   198    25    23    1
   199    22    23    2
   200   117   115   ar
   201   117   118    1
   202   193   195   ar
   203   199   200    1
   204   100   103    1
   205   100   101    1
   206    23    24    1
   207   200   203    1
   208   103   105    1
   209   197   195   ar
   210   197   198    1
   211     5     6    1
   212   101   102    2
