@<TRIPOS>MOLECULE
tmp/6hd1A04.pdb
 111 108 0 0 0
SMALL
GASTEIGER

@<TRIPOS>ATOM
      1  N        103.7910  122.7420  107.4570 N.3   179  PHE179     -0.1241
      2  CA       104.3270  121.5810  108.1590 C.3   179  PHE179      0.1605
      3  C        103.4500  120.3570  107.9500 C.2   179  PHE179      0.2264
      4  O        102.6880  119.9830  108.8470 O.2   179  PHE179     -0.2867
      5  CB       104.4770  121.8770  109.6450 C.3   179  PHE179      0.0534
      6  CG       105.4350  122.9720  109.9310 C.ar  179  PHE179     -0.0203
      7  CD1      106.7940  122.7380  109.9120 C.ar  179  PHE179     -0.0042
      8  CD2      104.9790  124.2400  110.2060 C.ar  179  PHE179     -0.0042
      9  CE1      107.6810  123.7490  110.1680 C.ar  179  PHE179     -0.0003
     10  CE2      105.8650  125.2560  110.4630 C.ar  179  PHE179     -0.0003
     11  CZ       107.2170  125.0090  110.4450 C.ar  179  PHE179     -0.0000
     12  N        104.2640  117.1030  107.3860 N.3   181  MET181     -0.1230
     13  CA       104.7000  115.8550  107.9860 C.3   181  MET181      0.1702
     14  C        104.7810  115.9420  109.4960 C.2   181  MET181      0.2592
     15  O        104.8430  114.9070  110.1600 O.2   181  MET181     -0.2718
     16  CB       106.0530  115.4520  107.4120 C.3   181  MET181      0.0401
     17  CG       106.0250  115.2690  105.9160 C.3   181  MET181      0.0596
     18  SD       104.8060  114.0670  105.3650 S.3   181  MET181     -0.1393
     19  CE       105.5540  112.5440  105.9190 C.3   181  MET181      0.0692
     20  N        104.7590  117.1440  110.0490 N.am  182  TRP182     -0.1976
     21  CA       104.8070  117.3500  111.4840 C.3   182  TRP182      0.1640
     22  C        103.4460  117.2120  112.1420 C.2   182  TRP182      0.2290
     23  O        103.3560  117.3360  113.3680 O.2   182  TRP182     -0.2864
     24  CB       105.3720  118.7350  111.7780 C.3   182  TRP182      0.0576
     25  CG       106.7470  118.9170  111.2690 C.ar  182  TRP182      0.0006
     26  CD1      107.0950  119.3150  110.0230 C.ar  182  TRP182      0.0946
     27  CD2      107.9630  118.7720  111.9990 C.ar  182  TRP182      0.0152
     28  NE1      108.4540  119.3960  109.9150 N.ar  182  TRP182     -0.2442
     29  CE2      109.0100  119.0700  111.1210 C.ar  182  TRP182      0.0810
     30  CE3      108.2700  118.4060  113.3080 C.ar  182  TRP182      0.0012
     31  CZ2      110.3370  119.0120  111.5010 C.ar  182  TRP182      0.0191
     32  CZ3      109.5880  118.3500  113.6830 C.ar  182  TRP182      0.0001
     33  CH2      110.6040  118.6510  112.7870 C.ar  182  TRP182      0.0015
     34  N        102.8930  116.1320  116.2370 N.3   186  PHE186     -0.1241
     35  CA       102.2880  117.1370  117.1030 C.3   186  PHE186      0.1605
     36  C        101.0890  116.5750  117.8430 C.2   186  PHE186      0.2264
     37  O        100.9820  116.7270  119.0640 O.2   186  PHE186     -0.2867
     38  CB       101.8720  118.3630  116.2970 C.3   186  PHE186      0.0534
     39  CG       102.9950  119.3090  115.9950 C.ar  186  PHE186     -0.0203
     40  CD1      104.1520  119.3070  116.7520 C.ar  186  PHE186     -0.0042
     41  CD2      102.8890  120.2070  114.9420 C.ar  186  PHE186     -0.0042
     42  CE1      105.1820  120.1900  116.4690 C.ar  186  PHE186     -0.0003
     43  CE2      103.9140  121.0890  114.6510 C.ar  186  PHE186     -0.0003
     44  CZ       105.0600  121.0800  115.4150 C.ar  186  PHE186     -0.0000
     45  N        111.7720  110.6260  110.8970 N.3   273  LYS273     -0.1231
     46  CA       112.5300  111.8420  111.1660 C.3   273  LYS273      0.1693
     47  C        111.6930  112.8640  111.9090 C.2   273  LYS273      0.2591
     48  O        112.1910  113.5520  112.8020 O.2   273  LYS273     -0.2718
     49  CB       113.0210  112.4330  109.8490 C.3   273  LYS273      0.0285
     50  CG       113.7360  113.7560  109.9590 C.3   273  LYS273      0.0035
     51  CD       114.1270  114.2500  108.5910 C.3   273  LYS273      0.0206
     52  CE       114.7610  115.6080  108.6750 C.3   273  LYS273      0.1093
     53  NZ       115.0660  116.1310  107.3260 N.3   273  LYS273     -0.1314
     54  N        110.4120  112.9410  111.5820 N.am  274  GLN274     -0.1979
     55  CA       109.5430  113.9340  112.1810 C.3   274  GLN274      0.1601
     56  C        109.3190  113.6500  113.6560 C.2   274  GLN274      0.2287
     57  O        109.1450  114.5770  114.4470 O.2   274  GLN274     -0.2864
     58  CB       108.2120  113.9490  111.4500 C.3   274  GLN274      0.0394
     59  CG       108.3550  113.9810  109.9560 C.3   274  GLN274      0.0908
     60  CD       109.1810  115.1260  109.4870 C.2   274  GLN274      0.2608
     61  OE1      110.3100  114.9440  109.0310 O.2   274  GLN274     -0.2717
     62  NE2      108.6330  116.3200  109.5730 N.am  274  GLN274     -0.0878
     63  N        112.9180  114.3830  115.8140 N.3   277  LEU277     -0.1245
     64  CA       113.1860  115.7800  116.1000 C.3   277  LEU277      0.1561
     65  C        112.2530  116.3140  117.1690 C.2   277  LEU277      0.2260
     66  O        112.6280  117.2260  117.9090 O.2   277  LEU277     -0.2867
     67  CB       113.0590  116.6240  114.8400 C.3   277  LEU277      0.0270
     68  CG       114.2810  116.8100  113.9480 C.3   277  LEU277      0.0019
     69  CD1      115.3710  117.4340  114.7540 C.3   277  LEU277      0.0001
     70  CD2      114.7710  115.5440  113.3190 C.3   277  LEU277      0.0001
     71  N        113.6890  115.1500  120.3140 N.3   280  LEU280     -0.1245
     72  CA       114.8190  115.9790  120.6910 C.3   280  LEU280      0.1561
     73  C        114.3670  117.2450  121.3910 C.2   280  LEU280      0.2260
     74  O        115.0500  117.7270  122.2970 O.2   280  LEU280     -0.2867
     75  CB       115.6540  116.2990  119.4600 C.3   280  LEU280      0.0270
     76  CG       116.9000  117.1210  119.7160 C.3   280  LEU280      0.0019
     77  CD1      117.7720  116.3870  120.6770 C.3   280  LEU280      0.0001
     78  CD2      117.6270  117.3380  118.4280 C.3   280  LEU280      0.0001
     79  N        120.6350  114.5500  116.0670 N.3   345  GLY345     -0.1210
     80  CA       119.9890  115.7440  115.5580 C.3   345  GLY345      0.1956
     81  C        120.8780  116.5620  114.6540 C.2   345  GLY345      0.2611
     82  O        120.3940  117.1700  113.6980 O.2   345  GLY345     -0.2717
     83  N        122.1810  116.5820  114.9310 N.am  346  ILE346     -0.1979
     84  CA       123.1230  117.3020  114.0850 C.3   346  ILE346      0.1595
     85  C        123.2430  116.6170  112.7360 C.2   346  ILE346      0.2287
     86  O        123.4420  117.2660  111.7040 O.2   346  ILE346     -0.2864
     87  CB       124.4770  117.4020  114.8000 C.3   346  ILE346      0.0276
     88  CG1      124.2810  118.0450  116.1590 C.3   346  ILE346      0.0022
     89  CG2      125.4500  118.2260  114.0230 C.3   346  ILE346      0.0022
     90  CD1      123.6830  119.4230  116.0910 C.3   346  ILE346      0.0001
     91  N        120.7130  115.3000  111.3260 N.3   348  SER348     -0.1202
     92  CA       119.4490  115.5220  110.6500 C.3   348  SER348      0.2020
     93  C        119.3910  116.8160  109.8640 C.2   348  SER348      0.2619
     94  O        118.3750  117.0640  109.2130 O.2   348  SER348     -0.2717
     95  CB       118.3300  115.5150  111.6740 C.3   348  SER348      0.2103
     96  OG       118.3210  114.2800  112.3500 O.3   348  SER348     -0.2182
     97  N        120.4150  117.6490  109.9300 N.am  349  LEU349     -0.1966
     98  CA       120.4330  118.8740  109.1440 C.3   349  LEU349      0.1713
     99  C        120.5300  118.5280  107.6680 C.2   349  LEU349      0.2458
    100  O        121.2320  117.5810  107.3110 O.2   349  LEU349     -0.2730
    101  CB       121.6080  119.7440  109.5460 C.3   349  LEU349      0.0310
    102  CG       121.5080  120.3250  110.9390 C.3   349  LEU349      0.0022
    103  CD1      122.7930  120.9990  111.2930 C.3   349  LEU349      0.0001
    104  CD2      120.3880  121.3090  110.9680 C.3   349  LEU349      0.0001
    105  N        119.8550  119.2660  106.7850 N.am  350  PRO350     -0.2727
    106  CA       119.8720  118.9170  105.3650 C.3   350  PRO350      0.1402
    107  C        121.1960  119.1720  104.6810 C.2   350  PRO350      0.2269
    108  O        121.3640  118.7590  103.5310 O.2   350  PRO350     -0.2865
    109  CB       118.7830  119.8130  104.7810 C.3   350  PRO350      0.0296
    110  CG       118.7450  120.9600  105.6740 C.3   350  PRO350      0.0237
    111  CD       119.0160  120.4400  107.0410 C.3   350  PRO350      0.0939
@<TRIPOS>BOND
     1   108   107    2
     2   107   106    1
     3   109   106    1
     4   109   110    1
     5   106   105    1
     6    18    17    1
     7    18    19    1
     8   110   111    1
     9    17    16    1
    10   105   111    1
    11   105    99   am
    12   100    99    2
    13    53    52    1
    14    12    13    1
    15    16    13    1
    16     1     2    1
    17    99    98    1
    18     3     2    1
    19     3     4    2
    20    13    14    1
    21     2     5    1
    22    51    52    1
    23    51    50    1
    24    61    60    2
    25    98   101    1
    26    98    97    1
    27    94    93    2
    28    60    62   am
    29    60    59    1
    30    14    20   am
    31    14    15    2
    32   101   102    1
    33     5     6    1
    34    49    50    1
    35    49    46    1
    36    93    97   am
    37    93    92    1
    38     7     6   ar
    39     7     9   ar
    40    28    26   ar
    41    28    29   ar
    42     6     8   ar
    43    59    58    1
    44    26    25   ar
    45    20    21    1
    46     9    11   ar
    47     8    10   ar
    48    11    10   ar
    49    92    91    1
    50    92    95    1
    51    45    46    1
    52   102   104    1
    53   102   103    1
    54    29    31   ar
    55    29    27   ar
    56    46    47    1
    57    25    24    1
    58    25    27   ar
    59    58    55    1
    60    21    24    1
    61    21    22    1
    62    31    33   ar
    63    54    47   am
    64    54    55    1
    65    95    96    1
    66    86    85    2
    67    47    48    2
    68    27    30   ar
    69    22    23    2
    70    55    56    1
    71    85    84    1
    72    33    32   ar
    73    30    32   ar
    74    70    68    1
    75    56    57    2
    76    82    81    2
    77    68    69    1
    78    68    67    1
    79    89    87    1
    80    84    87    1
    81    84    83    1
    82    43    41   ar
    83    43    44   ar
    84    81    83   am
    85    81    80    1
    86    87    88    1
    87    67    64    1
    88    41    39   ar
    89    44    42   ar
    90    80    79    1
    91    63    64    1
    92    39    38    1
    93    39    40   ar
    94    90    88    1
    95    64    65    1
    96    34    35    1
    97    38    35    1
    98    42    40   ar
    99    35    36    1
   100    65    66    2
   101    36    37    2
   102    78    76    1
   103    75    76    1
   104    75    72    1
   105    76    77    1
   106    71    72    1
   107    72    73    1
   108    73    74    2
