@<TRIPOS>MOLECULE
tmp/6hd4A00.pdb
 159 150 0 0 0
SMALL
GASTEIGER

@<TRIPOS>ATOM
      1  N         30.0960   39.4520   57.5550 N.3   109  ARG109     -0.1245
      2  CA        29.1640   40.2250   56.7200 C.3   109  ARG109      0.1563
      3  C         29.7250   40.9250   55.4950 C.2   109  ARG109      0.2260
      4  O         28.9540   41.2690   54.6040 O.2   109  ARG109     -0.2867
      5  CB        28.2460   41.1100   57.5560 C.3   109  ARG109      0.0307
      6  CG        27.3450   40.2690   58.4460 C.3   109  ARG109      0.0489
      7  CD        26.2360   41.0680   59.0570 C.3   109  ARG109      0.2205
      8  NE        25.7180   40.4190   60.2570 N.pl3 109  ARG109     -0.0865
      9  CZ        24.8040   40.9620   61.0530 C.cat 109  ARG109      0.5346
     10  NH1       24.2910   42.1510   60.7720 N.pl3 109  ARG109      0.1354
     11  NH2       24.3780   40.3100   62.1210 N.pl3 109  ARG109      0.1354
     12  N         24.6470   41.6540   50.6250 N.3   114  ALA114     -0.1245
     13  CA        23.2840   41.6710   50.0650 C.3   114  ALA114      0.1562
     14  C         23.2040   40.7650   48.8100 C.2   114  ALA114      0.2260
     15  O         22.1980   40.1220   48.6060 O.2   114  ALA114     -0.2867
     16  CB        22.8840   43.1000   49.7040 C.3   114  ALA114      0.0290
     17  N         23.1630   37.0820   50.1340 N.3   117  LEU117     -0.1231
     18  CA        21.8280   36.7630   50.7420 C.3   117  LEU117      0.1693
     19  C         20.7590   36.5750   49.6250 C.2   117  LEU117      0.2591
     20  O         19.9190   35.6720   49.6980 O.2   117  LEU117     -0.2718
     21  CB        21.4130   37.8960   51.6680 C.3   117  LEU117      0.0284
     22  CG        22.3480   38.2660   52.8530 C.3   117  LEU117      0.0019
     23  CD1       21.8790   39.5490   53.5100 C.3   117  LEU117      0.0001
     24  CD2       22.4390   37.1570   53.9040 C.3   117  LEU117      0.0001
     25  N         20.8210   37.4050   48.5680 N.am  118  LEU118     -0.1980
     26  CA        19.9060   37.2830   47.4350 C.3   118  LEU118      0.1596
     27  C         20.1040   35.9290   46.7470 C.2   118  LEU118      0.2287
     28  O         19.1340   35.2350   46.4790 O.2   118  LEU118     -0.2864
     29  CB        20.0770   38.4700   46.4360 C.3   118  LEU118      0.0297
     30  CG        19.2200   38.3550   45.1350 C.3   118  LEU118      0.0022
     31  CD1       17.7020   38.3580   45.4470 C.3   118  LEU118      0.0001
     32  CD2       19.6310   39.4230   44.0800 C.3   118  LEU118      0.0001
     33  N         18.5230   33.1600   48.9540 N.3   121  ALA121     -0.1245
     34  CA        17.0380   33.1720   48.8200 C.3   121  ALA121      0.1562
     35  C         16.5980   32.5640   47.4770 C.2   121  ALA121      0.2260
     36  O         15.6570   31.7910   47.4460 O.2   121  ALA121     -0.2867
     37  CB        16.5290   34.5940   48.9220 C.3   121  ALA121      0.0290
     38  N         12.6470   34.1050   54.3300 N.3   206  LEU206     -0.1245
     39  CA        13.1400   35.3030   53.6390 C.3   206  LEU206      0.1561
     40  C         13.4420   36.4270   54.6420 C.2   206  LEU206      0.2260
     41  O         14.4470   37.1050   54.5360 O.2   206  LEU206     -0.2867
     42  CB        12.0850   35.7270   52.6120 C.3   206  LEU206      0.0270
     43  CG        12.4840   36.6780   51.4790 C.3   206  LEU206      0.0019
     44  CD1       13.7360   36.2030   50.7440 C.3   206  LEU206      0.0001
     45  CD2       11.2920   36.8910   50.5380 C.3   206  LEU206      0.0001
     46  N         16.7010   35.5160   56.4580 N.3   209  ILE209     -0.1231
     47  CA        17.8480   35.8580   55.6120 C.3   209  ILE209      0.1692
     48  C         18.0920   37.3730   55.6830 C.2   209  ILE209      0.2592
     49  O         19.2210   37.8150   55.9100 O.2   209  ILE209     -0.2718
     50  CB        17.6230   35.3700   54.1470 C.3   209  ILE209      0.0266
     51  CG1       17.6640   33.8020   54.0550 C.3   209  ILE209      0.0019
     52  CG2       18.6420   36.0260   53.1710 C.3   209  ILE209      0.0020
     53  CD1       17.1450   33.2420   52.6120 C.3   209  ILE209      0.0001
     54  N         17.0160   38.1500   55.4860 N.am  210  ALA210     -0.1966
     55  CA        17.0350   39.6220   55.4840 C.3   210  ALA210      0.1728
     56  C         17.5090   40.2220   56.7900 C.2   210  ALA210      0.2617
     57  O         17.9070   41.3710   56.7850 O.2   210  ALA210     -0.2715
     58  CB        15.6530   40.1780   55.1060 C.3   210  ALA210      0.0334
     59  N         17.4650   39.4640   57.9140 N.am  211  THR211     -0.1937
     60  CA        17.9170   39.9420   59.2330 C.3   211  THR211      0.2028
     61  C         19.1630   39.2280   59.7290 C.2   211  THR211      0.2642
     62  O         19.4520   39.3350   60.9140 O.2   211  THR211     -0.2714
     63  CB        16.8100   39.7450   60.3040 C.3   211  THR211      0.1808
     64  OG1       16.5040   38.3470   60.3760 O.3   211  THR211     -0.2208
     65  CG2       15.5330   40.5720   60.0300 C.3   211  THR211      0.0379
     66  N         19.8620   38.4440   58.8830 N.am  212  TYR212     -0.1973
     67  CA        21.0020   37.6200   59.3420 C.3   212  TYR212      0.1639
     68  C         20.6250   36.6560   60.4930 C.2   212  TYR212      0.2290
     69  O         21.3770   36.4870   61.4660 O.2   212  TYR212     -0.2864
     70  CB        22.2800   38.4380   59.6480 C.3   212  TYR212      0.0560
     71  CG        22.9250   39.0440   58.4320 C.ar  212  TYR212     -0.0198
     72  CD1       23.9670   38.3950   57.7760 C.ar  212  TYR212     -0.0009
     73  CD2       22.5850   40.3240   58.0050 C.ar  212  TYR212     -0.0009
     74  CE1       24.5490   38.9380   56.6340 C.ar  212  TYR212      0.0417
     75  CE2       23.2040   40.9070   56.8960 C.ar  212  TYR212      0.0417
     76  CZ        24.2040   40.2190   56.2300 C.ar  212  TYR212      0.1957
     77  OH        24.8300   40.7980   55.1560 O.3   212  TYR212     -0.2866
     78  N         17.6790   36.6160   62.5980 N.3   214  MET214     -0.1245
     79  CA        17.0010   37.0210   63.8310 C.3   214  MET214      0.1570
     80  C         15.7840   36.1200   64.0010 C.2   214  MET214      0.2261
     81  O         15.3280   35.5630   63.0080 O.2   214  MET214     -0.2867
     82  CB        16.5500   38.4690   63.7320 C.3   214  MET214      0.0387
     83  CG        17.6630   39.4660   63.9560 C.3   214  MET214      0.0595
     84  SD        17.0630   41.1750   63.9000 S.3   214  MET214     -0.1393
     85  CE        15.6280   41.0790   65.1010 C.3   214  MET214      0.0692
     86  N         12.4450   44.5340   57.3680 N.3   238  PRO238     -0.2102
     87  CA        13.7360   44.6080   58.0750 C.3   238  PRO238      0.1504
     88  C         14.5540   45.8320   57.6610 C.2   238  PRO238      0.2576
     89  O         14.4100   46.3300   56.5470 O.2   238  PRO238     -0.2718
     90  CB        14.4520   43.3170   57.6400 C.3   238  PRO238      0.0282
     91  CG        13.3040   42.3500   57.3620 C.3   238  PRO238      0.0208
     92  CD        12.3080   43.2510   56.6470 C.3   238  PRO238      0.0893
     93  N         15.3860   46.3250   58.5690 N.am  239  GLU239     -0.1966
     94  CA        16.2630   47.4700   58.3000 C.3   239  GLU239      0.1733
     95  C         17.1910   47.1130   57.1250 C.2   239  GLU239      0.2617
     96  O         17.7990   46.0400   57.1170 O.2   239  GLU239     -0.2715
     97  CB        17.0550   47.8110   59.5700 C.3   239  GLU239      0.0429
     98  CG        17.9330   49.0530   59.4660 C.3   239  GLU239      0.1163
     99  CD        18.5700   49.4570   60.7810 C.2   239  GLU239      0.3649
    100  OE1       18.4950   48.6670   61.7510 O.co2 239  GLU239     -0.2457
    101  OE2       19.1520   50.5640   60.8370 O.co2 239  GLU239     -0.2457
    102  N         17.1800   47.9630   56.0990 N.am  240  GLY240     -0.1940
    103  CA        17.9890   47.8090   54.8910 C.3   240  GLY240      0.2014
    104  C         17.3760   46.9220   53.8360 C.2   240  GLY240      0.2639
    105  O         17.9420   46.7740   52.7600 O.2   240  GLY240     -0.2714
    106  N         16.1950   46.3260   54.1280 N.am  241  CYS241     -0.1954
    107  CA        15.5490   45.4460   53.1810 C.3   241  CYS241      0.1828
    108  C         15.0240   46.2050   51.9940 C.2   241  CYS241      0.2467
    109  O         14.2090   47.0980   52.1760 O.2   241  CYS241     -0.2730
    110  CB        14.4430   44.6250   53.8390 C.3   241  CYS241      0.0996
    111  SG        13.7200   43.3770   52.7490 S.3   241  CYS241     -0.0797
    112  N         15.3790   45.7880   50.7630 N.am  242  PRO242     -0.2726
    113  CA        14.8180   46.4600   49.5790 C.3   242  PRO242      0.1402
    114  C         13.2930   46.3020   49.5680 C.2   242  PRO242      0.2269
    115  O         12.7700   45.2530   49.9600 O.2   242  PRO242     -0.2865
    116  CB        15.4660   45.7190   48.4040 C.3   242  PRO242      0.0296
    117  CG        16.7020   45.0760   48.9780 C.3   242  PRO242      0.0237
    118  CD        16.3200   44.7120   50.3860 C.3   242  PRO242      0.0939
    119  N         11.8270   43.2110   47.8060 N.3   245  VAL245     -0.1245
    120  CA        11.9890   41.9720   48.5640 C.3   245  VAL245      0.1561
    121  C         10.9010   41.8750   49.6390 C.2   245  VAL245      0.2260
    122  O         10.3020   40.8020   49.7950 O.2   245  VAL245     -0.2867
    123  CB        13.4260   41.7880   49.1150 C.3   245  VAL245      0.0252
    124  CG1       13.5310   40.5190   49.9780 C.3   245  VAL245      0.0019
    125  CG2       14.4240   41.7370   47.9710 C.3   245  VAL245      0.0019
    126  N         12.6680   36.6650   41.7560 N.3   270  PHE270     -0.1241
    127  CA        14.0630   36.9010   42.1750 C.3   270  PHE270      0.1605
    128  C         14.9790   37.1770   40.9770 C.2   270  PHE270      0.2264
    129  O         15.8290   38.0540   41.0710 O.2   270  PHE270     -0.2867
    130  CB        14.6330   35.7380   43.0070 C.3   270  PHE270      0.0534
    131  CG        14.1870   35.7330   44.4530 C.ar  270  PHE270     -0.0203
    132  CD1       14.4740   36.8050   45.2930 C.ar  270  PHE270     -0.0042
    133  CD2       13.4800   34.6560   44.9750 C.ar  270  PHE270     -0.0042
    134  CE1       14.0400   36.8080   46.6260 C.ar  270  PHE270     -0.0003
    135  CE2       13.0740   34.6460   46.3170 C.ar  270  PHE270     -0.0003
    136  CZ        13.3590   35.7150   47.1320 C.ar  270  PHE270     -0.0000
    137  N         21.1700   44.9660   43.9310 N.3   279  ILE279     -0.1245
    138  CA        20.5730   44.8060   45.2700 C.3   279  ILE279      0.1561
    139  C         21.3860   45.6120   46.3050 C.2   279  ILE279      0.2260
    140  O         20.8030   46.2150   47.1960 O.2   279  ILE279     -0.2867
    141  CB        20.3030   43.3270   45.6580 C.3   279  ILE279      0.0252
    142  CG1       19.4550   43.2400   46.9470 C.3   279  ILE279      0.0019
    143  CG2       21.5940   42.4670   45.6740 C.3   279  ILE279      0.0019
    144  CD1       18.8200   41.9010   47.2500 C.3   279  ILE279      0.0001
    145  N         19.9080   48.2730   48.9780 N.3   283  VAL283     -0.1245
    146  CA        20.1250   48.1140   50.4160 C.3   283  VAL283      0.1561
    147  C         20.7430   49.4070   50.9800 C.2   283  VAL283      0.2260
    148  O         20.3250   49.8700   52.0370 O.2   283  VAL283     -0.2867
    149  CB        20.9920   46.8630   50.7610 C.3   283  VAL283      0.0252
    150  CG1       21.4230   46.9100   52.2210 C.3   283  VAL283      0.0019
    151  CG2       20.2290   45.5620   50.4690 C.3   283  VAL283      0.0019
    152  N         19.1110   51.7580   53.8300 N.3   287  LEU287     -0.1245
    153  CA        19.8220   52.0800   55.0720 C.3   287  LEU287      0.1561
    154  C         20.0660   53.5940   55.0970 C.2   287  LEU287      0.2260
    155  O         20.2900   54.1630   56.1550 O.2   287  LEU287     -0.2867
    156  CB        21.1910   51.3740   55.1330 C.3   287  LEU287      0.0270
    157  CG        21.2190   49.8590   55.2310 C.3   287  LEU287      0.0019
    158  CD1       22.6270   49.3680   55.0200 C.3   287  LEU287      0.0001
    159  CD2       20.7320   49.3850   56.5860 C.3   287  LEU287      0.0001
@<TRIPOS>BOND
     1   128   129    2
     2   128   127    1
     3   126   127    1
     4   127   130    1
     5   130   131    1
     6   137   138    1
     7    32    30    1
     8   131   133   ar
     9   131   132   ar
    10   133   135   ar
    11    30    31    1
    12    30    29    1
    13   138   141    1
    14   138   139    1
    15   132   134   ar
    16   141   143    1
    17   141   142    1
    18   139   140    2
    19   135   136   ar
    20    29    26    1
    21    28    27    2
    22   134   136   ar
    23    27    26    1
    24   142   144    1
    25    26    25    1
    26    36    35    2
    27    35    34    1
    28   119   120    1
    29   125   123    1
    30   116   117    1
    31   116   113    1
    32   120   123    1
    33   120   121    1
    34    25    19   am
    35    15    14    2
    36    14    13    1
    37    34    37    1
    38    34    33    1
    39   117   118    1
    40   145   146    1
    41   123   124    1
    42   114   113    1
    43   114   115    2
    44   113   112    1
    45    19    20    2
    46    19    18    1
    47   121   122    2
    48    16    13    1
    49    13    12    1
    50    17    18    1
    51   118   112    1
    52   146   149    1
    53   146   147    1
    54   151   149    1
    55    45    43    1
    56    18    21    1
    57    44    43    1
    58   149   150    1
    59   112   108   am
    60   147   148    2
    61    43    42    1
    62    21    22    1
    63   108   109    2
    64   108   107    1
    65    42    39    1
    66    53    51    1
    67   111   110    1
    68   105   104    2
    69    22    23    1
    70    22    24    1
    71    52    50    1
    72   107   110    1
    73   107   106    1
    74    39    38    1
    75    39    40    1
    76   152   153    1
    77   104   106   am
    78   104   103    1
    79    51    50    1
    80    50    47    1
    81    41    40    2
    82     4     3    2
    83   103   102    1
    84   158   157    1
    85   153   154    1
    86   153   156    1
    87   154   155    2
    88    58    55    1
    89   156   157    1
    90    77    76    1
    91   157   159    1
    92    55    54    1
    93    55    56    1
    94    54    48   am
    95     3     2    1
    96    47    48    1
    97    47    46    1
    98    48    49    2
    99   102    95   am
   100    76    74   ar
   101    76    75   ar
   102    89    88    2
   103    74    72   ar
   104    92    91    1
   105    92    86    1
   106     2     1    1
   107     2     5    1
   108    57    56    2
   109    56    59   am
   110    75    73   ar
   111    96    95    2
   112    95    94    1
   113    91    90    1
   114    86    87    1
   115     5     6    1
   116    90    87    1
   117    88    87    1
   118    88    93   am
   119    72    71   ar
   120    59    60    1
   121    73    71   ar
   122    94    93    1
   123    94    97    1
   124    71    70    1
   125     6     7    1
   126    66    67    1
   127    66    61   am
   128     7     8    1
   129    60    61    1
   130    60    63    1
   131    67    70    1
   132    67    68    1
   133    98    97    1
   134    98    99    1
   135    61    62    2
   136    65    63    1
   137     8     9    2
   138    63    64    1
   139    68    69    2
   140    10     9    1
   141    99   101   ar
   142    99   100   ar
   143     9    11    1
   144    78    79    1
   145    81    80    2
   146    82    79    1
   147    82    83    1
   148    79    80    1
   149    84    83    1
   150    84    85    1
