@<TRIPOS>MOLECULE
tmp/6hd6A00.pdb
 144 135 0 0 0
SMALL
GASTEIGER

@<TRIPOS>ATOM
      1  N         30.7810   39.1320   57.6470 N.3   107  ARG107     -0.1245
      2  CA        29.7940   39.8440   56.8300 C.3   107  ARG107      0.1563
      3  C         30.3830   40.6210   55.6660 C.2   107  ARG107      0.2260
      4  O         29.6230   41.1410   54.8100 O.2   107  ARG107     -0.2867
      5  CB        28.9210   40.7500   57.7060 C.3   107  ARG107      0.0307
      6  CG        28.0640   39.9300   58.6570 C.3   107  ARG107      0.0489
      7  CD        27.2980   40.7910   59.6370 C.3   107  ARG107      0.2205
      8  NE        26.6980   39.9270   60.6630 N.pl3 107  ARG107     -0.0865
      9  CZ        25.6550   40.2460   61.4260 C.cat 107  ARG107      0.5346
     10  NH1       25.0670   41.4170   61.2940 N.pl3 107  ARG107      0.1354
     11  NH2       25.1930   39.3570   62.3050 N.pl3 107  ARG107      0.1354
     12  N         25.3110   41.2460   50.8810 N.3   112  ALA112     -0.1245
     13  CA        23.9820   41.2470   50.2320 C.3   112  ALA112      0.1562
     14  C         23.9270   40.3650   48.9930 C.2   112  ALA112      0.2260
     15  O         22.8930   39.7350   48.6990 O.2   112  ALA112     -0.2867
     16  CB        23.5990   42.7010   49.8570 C.3   112  ALA112      0.0290
     17  N         23.8520   36.7180   50.3460 N.3   115  LEU115     -0.1231
     18  CA        22.4980   36.4590   50.8890 C.3   115  LEU115      0.1693
     19  C         21.4640   36.2240   49.7690 C.2   115  LEU115      0.2591
     20  O         20.7670   35.2120   49.7330 O.2   115  LEU115     -0.2718
     21  CB        22.0850   37.6250   51.7830 C.3   115  LEU115      0.0284
     22  CG        22.9260   37.8320   53.0400 C.3   115  LEU115      0.0019
     23  CD1       22.5060   39.0760   53.8060 C.3   115  LEU115      0.0001
     24  CD2       22.9940   36.6100   53.9310 C.3   115  LEU115      0.0001
     25  N         21.3890   37.1410   48.8230 N.am  116  LEU116     -0.1980
     26  CA        20.5190   36.9730   47.6350 C.3   116  LEU116      0.1596
     27  C         20.7200   35.6390   46.9640 C.2   116  LEU116      0.2287
     28  O         19.7470   34.9160   46.6090 O.2   116  LEU116     -0.2864
     29  CB        20.7510   38.1290   46.6360 C.3   116  LEU116      0.0297
     30  CG        19.9720   38.0530   45.3170 C.3   116  LEU116      0.0022
     31  CD1       18.4160   38.0390   45.5700 C.3   116  LEU116      0.0001
     32  CD2       20.4020   39.1480   44.3390 C.3   116  LEU116      0.0001
     33  N         19.2760   32.7410   49.2010 N.3   119  ALA119     -0.1245
     34  CA        17.8010   32.7460   49.0100 C.3   119  ALA119      0.1562
     35  C         17.3900   32.1920   47.6570 C.2   119  ALA119      0.2260
     36  O         16.4650   31.4180   47.5730 O.2   119  ALA119     -0.2867
     37  CB        17.2130   34.1610   49.2310 C.3   119  ALA119      0.0290
     38  N         13.4660   33.7940   54.5500 N.3   204  LEU204     -0.1245
     39  CA        13.9730   34.9550   53.8600 C.3   204  LEU204      0.1561
     40  C         14.3280   36.0590   54.8380 C.2   204  LEU204      0.2260
     41  O         15.4100   36.6840   54.7620 O.2   204  LEU204     -0.2867
     42  CB        12.9620   35.4120   52.8210 C.3   204  LEU204      0.0270
     43  CG        13.3410   36.4660   51.7620 C.3   204  LEU204      0.0019
     44  CD1       14.6450   36.1160   51.0060 C.3   204  LEU204      0.0001
     45  CD2       12.1510   36.6500   50.7960 C.3   204  LEU204      0.0001
     46  N         17.5560   35.0420   56.5770 N.3   207  ILE207     -0.1231
     47  CA        18.6750   35.4660   55.7370 C.3   207  ILE207      0.1692
     48  C         18.9760   36.9890   55.8260 C.2   207  ILE207      0.2592
     49  O         20.1160   37.3880   56.1340 O.2   207  ILE207     -0.2718
     50  CB        18.4640   34.9800   54.2930 C.3   207  ILE207      0.0266
     51  CG1       18.4580   33.4400   54.2550 C.3   207  ILE207      0.0019
     52  CG2       19.5190   35.5880   53.3100 C.3   207  ILE207      0.0020
     53  CD1       18.0560   32.9050   52.8740 C.3   207  ILE207      0.0001
     54  N         17.9500   37.8140   55.6010 N.am  208  ALA208     -0.1966
     55  CA        18.0150   39.2730   55.6680 C.3   208  ALA208      0.1728
     56  C         18.5000   39.8700   56.9930 C.2   208  ALA208      0.2617
     57  O         18.9630   41.0200   57.0160 O.2   208  ALA208     -0.2715
     58  CB        16.6330   39.8360   55.3690 C.3   208  ALA208      0.0334
     59  N         18.3050   39.1380   58.0940 N.am  209  THR209     -0.1937
     60  CA        18.7230   39.5820   59.4140 C.3   209  THR209      0.2028
     61  C         19.9910   38.8310   59.8950 C.2   209  THR209      0.2642
     62  O         20.4070   39.0180   61.0270 O.2   209  THR209     -0.2714
     63  CB        17.6130   39.3690   60.4900 C.3   209  THR209      0.1808
     64  OG1       17.2510   37.9840   60.5000 O.3   209  THR209     -0.2208
     65  CG2       16.3210   40.2610   60.2560 C.3   209  THR209      0.0379
     66  N         20.5770   37.9660   59.0620 N.am  210  TYR210     -0.1973
     67  CA        21.6810   37.0920   59.5080 C.3   210  TYR210      0.1639
     68  C         21.2770   36.1510   60.6750 C.2   210  TYR210      0.2290
     69  O         22.0380   35.9660   61.6560 O.2   210  TYR210     -0.2864
     70  CB        22.9640   37.8800   59.8460 C.3   210  TYR210      0.0560
     71  CG        23.6440   38.5370   58.6500 C.ar  210  TYR210     -0.0198
     72  CD1       24.6310   37.8680   57.9260 C.ar  210  TYR210     -0.0009
     73  CD2       23.3220   39.8380   58.2760 C.ar  210  TYR210     -0.0009
     74  CE1       25.2720   38.4750   56.8330 C.ar  210  TYR210      0.0417
     75  CE2       23.9420   40.4680   57.1830 C.ar  210  TYR210      0.0417
     76  CZ        24.9310   39.7840   56.4860 C.ar  210  TYR210      0.1957
     77  OH        25.5270   40.3870   55.4220 O.3   210  TYR210     -0.2866
     78  N         16.2810   46.0730   58.5990 N.3   237  GLU237     -0.1231
     79  CA        17.1920   47.1680   58.2200 C.3   237  GLU237      0.1699
     80  C         18.1390   46.7270   57.0760 C.2   237  GLU237      0.2593
     81  O         18.7520   45.6610   57.1560 O.2   237  GLU237     -0.2718
     82  CB        17.9650   47.6660   59.4510 C.3   237  GLU237      0.0402
     83  CG        18.8780   48.9030   59.1870 C.3   237  GLU237      0.1161
     84  CD        20.1010   48.9310   60.1080 C.2   237  GLU237      0.3649
     85  OE1       19.9970   48.4220   61.2460 O.co2 237  GLU237     -0.2457
     86  OE2       21.1800   49.4310   59.6910 O.co2 237  GLU237     -0.2457
     87  N         18.2020   47.5300   56.0070 N.am  238  GLY238     -0.1942
     88  CA        19.0110   47.2310   54.8170 C.3   238  GLY238      0.2014
     89  C         18.2630   46.4580   53.7450 C.2   238  GLY238      0.2639
     90  O         18.6740   46.4150   52.5800 O.2   238  GLY238     -0.2714
     91  N         17.1470   45.8450   54.1280 N.am  239  CYS239     -0.1954
     92  CA        16.4080   44.9930   53.2070 C.3   239  CYS239      0.1828
     93  C         15.8500   45.8250   52.0800 C.2   239  CYS239      0.2467
     94  O         15.1480   46.8040   52.3440 O.2   239  CYS239     -0.2730
     95  CB        15.2630   44.2650   53.9310 C.3   239  CYS239      0.0996
     96  SG        14.5070   43.0220   52.8930 S.3   239  CYS239     -0.0797
     97  N         16.1500   45.4430   50.8150 N.am  240  PRO240     -0.2726
     98  CA        15.5760   46.2030   49.7280 C.3   240  PRO240      0.1402
     99  C         14.0740   45.9790   49.7060 C.2   240  PRO240      0.2269
    100  O         13.6140   44.8980   50.0800 O.2   240  PRO240     -0.2865
    101  CB        16.2340   45.6060   48.4840 C.3   240  PRO240      0.0296
    102  CG        17.4320   44.9240   48.9710 C.3   240  PRO240      0.0237
    103  CD        17.0170   44.3730   50.2980 C.3   240  PRO240      0.0939
    104  N         12.6970   42.8360   48.0260 N.3   243  VAL243     -0.1245
    105  CA        12.8320   41.5780   48.7500 C.3   243  VAL243      0.1561
    106  C         11.7680   41.4970   49.8430 C.2   243  VAL243      0.2260
    107  O         11.1790   40.4440   50.0370 O.2   243  VAL243     -0.2867
    108  CB        14.2480   41.3570   49.3400 C.3   243  VAL243      0.0252
    109  CG1       14.3360   39.9840   49.9810 C.3   243  VAL243      0.0019
    110  CG2       15.3150   41.5220   48.2490 C.3   243  VAL243      0.0019
    111  N         13.6070   36.3850   41.8770 N.3   268  PHE268     -0.1241
    112  CA        14.9740   36.5900   42.3440 C.3   268  PHE268      0.1605
    113  C         15.9170   36.8750   41.2010 C.2   268  PHE268      0.2264
    114  O         16.7190   37.8060   41.2750 O.2   268  PHE268     -0.2867
    115  CB        15.4560   35.3810   43.1230 C.3   268  PHE268      0.0534
    116  CG        15.0500   35.3980   44.5600 C.ar  268  PHE268     -0.0203
    117  CD1       15.3340   36.4870   45.3500 C.ar  268  PHE268     -0.0042
    118  CD2       14.3560   34.3280   45.1120 C.ar  268  PHE268     -0.0042
    119  CE1       14.9520   36.5090   46.6830 C.ar  268  PHE268     -0.0003
    120  CE2       13.9930   34.3310   46.4570 C.ar  268  PHE268     -0.0003
    121  CZ        14.2940   35.4150   47.2420 C.ar  268  PHE268     -0.0000
    122  N         21.9810   44.4390   44.1770 N.3   277  ILE277     -0.1245
    123  CA        21.4320   44.4170   45.5460 C.3   277  ILE277      0.1561
    124  C         22.2320   45.3360   46.4880 C.2   277  ILE277      0.2260
    125  O         21.6770   45.9610   47.4030 O.2   277  ILE277     -0.2867
    126  CB        21.2270   42.9610   46.0670 C.3   277  ILE277      0.0252
    127  CG1       20.4270   42.9470   47.3660 C.3   277  ILE277      0.0019
    128  CG2       22.5790   42.1540   46.1190 C.3   277  ILE277      0.0019
    129  CD1       19.7740   41.5920   47.6580 C.3   277  ILE277      0.0001
    130  N         20.6620   48.0420   48.9290 N.3   281  VAL281     -0.1245
    131  CA        20.9400   47.9600   50.3550 C.3   281  VAL281      0.1561
    132  C         21.5230   49.2710   50.8580 C.2   281  VAL281      0.2260
    133  O         21.0920   49.7780   51.8840 O.2   281  VAL281     -0.2867
    134  CB        21.9180   46.7760   50.7200 C.3   281  VAL281      0.0252
    135  CG1       22.4190   46.9270   52.1320 C.3   281  VAL281      0.0019
    136  CG2       21.2460   45.4330   50.5320 C.3   281  VAL281      0.0019
    137  N         19.8040   51.9690   53.2220 N.3   285  LEU285     -0.1245
    138  CA        20.5770   52.4580   54.3530 C.3   285  LEU285      0.1561
    139  C         20.9850   53.8980   54.0500 C.2   285  LEU285      0.2260
    140  O         20.9190   54.7500   54.9270 O.2   285  LEU285     -0.2867
    141  CB        21.8260   51.5830   54.6110 C.3   285  LEU285      0.0270
    142  CG        21.7750   50.0880   54.9650 C.3   285  LEU285      0.0019
    143  CD1       23.0830   49.4550   54.6460 C.3   285  LEU285      0.0001
    144  CD2       21.4940   49.9000   56.4160 C.3   285  LEU285      0.0001
@<TRIPOS>BOND
     1   113   114    2
     2   113   112    1
     3   111   112    1
     4   112   115    1
     5   115   116    1
     6   122   123    1
     7    32    30    1
     8   116   118   ar
     9   116   117   ar
    10   118   120   ar
    11    30    31    1
    12    30    29    1
    13   117   119   ar
    14   123   126    1
    15   123   124    1
    16   126   128    1
    17   126   127    1
    18   120   121   ar
    19   124   125    2
    20    28    27    2
    21    29    26    1
    22   119   121   ar
    23    27    26    1
    24   127   129    1
    25    36    35    2
    26    26    25    1
    27    35    34    1
    28   104   105    1
    29   110   108    1
    30   101   102    1
    31   101    98    1
    32    15    14    2
    33   105   108    1
    34   105   106    1
    35    25    19   am
    36   130   131    1
    37   102   103    1
    38    14    13    1
    39    34    33    1
    40    34    37    1
    41   108   109    1
    42    99    98    1
    43    99   100    2
    44    98    97    1
    45    20    19    2
    46    19    18    1
    47   106   107    2
    48    16    13    1
    49    13    12    1
    50   103    97    1
    51    17    18    1
    52   131   134    1
    53   131   132    1
    54   136   134    1
    55   134   135    1
    56    45    43    1
    57    97    93   am
    58   132   133    2
    59    18    21    1
    60    44    43    1
    61    43    42    1
    62    21    22    1
    63    93    94    2
    64    93    92    1
    65    90    89    2
    66    42    39    1
    67    53    51    1
    68    96    95    1
    69    22    23    1
    70    22    24    1
    71    92    95    1
    72    92    91    1
    73   137   138    1
    74    52    50    1
    75    89    91   am
    76    89    88    1
    77    39    38    1
    78    39    40    1
    79   139   138    1
    80   139   140    2
    81    51    50    1
    82    50    47    1
    83   138   141    1
    84   141   142    1
    85   143   142    1
    86    41    40    2
    87     4     3    2
    88    88    87    1
    89   142   144    1
    90    58    55    1
    91    77    76    1
    92    54    55    1
    93    54    48   am
    94     3     2    1
    95    55    56    1
    96    47    48    1
    97    47    46    1
    98    48    49    2
    99    87    80   am
   100    76    74   ar
   101    76    75   ar
   102     2     1    1
   103     2     5    1
   104    74    72   ar
   105    56    57    2
   106    56    59   am
   107    80    81    2
   108    80    79    1
   109    75    73   ar
   110     5     6    1
   111    72    71   ar
   112    59    60    1
   113    79    78    1
   114    79    82    1
   115    73    71   ar
   116    71    70    1
   117     6     7    1
   118    66    67    1
   119    66    61   am
   120    83    82    1
   121    83    84    1
   122    60    61    1
   123    60    63    1
   124    67    70    1
   125    67    68    1
   126     7     8    1
   127    86    84   ar
   128    61    62    2
   129    84    85   ar
   130    65    63    1
   131    63    64    1
   132     8     9    2
   133    68    69    2
   134    10     9    1
   135     9    11    1
