@<TRIPOS>MOLECULE
tmp/6hdnA00.pdb
 123 115 0 0 0
SMALL
GASTEIGER

@<TRIPOS>ATOM
      1  N        -25.2900   44.7940    3.0560 N.3    30  VAL30      -0.1231
      2  CA       -25.1490   45.0790    4.4870 C.3    30  VAL30       0.1692
      3  C        -23.6790   45.1580    4.9370 C.2    30  VAL30       0.2592
      4  O        -23.3670   45.8330    5.9150 O.2    30  VAL30      -0.2718
      5  CB       -25.9250   44.0430    5.3440 C.3    30  VAL30       0.0266
      6  CG1      -25.3090   42.6510    5.2470 C.3    30  VAL30       0.0020
      7  CG2      -26.0210   44.4860    6.7960 C.3    30  VAL30       0.0020
      8  N        -22.7860   44.4920    4.2090 N.am   31  PHE31      -0.1976
      9  CA       -21.3590   44.4860    4.5400 C.3    31  PHE31       0.1639
     10  C        -20.5230   45.5010    3.7490 C.2    31  PHE31       0.2290
     11  O        -19.3040   45.5190    3.8890 O.2    31  PHE31      -0.2864
     12  CB       -20.7820   43.0830    4.3160 C.3    31  PHE31       0.0560
     13  CG       -21.5830   41.9810    4.9640 C.ar   31  PHE31      -0.0200
     14  CD1      -21.7550   41.9470    6.3410 C.ar   31  PHE31      -0.0042
     15  CD2      -22.1570   40.9780    4.1960 C.ar   31  PHE31      -0.0042
     16  CE1      -22.4940   40.9380    6.9410 C.ar   31  PHE31      -0.0003
     17  CE2      -22.8990   39.9640    4.7870 C.ar   31  PHE31      -0.0003
     18  CZ       -23.0670   39.9420    6.1610 C.ar   31  PHE31      -0.0000
     19  N        -20.5520   48.8840    3.8750 N.3    33  LYS33      -0.1245
     20  CA       -20.2340   50.1150    4.5990 C.3    33  LYS33       0.1561
     21  C        -20.2380   49.8700    6.1050 C.2    33  LYS33       0.2260
     22  O        -20.8750   48.9270    6.5740 O.2    33  LYS33      -0.2867
     23  CB       -21.2760   51.1910    4.2800 C.3    33  LYS33       0.0271
     24  CG       -21.2840   51.6660    2.8370 C.3    33  LYS33       0.0035
     25  CD       -22.4600   52.6010    2.5940 C.3    33  LYS33       0.0206
     26  CE       -22.3260   53.3570    1.2810 C.3    33  LYS33       0.1093
     27  NZ       -23.6060   54.0160    0.8920 N.3    33  LYS33      -0.1314
     28  N        -21.3310   50.1350    9.9920 N.3    35  VAL35      -0.1245
     29  CA       -22.6620   50.1880   10.5920 C.3    35  VAL35       0.1561
     30  C        -22.9500   51.6090   11.0720 C.2    35  VAL35       0.2260
     31  O        -22.0980   52.2460   11.6920 O.2    35  VAL35      -0.2867
     32  CB       -22.7880   49.2050   11.7750 C.3    35  VAL35       0.0252
     33  CG1      -24.1300   49.3730   12.4750 C.3    35  VAL35       0.0019
     34  CG2      -22.6140   47.7690   11.2940 C.3    35  VAL35       0.0019
     35  N        -28.6700   53.7470   13.8410 N.3    39  GLU39      -0.1231
     36  CA       -29.4800   52.5310   13.7990 C.3    39  GLU39       0.1699
     37  C        -29.0270   51.5300   14.8610 C.2    39  GLU39       0.2592
     38  O        -29.8550   50.9730   15.5840 O.2    39  GLU39      -0.2718
     39  CB       -29.4180   51.8870   12.4110 C.3    39  GLU39       0.0402
     40  CG       -30.4040   50.7430   12.2130 C.3    39  GLU39       0.1161
     41  CD       -30.4200   50.2020   10.7940 C.2    39  GLU39       0.3649
     42  OE1      -31.2750   49.3400   10.5010 O.co2  39  GLU39      -0.2457
     43  OE2      -29.5870   50.6320    9.9690 O.co2  39  GLU39      -0.2457
     44  N        -27.7150   51.3130   14.9490 N.am   40  VAL40      -0.1980
     45  CA       -27.1500   50.3140   15.8560 C.3    40  VAL40       0.1595
     46  C        -26.1110   50.9600   16.7850 C.2    40  VAL40       0.2287
     47  O        -24.9050   50.8560   16.5490 O.2    40  VAL40      -0.2864
     48  CB       -26.5130   49.1420   15.0730 C.3    40  VAL40       0.0276
     49  CG1      -26.5230   47.8870   15.9240 C.3    40  VAL40       0.0022
     50  CG2      -27.2560   48.8810   13.7700 C.3    40  VAL40       0.0022
     51  N        -23.5190   48.6320   18.6070 N.3    43  TYR43      -0.1241
     52  CA       -22.5930   47.8690   17.7560 C.3    43  TYR43       0.1605
     53  C        -21.1310   48.1720   18.0900 C.2    43  TYR43       0.2264
     54  O        -20.3210   47.2560   18.2530 O.2    43  TYR43      -0.2867
     55  CB       -22.8560   48.1380   16.2690 C.3    43  TYR43       0.0534
     56  CG       -22.1610   47.1510   15.3570 C.ar   43  TYR43      -0.0201
     57  CD1      -22.7750   45.9560   15.0000 C.ar   43  TYR43      -0.0009
     58  CD2      -20.8830   47.4050   14.8670 C.ar   43  TYR43      -0.0009
     59  CE1      -22.1380   45.0410   14.1740 C.ar   43  TYR43       0.0417
     60  CE2      -20.2400   46.4990   14.0380 C.ar   43  TYR43       0.0417
     61  CZ       -20.8690   45.3220   13.6970 C.ar   43  TYR43       0.1957
     62  OH       -20.2290   44.4210   12.8870 O.3    43  TYR43      -0.2866
     63  N        -20.5280   39.3110   12.2500 N.3    82  ALA82      -0.1245
     64  CA       -21.9490   39.0890   11.9690 C.3    82  ALA82       0.1562
     65  C        -22.5120   37.9360   12.8020 C.2    82  ALA82       0.2260
     66  O        -23.6210   38.0320   13.3170 O.2    82  ALA82      -0.2867
     67  CB       -22.1640   38.8320   10.4800 C.3    82  ALA82       0.0290
     68  N        -22.6110   39.3500   16.5130 N.3    85  TYR85      -0.1227
     69  CA       -23.5730   40.4050   16.7950 C.3    85  TYR85       0.1736
     70  C        -25.0300   39.9930   16.5600 C.2    85  TYR85       0.2595
     71  O        -25.9320   40.5510   17.1890 O.2    85  TYR85      -0.2718
     72  CB       -23.2670   41.6760   16.0010 C.3    85  TYR85       0.0548
     73  CG       -24.1310   42.8160   16.4620 C.ar   85  TYR85      -0.0200
     74  CD1      -23.9000   43.4260   17.6910 C.ar   85  TYR85      -0.0009
     75  CD2      -25.2220   43.2410   15.7090 C.ar   85  TYR85      -0.0009
     76  CE1      -24.7070   44.4540   18.1400 C.ar   85  TYR85       0.0417
     77  CE2      -26.0380   44.2660   16.1510 C.ar   85  TYR85       0.0417
     78  CZ       -25.7730   44.8680   17.3650 C.ar   85  TYR85       0.1957
     79  OH       -26.5760   45.8820   17.8090 O.3    85  TYR85      -0.2866
     80  N        -25.2580   39.0250   15.6750 N.am   86  ASN86      -0.1974
     81  CA       -26.6170   38.5790   15.3300 C.3    86  ASN86       0.1688
     82  C        -26.7870   37.0830   15.5930 C.2    86  ASN86       0.2292
     83  O        -26.9420   36.3120   14.6550 O.2    86  ASN86      -0.2864
     84  CB       -26.9070   38.8740   13.8460 C.3    86  ASN86       0.1181
     85  CG       -26.4650   40.2640   13.4210 C.2    86  ASN86       0.2629
     86  OD1      -27.1990   41.2410   13.5750 O.2    86  ASN86      -0.2716
     87  ND2      -25.2640   40.3550   12.8550 N.am   86  ASN86      -0.0877
     88  N        -29.1620   35.3410   17.2210 N.3    88  ASP88      -0.1239
     89  CA       -30.4970   34.8730   17.5880 C.3    88  ASP88       0.1674
     90  C        -31.1840   34.0790   16.4860 C.2    88  ASP88       0.2266
     91  O        -30.7540   34.0750   15.3320 O.2    88  ASP88      -0.2867
     92  CB       -31.3750   36.0620   18.0020 C.3    88  ASP88       0.1410
     93  CG       -30.8600   36.7650   19.2540 C.2    88  ASP88       0.3668
     94  OD1      -30.0140   36.1870   19.9630 O.co2  88  ASP88      -0.2456
     95  OD2      -31.3100   37.8950   19.5460 O.co2  88  ASP88      -0.2456
     96  N        -34.1170   34.7150   15.3910 N.3    90  ASP90      -0.1239
     97  CA       -34.8590   35.7080   14.6060 C.3    90  ASP90       0.1674
     98  C        -34.4860   35.6060   13.1180 C.2    90  ASP90       0.2266
     99  O        -33.3010   35.4890   12.7960 O.2    90  ASP90      -0.2867
    100  CB       -34.5100   37.1060   15.1410 C.3    90  ASP90       0.1410
    101  CG       -35.2370   38.2230   14.4200 C.2    90  ASP90       0.3668
    102  OD1      -36.4230   38.4620   14.7300 O.co2  90  ASP90      -0.2456
    103  OD2      -34.6070   38.8920   13.5730 O.co2  90  ASP90      -0.2456
    104  N        -34.3090   37.8340   10.8590 N.3    92  GLY92      -0.1210
    105  CA       -33.3690   38.9060   10.5230 C.3    92  GLY92       0.1956
    106  C        -31.9250   38.5180   10.8090 C.2    92  GLY92       0.2611
    107  O        -31.0430   38.6950    9.9670 O.2    92  GLY92      -0.2717
    108  N        -31.6870   37.9800   12.0030 N.am   93  ASP93      -0.1973
    109  CA       -30.3590   37.4900   12.3900 C.3    93  ASP93       0.1709
    110  C        -29.9250   36.3190   11.5170 C.2    93  ASP93       0.2293
    111  O        -28.7990   36.2830   11.0340 O.2    93  ASP93      -0.2864
    112  CB       -30.3390   37.0390   13.8560 C.3    93  ASP93       0.1436
    113  CG       -30.2430   38.1960   14.8280 C.2    93  ASP93       0.3671
    114  OD1      -30.6180   39.3310   14.4660 O.co2  93  ASP93      -0.2456
    115  OD2      -29.7750   37.9630   15.9600 O.co2  93  ASP93      -0.2456
    116  N        -28.7560   37.5350    8.0370 N.3    96  ILE96      -0.1245
    117  CA       -27.4530   38.1850    8.0100 C.3    96  ILE96       0.1561
    118  C        -26.3290   37.1650    8.2270 C.2    96  ILE96       0.2260
    119  O        -25.2990   37.2520    7.5700 O.2    96  ILE96      -0.2867
    120  CB       -27.3640   39.3780    8.9850 C.3    96  ILE96       0.0252
    121  CG1      -26.1800   40.2710    8.6090 C.3    96  ILE96       0.0019
    122  CG2      -27.2580   38.9230   10.4290 C.3    96  ILE96       0.0019
    123  CD1      -26.1150   41.5420    9.4160 C.3    96  ILE96       0.0001
@<TRIPOS>BOND
     1    27    26    1
     2    26    25    1
     3    25    24    1
     4    24    23    1
     5     1     2    1
     6    10    11    2
     7    10     9    1
     8    19    20    1
     9    15    17   ar
    10    15    13   ar
    11     8     9    1
    12     8     3   am
    13    23    20    1
    14    12     9    1
    15    12    13    1
    16     2     3    1
    17     2     5    1
    18    20    21    1
    19    17    18   ar
    20     3     4    2
    21    13    14   ar
    22     6     5    1
    23     5     7    1
    24    21    22    2
    25    18    16   ar
    26    14    16   ar
    27   119   118    2
    28   117   116    1
    29   117   118    1
    30   117   120    1
    31   121   120    1
    32   121   123    1
    33   120   122    1
    34   107   106    2
    35    43    41   ar
    36    28    29    1
    37    67    64    1
    38    42    41   ar
    39   105   106    1
    40   105   104    1
    41    29    30    1
    42    29    32    1
    43    41    40    1
    44   106   108   am
    45   111   110    2
    46    30    31    2
    47    34    32    1
    48   110   109    1
    49    32    33    1
    50    64    63    1
    51    64    65    1
    52   108   109    1
    53    40    39    1
    54   109   112    1
    55    39    36    1
    56    99    98    2
    57    65    66    2
    58    87    85   am
    59    62    61    1
    60    98    97    1
    61    85    86    2
    62    85    84    1
    63   103   101   ar
    64    61    60   ar
    65    61    59   ar
    66    50    48    1
    67    36    35    1
    68    36    37    1
    69    84    81    1
    70   112   113    1
    71    60    58   ar
    72    59    57   ar
    73   101   102   ar
    74   101   100    1
    75   114   113   ar
    76    97   100    1
    77    97    96    1
    78    83    82    2
    79   113   115   ar
    80    37    44   am
    81    37    38    2
    82    58    56   ar
    83    44    45    1
    84    57    56   ar
    85    48    45    1
    86    48    49    1
    87    81    82    1
    88    81    80    1
    89    91    90    2
    90    56    55    1
    91    80    70   am
    92    75    77   ar
    93    75    73   ar
    94    45    46    1
    95    72    73    1
    96    72    69    1
    97    77    78   ar
    98    55    52    1
    99    73    74   ar
   100    90    89    1
   101    68    69    1
   102    47    46    2
   103    70    69    1
   104    70    71    2
   105    88    89    1
   106    78    79    1
   107    78    76   ar
   108    89    92    1
   109    74    76   ar
   110    52    53    1
   111    52    51    1
   112    92    93    1
   113    53    54    2
   114    93    95   ar
   115    93    94   ar
