@<TRIPOS>MOLECULE
tmp/6hdoA00.pdb
 148 141 0 0 0
SMALL
GASTEIGER

@<TRIPOS>ATOM
      1  N        -25.4110   44.8260    3.1130 N.3    30  VAL30      -0.1231
      2  CA       -25.3280   45.0810    4.5360 C.3    30  VAL30       0.1692
      3  C        -23.8730   45.1270    5.0350 C.2    30  VAL30       0.2592
      4  O        -23.5680   45.8080    6.0230 O.2    30  VAL30      -0.2718
      5  CB       -26.1920   44.0790    5.3400 C.3    30  VAL30       0.0266
      6  CG1      -25.5960   42.6940    5.3300 C.3    30  VAL30       0.0020
      7  CG2      -26.3630   44.5440    6.7830 C.3    30  VAL30       0.0020
      8  N        -22.9720   44.4880    4.2970 N.am   31  PHE31      -0.1976
      9  CA       -21.5350   44.4920    4.6080 C.3    31  PHE31       0.1639
     10  C        -20.6750   45.5280    3.8640 C.2    31  PHE31       0.2290
     11  O        -19.4660   45.5750    4.0690 O.2    31  PHE31      -0.2864
     12  CB       -20.9670   43.0980    4.3480 C.3    31  PHE31       0.0560
     13  CG       -21.7740   41.9960    4.9560 C.ar   31  PHE31      -0.0200
     14  CD1      -21.9820   41.9450    6.3150 C.ar   31  PHE31      -0.0042
     15  CD2      -22.3290   41.0000    4.1640 C.ar   31  PHE31      -0.0042
     16  CE1      -22.7620   40.9380    6.8910 C.ar   31  PHE31      -0.0003
     17  CE2      -23.0810   39.9610    4.7340 C.ar   31  PHE31      -0.0003
     18  CZ       -23.3010   39.9370    6.1020 C.ar   31  PHE31      -0.0000
     19  N        -19.5590   50.9410    6.6930 N.3    34  PRO34      -0.2102
     20  CA       -19.7300   50.8700    8.1510 C.3    34  PRO34       0.1504
     21  C        -21.2030   51.0450    8.6130 C.2    34  PRO34       0.2576
     22  O        -22.0080   51.7950    8.0090 O.2    34  PRO34      -0.2718
     23  CB       -18.8760   52.0310    8.6700 C.3    34  PRO34       0.0282
     24  CG       -17.9550   52.4040    7.5310 C.3    34  PRO34       0.0208
     25  CD       -18.7510   52.1050    6.2960 C.3    34  PRO34       0.0893
     26  N        -21.5420   50.2790    9.6260 N.am   35  VAL35      -0.1966
     27  CA       -22.8060   50.3780   10.3320 C.3    35  VAL35       0.1727
     28  C        -23.2780   51.8380   10.5480 C.2    35  VAL35       0.2616
     29  O        -22.4870   52.7460   10.8050 O.2    35  VAL35      -0.2715
     30  CB       -22.6720   49.6120   11.6750 C.3    35  VAL35       0.0290
     31  CG1      -23.2270   50.4000   12.8410 C.3    35  VAL35       0.0023
     32  CG2      -23.3150   48.2430   11.5730 C.3    35  VAL35       0.0023
     33  N        -24.5760   52.0540   10.3890 N.am   36  ASP36      -0.1971
     34  CA       -25.1950   53.3350   10.7470 C.3    36  ASP36       0.1709
     35  C        -25.5140   53.2640   12.2570 C.2    36  ASP36       0.2293
     36  O        -26.3900   52.4840   12.6650 O.2    36  ASP36      -0.2864
     37  CB       -26.4520   53.5750    9.8930 C.3    36  ASP36       0.1436
     38  CG       -27.2660   54.8150   10.3210 C.2    36  ASP36       0.3671
     39  OD1      -26.8570   55.5590   11.2440 O.co2  36  ASP36      -0.2456
     40  OD2      -28.3430   55.0400    9.7150 O.co2  36  ASP36      -0.2456
     41  N        -29.0600   53.0490   13.4350 N.3    39  GLU39      -0.1231
     42  CA       -29.7660   51.7970   13.1530 C.3    39  GLU39       0.1699
     43  C        -29.4220   50.6800   14.1500 C.2    39  GLU39       0.2592
     44  O        -30.2170   49.7760   14.3940 O.2    39  GLU39      -0.2718
     45  CB       -29.4110   51.3410   11.7350 C.3    39  GLU39       0.0402
     46  CG       -30.0050   52.2050   10.6500 C.3    39  GLU39       0.1161
     47  CD       -31.4170   51.7840   10.3310 C.2    39  GLU39       0.3649
     48  OE1      -32.3130   52.0580   11.1620 O.co2  39  GLU39      -0.2457
     49  OE2      -31.6220   51.1630    9.2590 O.co2  39  GLU39      -0.2457
     50  N        -28.2000   50.7310   14.6750 N.am   40  VAL40      -0.1980
     51  CA       -27.7060   49.7590   15.6470 C.3    40  VAL40       0.1595
     52  C        -26.8420   50.5030   16.6830 C.2    40  VAL40       0.2287
     53  O        -25.6100   50.4240   16.6640 O.2    40  VAL40      -0.2864
     54  CB       -26.9270   48.6240   14.9480 C.3    40  VAL40       0.0276
     55  CG1      -27.8690   47.5590   14.4140 C.3    40  VAL40       0.0022
     56  CG2      -26.0660   49.1670   13.8150 C.3    40  VAL40       0.0022
     57  N        -23.8410   48.7120   18.4930 N.3    43  TYR43      -0.1241
     58  CA       -22.9060   47.8990   17.7080 C.3    43  TYR43       0.1605
     59  C        -21.4810   48.0670   18.2330 C.2    43  TYR43       0.2264
     60  O        -20.8050   47.0770   18.5450 O.2    43  TYR43      -0.2867
     61  CB       -23.0090   48.2170   16.1960 C.3    43  TYR43       0.0534
     62  CG       -22.3580   47.1960   15.2860 C.ar   43  TYR43      -0.0201
     63  CD1      -23.0110   46.0050   14.9580 C.ar   43  TYR43      -0.0009
     64  CD2      -21.0760   47.4080   14.7620 C.ar   43  TYR43      -0.0009
     65  CE1      -22.4150   45.0610   14.1370 C.ar   43  TYR43       0.0417
     66  CE2      -20.4730   46.4720   13.9320 C.ar   43  TYR43       0.0417
     67  CZ       -21.1500   45.3020   13.6200 C.ar   43  TYR43       0.1957
     68  OH       -20.5790   44.3580   12.7900 O.3    43  TYR43      -0.2866
     69  N        -20.8090   39.4730   12.2360 N.3    82  ALA82      -0.1245
     70  CA       -22.2380   39.2960   11.9370 C.3    82  ALA82       0.1562
     71  C        -22.8080   38.1350   12.7380 C.2    82  ALA82       0.2260
     72  O        -23.9420   38.2410   13.2570 O.2    82  ALA82      -0.2867
     73  CB       -22.4900   39.0980   10.4470 C.3    82  ALA82       0.0290
     74  N        -23.0450   39.4690   16.3700 N.3    85  TYR85      -0.1227
     75  CA       -24.0050   40.5380   16.6620 C.3    85  TYR85       0.1736
     76  C        -25.4690   40.2120   16.3440 C.2    85  TYR85       0.2595
     77  O        -26.3770   40.9060   16.8010 O.2    85  TYR85      -0.2718
     78  CB       -23.6210   41.8110   15.9360 C.3    85  TYR85       0.0548
     79  CG       -24.5320   42.9870   16.2610 C.ar   85  TYR85      -0.0200
     80  CD1      -24.3830   43.7130   17.4490 C.ar   85  TYR85      -0.0009
     81  CD2      -25.5380   43.3780   15.3790 C.ar   85  TYR85      -0.0009
     82  CE1      -25.1840   44.8110   17.7170 C.ar   85  TYR85       0.0417
     83  CE2      -26.3600   44.4680   15.6510 C.ar   85  TYR85       0.0417
     84  CZ       -26.1900   45.1770   16.8180 C.ar   85  TYR85       0.1957
     85  OH       -27.0260   46.2600   17.0770 O.3    85  TYR85      -0.2866
     86  N        -25.6910   39.1740   15.5470 N.am   86  ASN86      -0.1974
     87  CA       -27.0390   38.7490   15.1710 C.3    86  ASN86       0.1688
     88  C        -27.1130   37.2650   15.3490 C.2    86  ASN86       0.2292
     89  O        -27.1580   36.5540   14.3700 O.2    86  ASN86      -0.2864
     90  CB       -27.3640   39.0770   13.6990 C.3    86  ASN86       0.1181
     91  CG       -26.8300   40.4210   13.2560 C.2    86  ASN86       0.2629
     92  OD1      -27.5560   41.4330   13.2520 O.2    86  ASN86      -0.2716
     93  ND2      -25.5390   40.4410   12.8310 N.am   86  ASN86      -0.0877
     94  N        -29.6160   35.3480   16.7870 N.3    88  ASP88      -0.1239
     95  CA       -30.9070   34.7640   17.2610 C.3    88  ASP88       0.1674
     96  C        -31.5320   33.8450   16.2620 C.2    88  ASP88       0.2266
     97  O        -31.0500   33.7150   15.1410 O.2    88  ASP88      -0.2867
     98  CB       -31.9110   35.8460   17.7070 C.3    88  ASP88       0.1410
     99  CG       -31.6210   36.3730   19.1110 C.2    88  ASP88       0.3668
    100  OD1      -31.3690   35.5460   20.0410 O.co2  88  ASP88      -0.2456
    101  OD2      -31.6400   37.6230   19.2620 O.co2  88  ASP88      -0.2456
    102  N        -34.5190   34.4510   15.1470 N.3    90  ASP90      -0.1239
    103  CA       -35.4760   35.2600   14.3630 C.3    90  ASP90       0.1674
    104  C        -35.0030   35.3640   12.8960 C.2    90  ASP90       0.2266
    105  O        -33.8090   35.3590   12.6230 O.2    90  ASP90      -0.2867
    106  CB       -35.6540   36.6370   14.9900 C.3    90  ASP90       0.1410
    107  CG       -34.4340   37.5030   14.8000 C.2    90  ASP90       0.3668
    108  OD1      -33.4080   37.1740   15.4260 O.co2  90  ASP90      -0.2456
    109  OD2      -34.4780   38.4690   13.9950 O.co2  90  ASP90      -0.2456
    110  N        -34.6890   37.6760   10.5970 N.3    92  GLY92      -0.1210
    111  CA       -33.7650   38.7320   10.2640 C.3    92  GLY92       0.1956
    112  C        -32.3180   38.3460   10.5630 C.2    92  GLY92       0.2611
    113  O        -31.4570   38.6530    9.8050 O.2    92  GLY92      -0.2717
    114  N        -32.0700   37.7010   11.6930 N.am   93  ASP93      -0.1973
    115  CA       -30.7400   37.2770   12.0850 C.3    93  ASP93       0.1709
    116  C        -30.2600   36.1160   11.2440 C.2    93  ASP93       0.2293
    117  O        -29.0880   36.0660   10.8380 O.2    93  ASP93      -0.2864
    118  CB       -30.6960   36.8710   13.5680 C.3    93  ASP93       0.1436
    119  CG       -30.7230   38.0670   14.5240 C.2    93  ASP93       0.3671
    120  OD1      -30.8740   39.2250   14.0830 O.co2  93  ASP93      -0.2456
    121  OD2      -30.5760   37.8340   15.7360 O.co2  93  ASP93      -0.2456
    122  N        -31.0910   35.4260    8.2460 N.3    95  LEU95      -0.1231
    123  CA       -30.8780   35.9280    6.8990 C.3    95  LEU95       0.1693
    124  C        -29.4880   36.5730    6.7670 C.2    95  LEU95       0.2591
    125  O        -28.7680   36.3190    5.7920 O.2    95  LEU95      -0.2718
    126  CB       -31.9690   36.9550    6.5000 C.3    95  LEU95       0.0284
    127  CG       -31.7590   37.6130    5.1280 C.3    95  LEU95       0.0019
    128  CD1      -31.6810   36.5870    4.0010 C.3    95  LEU95       0.0001
    129  CD2      -32.8640   38.5910    4.8310 C.3    95  LEU95       0.0001
    130  N        -29.1530   37.4410    7.7130 N.am   96  ILE96      -0.1980
    131  CA       -27.8370   38.1010    7.7050 C.3    96  ILE96       0.1595
    132  C        -26.6720   37.1220    8.0380 C.2    96  ILE96       0.2287
    133  O        -25.5870   37.2620    7.5130 O.2    96  ILE96      -0.2864
    134  CB       -27.8290   39.3310    8.6280 C.3    96  ILE96       0.0276
    135  CG1      -26.5260   40.0980    8.4760 C.3    96  ILE96       0.0022
    136  CG2      -28.0240   38.9280   10.0890 C.3    96  ILE96       0.0022
    137  CD1      -26.5870   41.5160    9.0480 C.3    96  ILE96       0.0001
    138  N        -26.0000   35.2940    4.8330 N.3    99  ARG99      -0.1245
    139  CA       -25.3120   36.1960    3.9430 C.3    99  ARG99       0.1563
    140  C        -23.8730   36.4460    4.3530 C.2    99  ARG99       0.2260
    141  O        -22.9960   36.5500    3.4900 O.2    99  ARG99      -0.2867
    142  CB       -26.0320   37.5280    3.9430 C.3    99  ARG99       0.0307
    143  CG       -27.3060   37.4660    3.1600 C.3    99  ARG99       0.0489
    144  CD       -28.0980   38.7490    3.2930 C.3    99  ARG99       0.2205
    145  NE       -29.2040   38.7390    2.3290 N.pl3  99  ARG99      -0.0865
    146  CZ       -30.1460   39.6580    2.2540 C.cat  99  ARG99       0.5346
    147  NH1      -30.1200   40.6970    3.0760 N.pl3  99  ARG99       0.1354
    148  NH2      -31.1110   39.5350    1.3440 N.pl3  99  ARG99       0.1354
@<TRIPOS>BOND
     1   148   146    1
     2   146   145    2
     3   146   147    1
     4   145   144    1
     5     1     2    1
     6   143   144    1
     7   143   142    1
     8   141   140    2
     9    10    11    2
    10    10     9    1
    11   139   142    1
    12   139   140    1
    13   139   138    1
    14   128   127    1
    15    15    17   ar
    16    15    13   ar
    17     8     9    1
    18     8     3   am
    19    12     9    1
    20    12    13    1
    21     2     3    1
    22     2     5    1
    23    17    18   ar
    24   129   127    1
    25    13    14   ar
    26     3     4    2
    27   127   126    1
    28     6     5    1
    29     5     7    1
    30   125   124    2
    31    18    16   ar
    32    25    19    1
    33    25    24    1
    34    14    16   ar
    35   126   123    1
    36    19    20    1
    37   124   123    1
    38   124   130   am
    39   123   122    1
    40   133   132    2
    41    24    23    1
    42   131   130    1
    43   131   132    1
    44   131   134    1
    45    22    21    2
    46    20    21    1
    47    20    23    1
    48   135   134    1
    49   135   137    1
    50    21    26   am
    51   134   136    1
    52    49    47   ar
    53    26    27    1
    54    40    38   ar
    55   113   112    2
    56    37    38    1
    57    37    34    1
    58   111   112    1
    59   111   110    1
    60    38    39   ar
    61    47    46    1
    62    47    48   ar
    63    27    28    1
    64    27    30    1
    65    33    28   am
    66    33    34    1
    67    73    70    1
    68    28    29    2
    69   112   114   am
    70    46    45    1
    71    34    35    1
    72   117   116    2
    73   116   115    1
    74    32    30    1
    75    30    31    1
    76   114   115    1
    77    45    42    1
    78    70    69    1
    79    70    71    1
    80   115   118    1
    81    35    36    2
    82   105   104    2
    83    71    72    2
    84    68    67    1
    85    93    91   am
    86   104   103    1
    87    42    41    1
    88    42    43    1
    89    92    91    2
    90    91    90    1
    91   118   119    1
    92    67    66   ar
    93    67    65   ar
    94    90    87    1
    95    56    54    1
    96    66    64   ar
    97   109   107   ar
    98   120   119   ar
    99    65    63   ar
   100    43    44    2
   101    43    50   am
   102   103   106    1
   103   103   102    1
   104    89    88    2
   105    55    54    1
   106   119   121   ar
   107    50    51    1
   108    64    62   ar
   109   107   106    1
   110   107   108   ar
   111    54    51    1
   112    63    62   ar
   113    97    96    2
   114    87    88    1
   115    87    86    1
   116    62    61    1
   117    81    83   ar
   118    81    79   ar
   119    86    76   am
   120    51    52    1
   121    83    84   ar
   122    78    79    1
   123    78    75    1
   124    61    58    1
   125    79    80   ar
   126    96    95    1
   127    76    75    1
   128    76    77    2
   129    74    75    1
   130    53    52    2
   131    94    95    1
   132    84    85    1
   133    84    82   ar
   134    95    98    1
   135    80    82   ar
   136    98    99    1
   137    58    59    1
   138    58    57    1
   139    59    60    2
   140    99   101   ar
   141    99   100   ar
