@<TRIPOS>MOLECULE
tmp/6hdqA00.pdb
 157 154 0 0 0
SMALL
GASTEIGER

@<TRIPOS>ATOM
      1  N         18.1830    4.4850   13.6900 N.3    38  TRP38      -0.1228
      2  CA        19.5830    4.7420   14.0570 C.3    38  TRP38       0.1722
      3  C         20.4020    5.6330   13.0990 C.2    38  TRP38       0.2437
      4  O         21.2320    6.4080   13.5750 O.2    38  TRP38      -0.2733
      5  CB        20.3100    3.4290   14.3600 C.3    38  TRP38       0.0563
      6  CG        19.6400    2.2810   13.7390 C.ar   38  TRP38       0.0003
      7  CD1       18.5130    1.6550   14.1710 C.ar   38  TRP38       0.0946
      8  CD2       20.0290    1.6300   12.5370 C.ar   38  TRP38       0.0152
      9  NE1       18.1810    0.6390   13.3120 N.ar   38  TRP38      -0.2442
     10  CE2       19.0990    0.6060   12.2960 C.ar   38  TRP38       0.0810
     11  CE3       21.0790    1.8130   11.6400 C.ar   38  TRP38       0.0012
     12  CZ2       19.1920   -0.2350   11.1960 C.ar   38  TRP38       0.0191
     13  CZ3       21.1690    0.9880   10.5590 C.ar   38  TRP38       0.0001
     14  CH2       20.2240   -0.0200   10.3350 C.ar   38  TRP38       0.0015
     15  N         20.1620    5.5700   11.7680 N.am   39  PRO39      -0.2718
     16  CA        20.9310    6.5160   10.9220 C.3    39  PRO39       0.1535
     17  C         20.5580    7.9990   11.1000 C.2    39  PRO39       0.2598
     18  O         21.2790    8.8690   10.6280 O.2    39  PRO39      -0.2715
     19  CB        20.6180    6.0630    9.4870 C.3    39  PRO39       0.0310
     20  CG        19.9380    4.7430    9.6110 C.3    39  PRO39       0.0237
     21  CD        19.2520    4.7550   10.9390 C.3    39  PRO39       0.0939
     22  N         19.4440    8.2620   11.7750 N.am   40  PHE40      -0.1974
     23  CA        18.9140    9.6010   11.9580 C.3    40  PHE40       0.1639
     24  C         19.0250   10.1220   13.3900 C.2    40  PHE40       0.2290
     25  O         18.5370   11.2110   13.6890 O.2    40  PHE40      -0.2864
     26  CB        17.4460    9.5870   11.5360 C.3    40  PHE40       0.0560
     27  CG        17.2290    9.0400   10.1530 C.ar   40  PHE40      -0.0200
     28  CD1       17.5050    9.8160    9.0420 C.ar   40  PHE40      -0.0042
     29  CD2       16.7740    7.7410    9.9650 C.ar   40  PHE40      -0.0042
     30  CE1       17.3190    9.3170    7.7660 C.ar   40  PHE40      -0.0003
     31  CE2       16.5890    7.2390    8.6910 C.ar   40  PHE40      -0.0003
     32  CZ        16.8590    8.0290    7.5920 C.ar   40  PHE40      -0.0000
     33  N         21.7470   10.9800   15.1110 N.3    42  GLN42      -0.1231
     34  CA        22.8730   11.8610   15.3560 C.3    42  GLN42       0.1683
     35  C         23.2800   12.4990   14.0420 C.2    42  GLN42       0.2434
     36  O         22.8800   12.0310   12.9810 O.2    42  GLN42      -0.2733
     37  CB        24.0530   11.0770   15.9570 C.3    42  GLN42       0.0380
     38  CG        24.5810    9.9420   15.0840 C.3    42  GLN42       0.0905
     39  CD        23.6430    8.7410   15.0370 C.2    42  GLN42       0.2608
     40  OE1       23.2480    8.2130   16.0750 O.2    42  GLN42      -0.2717
     41  NE2       23.2790    8.3070   13.8310 N.am   42  GLN42      -0.0878
     42  N         24.0660   13.5770   14.1020 N.am   43  PRO43      -0.2718
     43  CA        24.5700   14.1490   12.8710 C.3    43  PRO43       0.1535
     44  C         25.2970   13.1150   12.0230 C.2    43  PRO43       0.2598
     45  O         25.9730   12.2340   12.5670 O.2    43  PRO43      -0.2715
     46  CB        25.5450   15.2180   13.3640 C.3    43  PRO43       0.0310
     47  CG        24.9800   15.6450   14.6750 C.3    43  PRO43       0.0237
     48  CD        24.4620   14.3740   15.2790 C.3    43  PRO43       0.0939
     49  N         25.1440   13.2170   10.7070 N.am   44  VAL44      -0.1964
     50  CA        25.8870   12.3640    9.7820 C.3    44  VAL44       0.1727
     51  C         27.3900   12.6310    9.9360 C.2    44  VAL44       0.2616
     52  O         27.8510   13.7590    9.7250 O.2    44  VAL44      -0.2715
     53  CB        25.4420   12.6080    8.3260 C.3    44  VAL44       0.0290
     54  CG1       26.3160   11.8320    7.3500 C.3    44  VAL44       0.0023
     55  CG2       23.9750   12.2280    8.1440 C.3    44  VAL44       0.0023
     56  N         28.1450   11.6020   10.3300 N.am   45  ASP45      -0.1971
     57  CA        29.6060   11.7100   10.4170 C.3    45  ASP45       0.1709
     58  C         30.1830   11.3260    9.0630 C.2    45  ASP45       0.2293
     59  O         30.4990   10.1600    8.8130 O.2    45  ASP45      -0.2864
     60  CB        30.1810   10.8250   11.5320 C.3    45  ASP45       0.1436
     61  CG        31.6470   11.1520   11.8520 C.2    45  ASP45       0.3671
     62  OD1       32.4020   11.5770   10.9450 O.co2  45  ASP45      -0.2456
     63  OD2       32.0540   10.9900   13.0220 O.co2  45  ASP45      -0.2456
     64  N         32.0710    7.7840    8.0420 N.3    49  LEU49      -0.1245
     65  CA        31.2920    6.9080    7.1630 C.3    49  LEU49       0.1561
     66  C         31.6890    7.0420    5.6950 C.2    49  LEU49       0.2260
     67  O         31.0220    6.4930    4.8180 O.2    49  LEU49      -0.2867
     68  CB        29.8000    7.1930    7.3360 C.3    49  LEU49       0.0270
     69  CG        29.2660    6.8150    8.7180 C.3    49  LEU49       0.0019
     70  CD1       27.9980    7.5900    9.0250 C.3    49  LEU49       0.0001
     71  CD2       29.0280    5.3140    8.8170 C.3    49  LEU49       0.0001
     72  N         31.7730    9.6590    3.4590 N.3    51  LEU51      -0.1245
     73  CA        30.8270   10.3900    2.6250 C.3    51  LEU51       0.1561
     74  C         31.3710   11.8040    2.4020 C.2    51  LEU51       0.2260
     75  O         30.7790   12.7800    2.8720 O.2    51  LEU51      -0.2867
     76  CB        29.4540   10.4600    3.3080 C.3    51  LEU51       0.0270
     77  CG        28.7610    9.1490    3.6760 C.3    51  LEU51       0.0019
     78  CD1       27.5270    9.4120    4.5290 C.3    51  LEU51       0.0001
     79  CD2       28.3840    8.3630    2.4310 C.3    51  LEU51       0.0001
     80  N         29.0190   14.8000    1.5130 N.3    54  TYR54      -0.1241
     81  CA        27.7280   14.9760    2.1970 C.3    54  TYR54       0.1605
     82  C         27.4660   16.4350    2.5330 C.2    54  TYR54       0.2264
     83  O         26.3870   16.9430    2.2640 O.2    54  TYR54      -0.2867
     84  CB        27.6050   14.1240    3.4580 C.3    54  TYR54       0.0534
     85  CG        26.2230   14.2090    4.0740 C.ar   54  TYR54      -0.0201
     86  CD1       25.1920   13.3790    3.6350 C.ar   54  TYR54      -0.0009
     87  CD2       25.9320   15.1430    5.0700 C.ar   54  TYR54      -0.0009
     88  CE1       23.9220   13.4570    4.1820 C.ar   54  TYR54       0.0417
     89  CE2       24.6600   15.2250    5.6240 C.ar   54  TYR54       0.0417
     90  CZ        23.6570   14.3800    5.1740 C.ar   54  TYR54       0.1957
     91  OH        22.3840   14.4590    5.7010 O.3    54  TYR54      -0.2866
     92  N         15.0970   17.0250    8.1060 N.3    89  MET89      -0.1245
     93  CA        15.7880   15.7420    8.2440 C.3    89  MET89       0.1570
     94  C         15.3570   14.7740    7.1320 C.2    89  MET89       0.2261
     95  O         16.2000   14.1710    6.4730 O.2    89  MET89      -0.2867
     96  CB        15.5070   15.1350    9.6150 C.3    89  MET89       0.0387
     97  CG        16.2030   13.8070    9.8530 C.3    89  MET89       0.0595
     98  SD        15.8440   13.1990   11.5010 S.3    89  MET89      -0.1393
     99  CE        14.1470   12.6690   11.3260 C.3    89  MET89       0.0692
    100  N         17.5880   13.5400    3.4870 N.3    93  CYS93      -0.1235
    101  CA        17.7780   12.1530    3.0990 C.3    93  CYS93       0.1677
    102  C         17.3400   11.9480    1.6430 C.2    93  CYS93       0.2270
    103  O         18.0570   11.3340    0.8600 O.2    93  CYS93      -0.2867
    104  CB        17.0050   11.2430    4.0350 C.3    93  CYS93       0.0956
    105  SG        17.3730    9.5060    3.7350 S.3    93  CYS93      -0.0801
    106  N         20.0490   13.7940   -0.6450 N.3    96  TYR96      -0.1227
    107  CA        21.3830   13.2230   -0.7610 C.3    96  TYR96       0.1736
    108  C         21.3620   11.8690   -1.4700 C.2    96  TYR96       0.2595
    109  O         22.3320   11.4840   -2.1350 O.2    96  TYR96      -0.2718
    110  CB        22.0480   13.1030    0.6160 C.3    96  TYR96       0.0548
    111  CG        23.4570   12.5520    0.5310 C.ar   96  TYR96      -0.0200
    112  CD1       24.4860   13.3070   -0.0280 C.ar   96  TYR96      -0.0009
    113  CD2       23.7550   11.2730    0.9910 C.ar   96  TYR96      -0.0009
    114  CE1       25.7750   12.8040   -0.1280 C.ar   96  TYR96       0.0417
    115  CE2       25.0430   10.7630    0.8960 C.ar   96  TYR96       0.0417
    116  CZ        26.0490   11.5350    0.3400 C.ar   96  TYR96       0.1957
    117  OH        27.3300   11.0260    0.2510 O.3    96  TYR96      -0.2866
    118  N         20.2490   11.1610   -1.3290 N.am   97  ASN97      -0.1974
    119  CA        20.1080    9.8130   -1.8700 C.3    97  ASN97       0.1688
    120  C         19.1710    9.8380   -3.0800 C.2    97  ASN97       0.2292
    121  O         18.7200   10.9070   -3.4930 O.2    97  ASN97      -0.2864
    122  CB        19.6220    8.8810   -0.7590 C.3    97  ASN97       0.1181
    123  CG        20.5810    8.8430    0.4200 C.2    97  ASN97       0.2629
    124  OD1       21.6420    8.2360    0.3360 O.2    97  ASN97      -0.2716
    125  ND2       20.2280    9.5080    1.5130 N.am   97  ASN97      -0.0877
    126  N         16.0860    4.2350   -2.9670 N.3   101  ASP101     -0.1225
    127  CA        17.2170    3.7540   -2.1650 C.3   101  ASP101      0.1805
    128  C         16.7190    3.2440   -0.8170 C.2   101  ASP101      0.2598
    129  O         15.6870    3.6960   -0.3190 O.2   101  ASP101     -0.2718
    130  CB        18.2530    4.8660   -1.9260 C.3   101  ASP101      0.1424
    131  CG        19.1210    5.1450   -3.1390 C.2   101  ASP101      0.3668
    132  OD1       18.9840    4.4350   -4.1630 O.co2 101  ASP101     -0.2456
    133  OD2       19.9510    6.0820   -3.0590 O.co2 101  ASP101     -0.2456
    134  N         17.4570    2.3070   -0.2280 N.am  102  ASP102     -0.1960
    135  CA        17.0600    1.7170    1.0550 C.3   102  ASP102      0.1840
    136  C         16.8980    2.7550    2.1660 C.2   102  ASP102      0.2621
    137  O         15.8840    2.7500    2.8690 O.2   102  ASP102     -0.2715
    138  CB        18.0570    0.6390    1.4910 C.3   102  ASP102      0.1450
    139  CG        17.9570   -0.6310    0.6460 C.2   102  ASP102      0.3671
    140  OD1       16.8880   -0.8900    0.0540 O.co2 102  ASP102     -0.2456
    141  OD2       18.9500   -1.3740    0.5780 O.co2 102  ASP102     -0.2456
    142  N         17.8810    3.6380    2.3220 N.am  103  ILE103     -0.1977
    143  CA        17.8060    4.6860    3.3610 C.3   103  ILE103      0.1596
    144  C         16.6170    5.6170    3.1190 C.2   103  ILE103      0.2287
    145  O         16.0010    6.0880    4.0670 O.2   103  ILE103     -0.2864
    146  CB        19.1300    5.4820    3.5030 C.3   103  ILE103      0.0276
    147  CG1       19.1120    6.4090    4.7380 C.3   103  ILE103      0.0022
    148  CG2       19.4300    6.3100    2.2600 C.3   103  ILE103      0.0022
    149  CD1       19.1950    5.7100    6.0700 C.3   103  ILE103      0.0001
    150  N         13.5490    3.8870    4.3810 N.3   106  MET106     -0.1245
    151  CA        13.5560    3.9860    5.8450 C.3   106  MET106      0.1570
    152  C         13.0560    5.3620    6.2960 C.2   106  MET106      0.2261
    153  O         12.2250    5.4710    7.2010 O.2   106  MET106     -0.2867
    154  CB        14.9630    3.7580    6.3810 C.3   106  MET106      0.0387
    155  CG        15.4710    2.3370    6.1840 C.3   106  MET106      0.0595
    156  SD        17.2480    2.2070    6.3910 S.3   106  MET106     -0.1393
    157  CE        17.4410    2.4390    8.1500 C.3   106  MET106      0.0692
@<TRIPOS>BOND
     1   132   131   ar
     2   121   120    2
     3   131   133   ar
     4   131   130    1
     5   120   119    1
     6   126   127    1
     7   127   130    1
     8   127   128    1
     9   109   108    2
    10   119   118    1
    11   119   122    1
    12   108   118   am
    13   108   107    1
    14   128   129    2
    15   128   134   am
    16   107   106    1
    17   107   110    1
    18   122   123    1
    19   134   135    1
    20   114   112   ar
    21   114   116   ar
    22   112   111   ar
    23   140   139   ar
    24   117   116    1
    25   124   123    2
    26   116   115   ar
    27   123   125   am
    28   111   110    1
    29   111   113   ar
    30   141   139   ar
    31   139   138    1
    32   103   102    2
    33   115   113   ar
    34   135   138    1
    35   135   136    1
    36    80    81    1
    37   102   101    1
    38   136   142   am
    39   136   137    2
    40    81    82    1
    41    81    84    1
    42   148   146    1
    43    83    82    2
    44   142   143    1
    45    74    73    1
    46    74    75    2
    47    79    77    1
    48    73    76    1
    49    73    72    1
    50   101   100    1
    51   101   104    1
    52   144   143    1
    53   144   145    2
    54    76    77    1
    55   143   146    1
    56    84    85    1
    57   146   147    1
    58    86    85   ar
    59    86    88   ar
    60    77    78    1
    61   105   104    1
    62    85    87   ar
    63    88    90   ar
    64   150   151    1
    65   147   149    1
    66    67    66    2
    67    87    89   ar
    68    90    89   ar
    69    90    91    1
    70    66    65    1
    71   151   152    1
    72   151   154    1
    73   155   154    1
    74   155   156    1
    75   152   153    2
    76   156   157    1
    77    95    94    2
    78    94    93    1
    79    65    68    1
    80    65    64    1
    81    68    69    1
    82    54    53    1
    83    32    30   ar
    84    32    31   ar
    85    30    28   ar
    86    92    93    1
    87    55    53    1
    88    93    96    1
    89    53    50    1
    90    31    29   ar
    91    69    71    1
    92    69    70    1
    93    59    58    2
    94    28    27   ar
    95    58    57    1
    96    19    20    1
    97    19    16    1
    98    20    21    1
    99    96    97    1
   100    52    51    2
   101    50    51    1
   102    50    49    1
   103    97    98    1
   104    51    56   am
   105    29    27   ar
   106    27    26    1
   107    56    57    1
   108    14    13   ar
   109    14    12   ar
   110    57    60    1
   111    13    11   ar
   112    18    17    2
   113    49    44   am
   114    16    17    1
   115    16    15    1
   116    21    15    1
   117    62    61   ar
   118    17    22   am
   119    12    10   ar
   120    99    98    1
   121    60    61    1
   122    26    23    1
   123    11     8   ar
   124    15     3   am
   125    22    23    1
   126    61    63   ar
   127    23    24    1
   128    44    45    2
   129    44    43    1
   130    10     8   ar
   131    10     9   ar
   132     8     6   ar
   133    43    46    1
   134    43    42    1
   135    36    35    2
   136     3     4    2
   137     3     2    1
   138     9     7   ar
   139    46    47    1
   140    24    25    2
   141     1     2    1
   142     6     7   ar
   143     6     5    1
   144    41    39   am
   145    35    42   am
   146    35    34    1
   147     2     5    1
   148    42    48    1
   149    47    48    1
   150    39    38    1
   151    39    40    2
   152    38    37    1
   153    33    34    1
   154    34    37    1
