@<TRIPOS>MOLECULE
tmp/6hdtA00.pdb
 151 144 0 0 0
SMALL
GASTEIGER

@<TRIPOS>ATOM
      1  N        -11.8420    7.0350    3.7490 N.3    23  ASN23      -0.1240
      2  CA       -11.5320    7.6680    2.4740 C.3    23  ASN23       0.1653
      3  C        -11.3690    9.1850    2.6200 C.2    23  ASN23       0.2266
      4  O        -11.4130    9.7130    3.7290 O.2    23  ASN23      -0.2867
      5  CB       -12.4900    7.2340    1.3620 C.3    23  ASN23       0.1155
      6  CG       -13.8220    7.9260    1.4310 C.2    23  ASN23       0.2627
      7  OD1      -13.9730    8.9200    2.1130 O.2    23  ASN23      -0.2716
      8  ND2      -14.7970    7.4020    0.7040 N.am   23  ASN23      -0.0877
      9  N        -13.1710   11.6550    1.8280 N.3    25  ASP25      -0.1239
     10  CA       -14.3230   12.3660    2.3170 C.3    25  ASP25       0.1674
     11  C        -14.7400   11.9450    3.7150 C.2    25  ASP25       0.2266
     12  O        -15.7820   12.3720    4.1870 O.2    25  ASP25      -0.2867
     13  CB       -15.4970   12.1850    1.3620 C.3    25  ASP25       0.1410
     14  CG       -15.2650   12.8830    0.0360 C.2    25  ASP25       0.3668
     15  OD1      -14.9290   14.0880    0.0580 O.co2  25  ASP25      -0.2456
     16  OD2      -15.4060   12.2270   -1.0140 O.co2  25  ASP25      -0.2456
     17  N        -15.6340    8.9150    4.7420 N.3    27  SER27      -0.1217
     18  CA       -16.4090    7.6680    4.8170 C.3    27  SER27       0.1889
     19  C        -15.4650    6.6060    5.3910 C.2    27  SER27       0.2288
     20  O        -14.2290    6.6780    5.2180 O.2    27  SER27      -0.2866
     21  CB       -17.0220    7.2580    3.4770 C.3    27  SER27       0.2089
     22  OG       -17.8910    8.2910    3.0160 O.3    27  SER27      -0.2183
     23  N        -19.9350   -0.3900    5.4950 N.3    43  TYR43      -0.1241
     24  CA       -19.5480    0.8920    4.9550 C.3    43  TYR43       0.1605
     25  C        -20.3550    1.9960    5.5630 C.2    43  TYR43       0.2264
     26  O        -21.5800    1.9090    5.6300 O.2    43  TYR43      -0.2867
     27  CB       -19.7370    0.9060    3.4430 C.3    43  TYR43       0.0534
     28  CG       -18.9280    1.9580    2.7240 C.ar   43  TYR43      -0.0201
     29  CD1      -19.4040    3.2510    2.5710 C.ar   43  TYR43      -0.0009
     30  CD2      -17.6840    1.6430    2.1770 C.ar   43  TYR43      -0.0009
     31  CE1      -18.6540    4.2260    1.8970 C.ar   43  TYR43       0.0417
     32  CE2      -16.9360    2.5980    1.5100 C.ar   43  TYR43       0.0417
     33  CZ       -17.4310    3.8910    1.3570 C.ar   43  TYR43       0.1957
     34  OH       -16.7140    4.8670    0.7210 O.3    43  TYR43      -0.2866
     35  N        -21.0990    5.8600    4.9640 N.3    45  ASN45      -0.1240
     36  CA       -20.9840    6.9970    4.0690 C.3    45  ASN45       0.1653
     37  C        -21.0380    8.3110    4.8470 C.2    45  ASN45       0.2266
     38  O        -21.9680    8.5430    5.6220 O.2    45  ASN45      -0.2867
     39  CB       -22.0640    6.9290    2.9860 C.3    45  ASN45       0.1155
     40  CG       -22.1690    8.1970    2.1850 C.2    45  ASN45       0.2627
     41  OD1      -21.1620    8.7720    1.7990 O.2    45  ASN45      -0.2716
     42  ND2      -23.4060    8.6420    1.9140 N.am   45  ASN45      -0.0877
     43  N        -19.8460   11.1850    2.9370 N.3    47  ALA47      -0.1245
     44  CA       -19.6170   12.1360    1.8600 C.3    47  ALA47       0.1562
     45  C        -20.7870   13.1020    1.6560 C.2    47  ALA47       0.2260
     46  O        -21.9520   12.6850    1.5980 O.2    47  ALA47      -0.2867
     47  CB       -19.3190   11.4250    0.5630 C.3    47  ALA47       0.0290
     48  N        -24.6370   13.2720   -0.9600 N.3    50  PHE50      -0.1227
     49  CA       -25.2130   11.9620   -1.0740 C.3    50  PHE50       0.1736
     50  C        -26.1190   11.7340    0.1400 C.2    50  PHE50       0.2596
     51  O        -25.9500   12.3580    1.2190 O.2    50  PHE50      -0.2718
     52  CB       -24.1070   10.9000   -1.0680 C.3    50  PHE50       0.0547
     53  CG       -23.1890   10.9670   -2.2570 C.ar   50  PHE50      -0.0202
     54  CD1      -23.5080   10.3250   -3.4450 C.ar   50  PHE50      -0.0042
     55  CD2      -22.0060   11.6780   -2.1850 C.ar   50  PHE50      -0.0042
     56  CE1      -22.6540   10.3920   -4.5340 C.ar   50  PHE50      -0.0003
     57  CE2      -21.1390   11.7510   -3.2720 C.ar   50  PHE50      -0.0003
     58  CZ       -21.4540   11.1050   -4.4390 C.ar   50  PHE50      -0.0000
     59  N        -27.0770   10.8280   -0.0360 N.am   51  GLY51      -0.1957
     60  CA       -27.9090   10.3670    1.0600 C.3    51  GLY51       0.1869
     61  C        -27.3090    9.2000    1.8150 C.2    51  GLY51       0.2309
     62  O        -26.1180    8.8560    1.6160 O.2    51  GLY51      -0.2863
     63  N        -27.6320    0.4050   -0.9870 N.3    74  TRP74      -0.1241
     64  CA       -27.9550    1.4510   -0.0070 C.3    74  TRP74       0.1605
     65  C        -29.3490    1.2580    0.5880 C.2    74  TRP74       0.2264
     66  O        -30.2350    2.0780    0.3850 O.2    74  TRP74      -0.2867
     67  CB       -27.7370    2.8430   -0.6110 C.3    74  TRP74       0.0550
     68  CG       -26.2940    3.0170   -1.0030 C.ar   74  TRP74       0.0003
     69  CD1      -25.7700    2.9400   -2.2420 C.ar   74  TRP74       0.0946
     70  CD2      -25.1930    3.2340   -0.1080 C.ar   74  TRP74       0.0152
     71  NE1      -24.3600    3.0910   -2.1950 N.ar   74  TRP74      -0.2442
     72  CE2      -24.0100    3.3060   -0.8940 C.ar   74  TRP74       0.0810
     73  CE3      -25.1000    3.4500    1.2730 C.ar   74  TRP74       0.0012
     74  CZ2      -22.7600    3.5180   -0.3280 C.ar   74  TRP74       0.0191
     75  CZ3      -23.8470    3.6400    1.8250 C.ar   74  TRP74       0.0001
     76  CH2      -22.7120    3.7070    1.0200 C.ar   74  TRP74       0.0015
     77  N        -31.6410    4.6150   -0.1220 N.3    81  CYS81      -0.1235
     78  CA       -31.3550    5.5600   -1.2000 C.3    81  CYS81       0.1677
     79  C        -31.6090    4.9990   -2.6240 C.2    81  CYS81       0.2270
     80  O        -31.3350    5.6760   -3.6130 O.2    81  CYS81      -0.2867
     81  CB       -29.9200    6.0740   -1.0330 C.3    81  CYS81       0.0956
     82  SG       -29.7720    7.1050    0.4340 S.3    81  CYS81      -0.0801
     83  N        -30.2220    2.6130   -4.6310 N.3    83  SER83      -0.1217
     84  CA       -28.9820    2.7460   -5.3640 C.3    83  SER83       0.1889
     85  C        -28.0290    1.6750   -4.8820 C.2    83  SER83       0.2288
     86  O        -28.2040    1.1260   -3.7960 O.2    83  SER83      -0.2866
     87  CB       -28.3560    4.1130   -5.0850 C.3    83  SER83       0.2089
     88  OG       -28.1910    4.2960   -3.6870 O.3    83  SER83      -0.2183
     89  N        -23.5940    0.8890   -5.0860 N.3    85  THR85      -0.1218
     90  CA       -22.2100    1.2520   -5.5290 C.3    85  THR85       0.1862
     91  C        -21.2950    0.0280   -5.5350 C.2    85  THR85       0.2287
     92  O        -21.3970   -0.8490   -4.6880 O.2    85  THR85      -0.2866
     93  CB       -21.6040    2.3120   -4.5740 C.3    85  THR85       0.1770
     94  OG1      -22.4740    3.4360   -4.4480 O.3    85  THR85      -0.2211
     95  CG2      -20.2320    2.8010   -4.9900 C.3    85  THR85       0.0375
     96  N        -16.9720   -0.6440   -5.7790 N.3    87  TRP87      -0.1241
     97  CA       -15.6530   -0.0780   -5.8480 C.3    87  TRP87       0.1605
     98  C        -14.7320   -1.1560   -6.3670 C.2    87  TRP87       0.2264
     99  O        -14.9260   -2.3270   -6.0570 O.2    87  TRP87      -0.2867
    100  CB       -15.1640    0.2860   -4.4490 C.3    87  TRP87       0.0550
    101  CG       -15.7640    1.4590   -3.7780 C.ar   87  TRP87       0.0003
    102  CD1      -15.2060    2.6890   -3.6240 C.ar   87  TRP87       0.0946
    103  CD2      -17.0160    1.4960   -3.1040 C.ar   87  TRP87       0.0152
    104  NE1      -16.0410    3.5010   -2.9150 N.ar   87  TRP87      -0.2442
    105  CE2      -17.1640    2.7930   -2.5780 C.ar   87  TRP87       0.0810
    106  CE3      -18.0280    0.5530   -2.8830 C.ar   87  TRP87       0.0012
    107  CZ2      -18.2700    3.1690   -1.8310 C.ar   87  TRP87       0.0191
    108  CZ3      -19.1510    0.9460   -2.1490 C.ar   87  TRP87       0.0001
    109  CH2      -19.2640    2.2270   -1.6440 C.ar   87  TRP87       0.0015
    110  N        -15.1490    3.8890   -8.5480 N.3   104  TRP104     -0.1241
    111  CA       -16.4570    3.3580   -8.1880 C.3   104  TRP104      0.1605
    112  C        -17.4660    3.8020   -9.1660 C.2   104  TRP104      0.2264
    113  O        -17.3050    4.8420   -9.8110 O.2   104  TRP104     -0.2867
    114  CB       -16.8890    3.7770   -6.7730 C.3   104  TRP104      0.0550
    115  CG       -16.8640    5.2630   -6.4380 C.ar  104  TRP104      0.0003
    116  CD1      -15.8860    5.9280   -5.7230 C.ar  104  TRP104      0.0946
    117  CD2      -17.8610    6.2580   -6.7590 C.ar  104  TRP104      0.0152
    118  NE1      -16.1970    7.2470   -5.6080 N.ar  104  TRP104     -0.2442
    119  CE2      -17.4140    7.4800   -6.2100 C.ar  104  TRP104      0.0810
    120  CE3      -19.1110    6.2330   -7.4330 C.ar  104  TRP104      0.0012
    121  CZ2      -18.1190    8.6610   -6.3400 C.ar  104  TRP104      0.0191
    122  CZ3      -19.8220    7.4300   -7.5500 C.ar  104  TRP104      0.0001
    123  CH2      -19.3250    8.6180   -7.0090 C.ar  104  TRP104      0.0015
    124  N        -21.9020    3.9900   -9.3130 N.3   106  LEU106     -0.1245
    125  CA       -23.0810    4.0410   -8.4740 C.3   106  LEU106      0.1561
    126  C        -24.3040    4.0880   -9.3730 C.2   106  LEU106      0.2260
    127  O        -24.4990    5.0720  -10.0860 O.2   106  LEU106     -0.2867
    128  CB       -23.0430    5.3070   -7.6460 C.3   106  LEU106      0.0270
    129  CG       -24.1040    5.6040   -6.5830 C.3   106  LEU106      0.0019
    130  CD1      -23.5650    6.7320   -5.7270 C.3   106  LEU106      0.0001
    131  CD2      -25.4690    5.9880   -7.1460 C.3   106  LEU106      0.0001
    132  N        -28.2400    4.4250   -9.9350 N.3   108  TYR108     -0.1241
    133  CA       -29.3240    5.1020   -9.2330 C.3   108  TYR108      0.1605
    134  C        -30.3990    5.4310  -10.2320 C.2   108  TYR108      0.2264
    135  O        -30.2480    5.2380  -11.4500 O.2   108  TYR108     -0.2867
    136  CB       -28.8350    6.3820   -8.5330 C.3   108  TYR108      0.0534
    137  CG       -28.3640    7.4630   -9.4750 C.ar  108  TYR108     -0.0201
    138  CD1      -27.1660    7.3430  -10.1350 C.ar  108  TYR108     -0.0009
    139  CD2      -29.1400    8.6010   -9.7460 C.ar  108  TYR108     -0.0009
    140  CE1      -26.7410    8.2970  -11.0350 C.ar  108  TYR108      0.0417
    141  CE2      -28.7070    9.5740  -10.6390 C.ar  108  TYR108      0.0417
    142  CZ       -27.4940    9.4140  -11.2850 C.ar  108  TYR108      0.1957
    143  OH       -27.0160   10.3530  -12.1900 O.3   108  TYR108     -0.2866
    144  N        -12.2760    6.9120   -5.0210 N.3   121  ASP121     -0.1239
    145  CA       -12.0100    7.0070   -3.5940 C.3   121  ASP121      0.1674
    146  C        -10.6410    6.3690   -3.3110 C.2   121  ASP121      0.2266
    147  O        -10.3070    5.2900   -3.8510 O.2   121  ASP121     -0.2867
    148  CB       -13.0260    6.2470   -2.7320 C.3   121  ASP121      0.1410
    149  CG       -14.3810    6.9190   -2.6370 C.2   121  ASP121      0.3668
    150  OD1      -14.5070    8.1200   -2.9920 O.co2 121  ASP121     -0.2456
    151  OD2      -15.3360    6.2090   -2.1980 O.co2 121  ASP121     -0.2456
@<TRIPOS>BOND
     1   143   142    1
     2   135   134    2
     3   142   140   ar
     4   142   141   ar
     5   140   138   ar
     6   141   139   ar
     7   134   133    1
     8   138   137   ar
     9   127   126    2
    10   132   133    1
    11   113   112    2
    12   139   137   ar
    13   137   136    1
    14   126   125    1
    15   124   125    1
    16   133   136    1
    17   112   111    1
    18   110   111    1
    19   125   128    1
    20   111   114    1
    21   128   129    1
    22   122   120   ar
    23   122   123   ar
    24   120   117   ar
    25   131   129    1
    26   123   121   ar
    27   114   115    1
    28   117   115   ar
    29   117   119   ar
    30   129   130    1
    31   115   116   ar
    32    98    99    2
    33    98    97    1
    34   121   119   ar
    35   119   118   ar
    36    97    96    1
    37    97   100    1
    38   116   118   ar
    39    91    90    1
    40    91    92    2
    41    90    89    1
    42    90    93    1
    43    84    87    1
    44    84    85    1
    45    84    83    1
    46    87    88    1
    47   144   145    1
    48    95    93    1
    49    85    86    2
    50    93    94    1
    51    56    58   ar
    52    56    54   ar
    53   100   101    1
    54    58    57   ar
    55   147   146    2
    56   101   102   ar
    57   101   103   ar
    58   102   104   ar
    59    80    79    2
    60   145   146    1
    61   145   148    1
    62    54    53   ar
    63    57    55   ar
    64   103   106   ar
    65   103   105   ar
    66   150   149   ar
    67   104   105   ar
    68   106   108   ar
    69   148   149    1
    70   149   151   ar
    71    79    78    1
    72   105   107   ar
    73    53    55   ar
    74    53    52    1
    75    69    71   ar
    76    69    68   ar
    77    71    72   ar
    78   108   109   ar
    79   107   109   ar
    80    78    81    1
    81    78    77    1
    82    49    52    1
    83    49    48    1
    84    49    50    1
    85    81    82    1
    86    16    14   ar
    87    68    67    1
    88    68    70   ar
    89    63    64    1
    90    72    74   ar
    91    72    70   ar
    92    67    64    1
    93    74    76   ar
    94    70    73   ar
    95    59    50   am
    96    59    60    1
    97    64    65    1
    98    14    15   ar
    99    14    13    1
   100    50    51    2
   101    66    65    2
   102    47    44    1
   103     8     6   am
   104    34    33    1
   105    76    75   ar
   106    60    61    1
   107    73    75   ar
   108    33    32   ar
   109    33    31   ar
   110    13    10    1
   111     5     6    1
   112     5     2    1
   113     6     7    2
   114    32    30   ar
   115    46    45    2
   116    62    61    2
   117    45    44    1
   118    41    40    2
   119     9    10    1
   120    44    43    1
   121    31    29   ar
   122    42    40   am
   123    30    28   ar
   124    40    39    1
   125    10    11    1
   126     2     3    1
   127     2     1    1
   128    29    28   ar
   129     3     4    2
   130    28    27    1
   131    39    36    1
   132    22    21    1
   133    27    24    1
   134    21    18    1
   135    11    12    2
   136    36    37    1
   137    36    35    1
   138    17    18    1
   139    18    19    1
   140    37    38    2
   141    24    23    1
   142    24    25    1
   143    20    19    2
   144    25    26    2
