@<TRIPOS>MOLECULE
tmp/6he4C00.pdb
 135 128 0 0 0
SMALL
GASTEIGER

@<TRIPOS>ATOM
      1  N        224.6470  295.7170  371.4260 N.3    20  ASP20      -0.1225
      2  CA       226.0400  295.9250  371.2640 C.3    20  ASP20       0.1805
      3  C        226.4390  295.0880  370.0460 C.2    20  ASP20       0.2598
      4  O        227.6430  294.8680  369.8090 O.2    20  ASP20      -0.2718
      5  CB       226.8500  295.6350  372.5340 C.3    20  ASP20       0.1424
      6  CG       226.6470  296.6990  373.6350 C.2    20  ASP20       0.3668
      7  OD1      226.5320  296.2000  374.7670 O.co2  20  ASP20      -0.2456
      8  OD2      226.7050  297.9390  373.4250 O.co2  20  ASP20      -0.2456
      9  N        225.4540  294.6440  369.2050 N.am   21  ILE21      -0.1966
     10  CA       225.7590  293.8670  368.0900 C.3    21  ILE21       0.1727
     11  C        224.6610  294.3860  367.1450 C.2    21  ILE21       0.2616
     12  O        223.6840  294.9980  367.5580 O.2    21  ILE21      -0.2715
     13  CB       225.6110  292.3860  368.2860 C.3    21  ILE21       0.0290
     14  CG1      224.1830  291.9170  368.7960 C.3    21  ILE21       0.0022
     15  CG2      226.7690  292.0690  369.2160 C.3    21  ILE21       0.0023
     16  CD1      224.1160  290.3990  369.1640 C.3    21  ILE21       0.0001
     17  N        224.7850  294.1500  365.7970 N.am   22  GLY22      -0.1955
     18  CA       223.6830  294.5500  364.9890 C.3    22  GLY22       0.1869
     19  C        224.0960  294.4870  363.5550 C.2    22  GLY22       0.2309
     20  O        225.2630  294.3690  363.3070 O.2    22  GLY22      -0.2863
     21  N        223.2620  292.1700  361.5560 N.3    24  LEU24      -0.1245
     22  CA       223.1250  290.7430  361.5070 C.3    24  LEU24       0.1561
     23  C        221.8340  290.4230  362.2410 C.2    24  LEU24       0.2260
     24  O        221.7940  289.5100  363.0500 O.2    24  LEU24      -0.2867
     25  CB       224.2540  289.9470  362.1380 C.3    24  LEU24       0.0270
     26  CG       225.6690  290.2970  361.4900 C.3    24  LEU24       0.0019
     27  CD1      226.7640  289.5910  362.2830 C.3    24  LEU24       0.0001
     28  CD2      225.7490  289.8830  360.0230 C.3    24  LEU24       0.0001
     29  N        235.5040  285.2110  359.6500 N.3    62  PRO62      -0.2102
     30  CA       235.9880  285.5110  360.9690 C.3    62  PRO62       0.1504
     31  C        235.6420  286.8680  361.2150 C.2    62  PRO62       0.2576
     32  O        235.5550  287.6680  360.3170 O.2    62  PRO62      -0.2718
     33  CB       237.5090  285.1840  360.8850 C.3    62  PRO62       0.0282
     34  CG       237.8210  285.4640  359.4840 C.3    62  PRO62       0.0208
     35  CD       236.6340  284.9570  358.7540 C.3    62  PRO62       0.0893
     36  N        235.4790  287.3360  362.4630 N.am   63  GLY63      -0.1943
     37  CA       235.3400  288.7180  362.7770 C.3    63  GLY63       0.2014
     38  C        233.9630  289.2280  362.5640 C.2    63  GLY63       0.2640
     39  O        233.7630  290.4740  362.5420 O.2    63  GLY63      -0.2714
     40  N        232.9320  288.3440  362.5110 N.am   64  THR64      -0.1936
     41  CA       231.5600  288.8280  362.1660 C.3    64  THR64       0.2028
     42  C        230.7800  288.9990  363.4250 C.2    64  THR64       0.2643
     43  O        229.6470  289.4790  363.4420 O.2    64  THR64      -0.2714
     44  CB       230.8510  287.9600  361.1760 C.3    64  THR64       0.1808
     45  OG1      230.6440  286.5690  361.6260 O.3    64  THR64      -0.2208
     46  CG2      231.4630  287.9680  359.6650 C.3    64  THR64       0.0379
     47  N        231.3670  288.6490  364.6100 N.am   65  GLY65      -0.1939
     48  CA       230.6440  288.9040  365.8890 C.3    65  GLY65       0.2014
     49  C        229.9550  287.7060  366.3120 C.2    65  GLY65       0.2639
     50  O        228.9310  287.8000  366.9570 O.2    65  GLY65      -0.2714
     51  N        230.4700  286.4580  366.0440 N.am   66  LYS66      -0.1963
     52  CA       230.0960  285.2140  366.7340 C.3    66  LYS66       0.1728
     53  C        230.2490  285.1940  368.1920 C.2    66  LYS66       0.2617
     54  O        229.4100  284.6610  368.8690 O.2    66  LYS66      -0.2715
     55  CB       230.8320  284.0090  366.0640 C.3    66  LYS66       0.0311
     56  CG       230.4650  283.7970  364.5790 C.3    66  LYS66       0.0038
     57  CD       231.3250  282.7420  363.8690 C.3    66  LYS66       0.0206
     58  CE       232.8160  282.9340  363.8640 C.3    66  LYS66       0.1093
     59  NZ       233.2810  284.1400  363.2130 N.3    66  LYS66      -0.1314
     60  N        231.3720  285.7320  368.6840 N.am   67  THR67      -0.1937
     61  CA       231.7330  285.7340  370.0860 C.3    67  THR67       0.2028
     62  C        230.6870  286.5540  370.8240 C.2    67  THR67       0.2642
     63  O        230.2090  286.0780  371.8420 O.2    67  THR67      -0.2714
     64  CB       233.1420  286.3230  370.2590 C.3    67  THR67       0.1808
     65  OG1      234.0410  285.2580  370.2640 O.3    67  THR67      -0.2208
     66  CG2      233.5050  287.0210  371.6250 C.3    67  THR67       0.0379
     67  N        230.3540  287.7740  370.3410 N.am   68  LEU68      -0.1977
     68  CA       229.4490  288.8160  370.6500 C.3    68  LEU68       0.1596
     69  C        228.0270  288.2900  370.6660 C.2    68  LEU68       0.2287
     70  O        227.3610  288.6470  371.6060 O.2    68  LEU68      -0.2864
     71  CB       229.6260  289.9760  369.6350 C.3    68  LEU68       0.0297
     72  CG       231.0090  290.6640  369.5540 C.3    68  LEU68       0.0022
     73  CD1      230.8160  291.8160  368.5570 C.3    68  LEU68       0.0001
     74  CD2      231.5360  291.2250  370.8550 C.3    68  LEU68       0.0001
     75  N        234.9740  277.6680  369.4130 N.3   120  GLU120     -0.1245
     76  CA       235.8810  276.9610  368.5830 C.3   120  GLU120      0.1567
     77  C        235.6160  275.5040  368.5850 C.2   120  GLU120      0.2260
     78  O        235.9270  274.7980  369.5880 O.2   120  GLU120     -0.2867
     79  CB       237.4260  277.1550  368.6360 C.3   120  GLU120      0.0388
     80  CG       237.8700  278.6490  369.0640 C.3   120  GLU120      0.1160
     81  CD       237.5510  279.7470  367.9770 C.2   120  GLU120      0.3649
     82  OE1      238.5540  280.2450  367.3190 O.co2 120  GLU120     -0.2457
     83  OE2      236.3850  280.0590  367.8090 O.co2 120  GLU120     -0.2457
     84  N        234.8320  278.5900  363.0700 N.3   166  ASN166     -0.1240
     85  CA       235.1660  279.4970  362.1030 C.3   166  ASN166      0.1653
     86  C        235.0220  278.8280  360.8090 C.2   166  ASN166      0.2266
     87  O        234.8940  279.5160  359.8150 O.2   166  ASN166     -0.2867
     88  CB       236.6050  280.0760  362.1620 C.3   166  ASN166      0.1155
     89  CG       236.9510  280.6070  363.5590 C.2   166  ASN166      0.2627
     90  OD1      236.1330  281.1370  364.2580 O.2   166  ASN166     -0.2716
     91  ND2      238.2050  280.3290  364.0030 N.am  166  ASN166     -0.0877
     92  N        226.9010  298.3950  362.3950 N.3   198  ILE198     -0.1245
     93  CA       228.1680  298.0330  362.9970 C.3   198  ILE198      0.1561
     94  C        229.0210  299.2980  363.1950 C.2   198  ILE198      0.2260
     95  O        229.5530  299.5470  364.3140 O.2   198  ILE198     -0.2867
     96  CB       228.8560  296.9180  362.2210 C.3   198  ILE198      0.0252
     97  CG1      228.1370  295.5830  362.3720 C.3   198  ILE198      0.0019
     98  CG2      230.3010  296.7610  362.7550 C.3   198  ILE198      0.0019
     99  CD1      228.7670  294.4110  361.5510 C.3   198  ILE198      0.0001
    100  N        227.5750  301.2980  366.1040 N.3   201  ILE201     -0.1231
    101  CA       227.8550  300.8170  367.4390 C.3   201  ILE201      0.1692
    102  C        229.0890  301.3590  368.0780 C.2   201  ILE201      0.2592
    103  O        229.0470  301.7520  369.2430 O.2   201  ILE201     -0.2718
    104  CB       227.8240  299.2890  367.5070 C.3   201  ILE201      0.0266
    105  CG1      226.4030  298.7600  367.0290 C.3   201  ILE201      0.0019
    106  CG2      227.9620  298.8310  368.9920 C.3   201  ILE201      0.0020
    107  CD1      226.5890  297.2970  366.5370 C.3   201  ILE201      0.0001
    108  N        230.1860  301.3810  367.2660 N.am  202  HIS202     -0.1976
    109  CA       231.4730  301.8790  367.8080 C.3   202  HIS202      0.1656
    110  C        231.3990  303.3730  367.8960 C.2   202  HIS202      0.2291
    111  O        231.9490  304.0530  368.7670 O.2   202  HIS202     -0.2864
    112  CB       232.5680  301.5370  366.7870 C.3   202  HIS202      0.0771
    113  CG       232.5670  300.0840  366.3900 C.ar  202  HIS202      0.0820
    114  ND1      232.6330  299.0710  367.2710 N.ar  202  HIS202     -0.2267
    115  CD2      232.5670  299.5430  365.1380 C.ar  202  HIS202      0.1154
    116  CE1      232.7280  297.8840  366.5660 C.ar  202  HIS202      0.1986
    117  NE2      232.6720  298.1500  365.2540 N.ar  202  HIS202     -0.2212
    118  N        233.0080  292.7860  360.4040 N.3   226  GLY226     -0.1210
    119  CA       232.7260  293.6700  361.4910 C.3   226  GLY226      0.1956
    120  C        233.9650  294.0640  362.2940 C.2   226  GLY226      0.2611
    121  O        234.0830  295.1810  362.8210 O.2   226  GLY226     -0.2717
    122  N        234.9340  293.1120  362.2830 N.am  227  ALA227     -0.1979
    123  CA       236.2010  293.3010  362.8670 C.3   227  ALA227      0.1597
    124  C        237.0770  294.3030  362.1680 C.2   227  ALA227      0.2287
    125  O        237.6510  295.1590  362.8630 O.2   227  ALA227     -0.2864
    126  CB       236.9360  292.0230  362.9340 C.3   227  ALA227      0.0319
    127  N        235.6900  297.8510  363.3330 N.3   230  LYS230     -0.1245
    128  CA       236.0950  298.2630  364.6700 C.3   230  LYS230      0.1561
    129  C        237.4670  298.8960  364.6680 C.2   230  LYS230      0.2260
    130  O        237.6450  299.9190  365.2810 O.2   230  LYS230     -0.2867
    131  CB       236.1650  297.0540  365.5870 C.3   230  LYS230      0.0271
    132  CG       236.4100  297.3170  367.1050 C.3   230  LYS230      0.0035
    133  CD       237.4980  296.4050  367.6470 C.3   230  LYS230      0.0206
    134  CE       238.9170  297.0550  367.4500 C.3   230  LYS230      0.1093
    135  NZ       239.9770  296.3080  368.1390 N.3   230  LYS230     -0.1314
@<TRIPOS>BOND
     1    35    34    1
     2    35    29    1
     3    34    33    1
     4    29    30    1
     5    46    44    1
     6    87    86    2
     7    28    26    1
     8    32    31    2
     9   118   119    1
    10    86    85    1
    11    33    30    1
    12    30    31    1
    13    44    45    1
    14    44    41    1
    15    31    36   am
    16    26    25    1
    17    26    27    1
    18   119   120    1
    19    22    21    1
    20    22    25    1
    21    22    23    1
    22    99    97    1
    23    85    88    1
    24    85    84    1
    25    88    89    1
    26    41    40    1
    27    41    42    1
    28   124   125    2
    29   124   123    1
    30    96    97    1
    31    96    98    1
    32    96    93    1
    33    23    24    2
    34   122   120   am
    35   122   123    1
    36   120   121    2
    37    92    93    1
    38    36    37    1
    39    40    38   am
    40    39    38    2
    41    38    37    1
    42   123   126    1
    43    93    94    1
    44    94    95    2
    45    59    58    1
    46    20    19    2
    47   127   128    1
    48    42    43    2
    49    42    47   am
    50    19    18    1
    51    89    91   am
    52    89    90    2
    53    58    57    1
    54    57    56    1
    55    56    55    1
    56    47    48    1
    57   129   128    1
    58   129   130    2
    59   128   131    1
    60    18    17    1
    61   115   117   ar
    62   115   113   ar
    63   117   116   ar
    64   131   132    1
    65    17    11   am
    66    48    49    1
    67    51    49   am
    68    51    52    1
    69    55    52    1
    70   100   101    1
    71    49    50    2
    72   113   112    1
    73   113   114   ar
    74   107   105    1
    75   116   114   ar
    76    52    53    1
    77   112   109    1
    78   105   104    1
    79   132   133    1
    80    11    12    2
    81    11    10    1
    82   108   109    1
    83   108   102   am
    84    82    81   ar
    85   101   104    1
    86   101   102    1
    87   134   133    1
    88   134   135    1
    89   104   106    1
    90   109   110    1
    91    83    81   ar
    92   110   111    2
    93    81    80    1
    94   102   103    2
    95    10    13    1
    96    10     9    1
    97    53    60   am
    98    53    54    2
    99    13    14    1
   100    13    15    1
   101    73    72    1
   102    76    77    1
   103    76    79    1
   104    76    75    1
   105    77    78    2
   106    79    80    1
   107    60    61    1
   108    14    16    1
   109     9     3   am
   110    72    71    1
   111    72    74    1
   112    71    68    1
   113     4     3    2
   114     3     2    1
   115    61    64    1
   116    61    62    1
   117    64    65    1
   118    64    66    1
   119    67    68    1
   120    67    62   am
   121    68    69    1
   122    69    70    2
   123    62    63    2
   124     2     1    1
   125     2     5    1
   126     5     6    1
   127     8     6   ar
   128     6     7   ar
