@<TRIPOS>MOLECULE
tmp/6he4D01.pdb
 141 134 0 0 0
SMALL
GASTEIGER

@<TRIPOS>ATOM
      1  N        268.3660  302.5370  370.9210 N.3    20  ASP20      -0.1225
      2  CA       269.4170  301.4970  370.8490 C.3    20  ASP20       0.1805
      3  C        269.1430  300.6430  369.6140 C.2    20  ASP20       0.2598
      4  O        269.9850  299.9450  369.0960 O.2    20  ASP20      -0.2718
      5  CB       269.4580  300.6230  372.1830 C.3    20  ASP20       0.1424
      6  CG       269.9340  301.5080  373.4070 C.2    20  ASP20       0.3668
      7  OD1      269.5290  301.0810  374.5290 O.co2  20  ASP20      -0.2456
      8  OD2      270.6960  302.5220  373.3060 O.co2  20  ASP20      -0.2456
      9  N        267.8690  300.7560  369.1280 N.am   21  ILE21      -0.1966
     10  CA       267.4930  300.1480  367.8390 C.3    21  ILE21       0.1727
     11  C        266.8520  301.2500  367.0270 C.2    21  ILE21       0.2616
     12  O        266.0780  302.0460  367.5380 O.2    21  ILE21      -0.2715
     13  CB       266.6570  298.9060  367.8490 C.3    21  ILE21       0.0290
     14  CG1      265.7940  298.6580  366.5110 C.3    21  ILE21       0.0022
     15  CG2      265.7040  298.9150  369.1100 C.3    21  ILE21       0.0023
     16  CD1      265.0270  297.2790  366.3870 C.3    21  ILE21       0.0001
     17  N        267.0900  301.2920  365.7300 N.am   22  GLY22      -0.1955
     18  CA       266.4950  302.1250  364.7290 C.3    22  GLY22       0.1869
     19  C        266.6300  301.5330  363.3670 C.2    22  GLY22       0.2309
     20  O        266.7260  300.3070  363.2340 O.2    22  GLY22      -0.2863
     21  N        264.1760  301.4760  361.4200 N.3    24  LEU24      -0.1245
     22  CA       262.8120  301.1070  361.2950 C.3    24  LEU24       0.1561
     23  C        262.0340  302.1360  362.0000 C.2    24  LEU24       0.2260
     24  O        261.0780  301.7760  362.6130 O.2    24  LEU24      -0.2867
     25  CB       262.4330  299.7510  362.0280 C.3    24  LEU24       0.0270
     26  CG       263.2220  298.4910  361.5680 C.3    24  LEU24       0.0019
     27  CD1      263.1800  297.3600  362.5630 C.3    24  LEU24       0.0001
     28  CD2      262.9850  298.0990  360.0790 C.3    24  LEU24       0.0001
     29  N        263.4600  287.5520  358.6480 N.3    62  PRO62      -0.2102
     30  CA       264.2240  287.2420  359.8400 C.3    62  PRO62       0.1504
     31  C        265.3370  288.2360  360.0280 C.2    62  PRO62       0.2576
     32  O        265.7050  288.8500  359.0470 O.2    62  PRO62      -0.2718
     33  CB       264.8780  286.0020  359.6360 C.3    62  PRO62       0.0282
     34  CG       264.2790  285.4050  358.4000 C.3    62  PRO62       0.0208
     35  CD       263.6920  286.5230  357.6250 C.3    62  PRO62       0.0893
     36  N        265.8190  288.3990  361.2500 N.am   63  GLY63      -0.1943
     37  CA       266.9000  289.2290  361.7390 C.3    63  GLY63       0.2014
     38  C        266.5770  290.7080  361.8860 C.2    63  GLY63       0.2640
     39  O        267.3490  291.5580  362.4130 O.2    63  GLY63      -0.2714
     40  N        265.3990  291.0880  361.4250 N.am   64  THR64      -0.1936
     41  CA       264.9060  292.4620  361.3070 C.3    64  THR64       0.2028
     42  C        264.9260  293.1700  362.6400 C.2    64  THR64       0.2643
     43  O        265.2340  294.3380  362.7190 O.2    64  THR64      -0.2714
     44  CB       263.5190  292.5610  360.7920 C.3    64  THR64       0.1808
     45  OG1      263.3340  291.5150  359.8020 O.3    64  THR64      -0.2208
     46  CG2      263.1160  293.9740  360.2750 C.3    64  THR64       0.0379
     47  N        264.5720  292.4810  363.7470 N.am   65  GLY65      -0.1939
     48  CA       264.6520  293.0560  365.1000 C.3    65  GLY65       0.2014
     49  C        263.3640  293.1860  365.7360 C.2    65  GLY65       0.2639
     50  O        263.1890  294.1040  366.5640 O.2    65  GLY65      -0.2714
     51  N        262.4130  292.3020  365.3420 N.am   66  LYS66      -0.1963
     52  CA       261.1330  292.1620  365.9750 C.3    66  LYS66       0.1728
     53  C        261.1990  292.0390  367.5030 C.2    66  LYS66       0.2617
     54  O        260.4080  292.6940  368.1540 O.2    66  LYS66      -0.2715
     55  CB       260.3970  290.9420  365.2920 C.3    66  LYS66       0.0311
     56  CG       260.5570  290.8770  363.8020 C.3    66  LYS66       0.0038
     57  CD       259.7180  289.7710  363.0600 C.3    66  LYS66       0.0206
     58  CE       260.1480  288.3780  363.3330 C.3    66  LYS66       0.1093
     59  NZ       261.4090  288.0010  362.6170 N.3    66  LYS66      -0.1314
     60  N        262.1620  291.2150  368.0470 N.am   67  THR67      -0.1937
     61  CA       262.4080  291.0200  369.4840 C.3    67  THR67       0.2028
     62  C        262.6750  292.3350  370.1410 C.2    67  THR67       0.2642
     63  O        262.1720  292.5980  371.2670 O.2    67  THR67      -0.2714
     64  CB       263.7320  290.2910  369.7200 C.3    67  THR67       0.1808
     65  OG1      263.8930  289.2810  368.6580 O.3    67  THR67      -0.2208
     66  CG2      263.7070  289.6120  371.0950 C.3    67  THR67       0.0379
     67  N        263.5420  293.1800  369.4720 N.am   68  LEU68      -0.1977
     68  CA       264.0970  294.3650  369.9990 C.3    68  LEU68       0.1596
     69  C        263.0830  295.3910  370.1190 C.2    68  LEU68       0.2287
     70  O        263.2690  296.3300  370.8920 O.2    68  LEU68      -0.2864
     71  CB       265.3030  294.8840  369.1620 C.3    68  LEU68       0.0297
     72  CG       266.2990  293.7630  368.7680 C.3    68  LEU68       0.0022
     73  CD1      267.2520  294.2400  367.6750 C.3    68  LEU68       0.0001
     74  CD2      267.1150  293.0920  369.8860 C.3    68  LEU68       0.0001
     75  N        256.6660  285.1500  370.1380 N.3   119  ASP119     -0.1239
     76  CA       257.5540  285.2460  368.9400 C.3   119  ASP119      0.1674
     77  C        257.2970  284.0670  368.0630 C.2   119  ASP119      0.2266
     78  O        256.9270  283.0020  368.5770 O.2   119  ASP119     -0.2867
     79  CB       259.1110  285.2710  369.3950 C.3   119  ASP119      0.1410
     80  CG       260.1250  285.4390  368.2760 C.2   119  ASP119      0.3668
     81  OD1      260.9350  284.4220  368.1060 O.co2 119  ASP119     -0.2456
     82  OD2      260.1840  286.5220  367.6360 O.co2 119  ASP119     -0.2456
     83  N        257.7370  285.3570  361.0730 N.3   166  ASN166     -0.1240
     84  CA       258.6480  285.4320  359.9310 C.3   166  ASN166      0.1653
     85  C        257.8530  285.5290  358.6330 C.2   166  ASN166      0.2266
     86  O        258.2210  286.2610  357.6560 O.2   166  ASN166     -0.2867
     87  CB       259.5350  284.1180  359.8020 C.3   166  ASN166      0.1155
     88  CG       260.5830  284.0310  360.9280 C.2   166  ASN166      0.2627
     89  OD1      261.3540  284.9490  361.1620 O.2   166  ASN166     -0.2716
     90  ND2      260.5770  282.8290  361.5630 N.am  166  ASN166     -0.0877
     91  N        265.9310  296.6420  356.0860 N.3   190  PRO190     -0.2116
     92  CA       266.4260  298.0320  356.1480 C.3   190  PRO190      0.1372
     93  C        266.4210  298.7100  354.8250 C.2   190  PRO190      0.2244
     94  O        266.8210  298.0440  353.8690 O.2   190  PRO190     -0.2868
     95  CB       267.8120  297.9530  356.8300 C.3   190  PRO190      0.0268
     96  CG       267.7500  296.6340  357.6490 C.3   190  PRO190      0.0207
     97  CD       266.8150  295.7690  356.9030 C.3   190  PRO190      0.0892
     98  N        271.6170  301.8770  361.5940 N.3   198  ILE198     -0.1245
     99  CA       271.8910  300.6140  362.3260 C.3   198  ILE198      0.1561
    100  C        273.3440  300.5370  362.5580 C.2   198  ILE198      0.2260
    101  O        273.8540  300.1740  363.6560 O.2   198  ILE198     -0.2867
    102  CB       271.3160  299.3650  361.6860 C.3   198  ILE198      0.0252
    103  CG1      269.7650  299.5240  361.6890 C.3   198  ILE198      0.0019
    104  CG2      271.7080  298.1230  362.4960 C.3   198  ILE198      0.0019
    105  CD1      268.9600  298.4720  360.9390 C.3   198  ILE198      0.0001
    106  N        274.8460  303.0940  365.2270 N.3   201  ILE201     -0.1231
    107  CA       274.6110  302.6840  366.5950 C.3   201  ILE201      0.1692
    108  C        275.6570  301.7300  367.0900 C.2   201  ILE201      0.2592
    109  O        276.2390  301.9780  368.2080 O.2   201  ILE201     -0.2718
    110  CB       273.2050  302.1100  366.7510 C.3   201  ILE201      0.0266
    111  CG1      272.1290  303.1790  366.3540 C.3   201  ILE201      0.0019
    112  CG2      272.8920  301.7070  368.2070 C.3   201  ILE201      0.0020
    113  CD1      270.6980  302.4980  366.1700 C.3   201  ILE201      0.0001
    114  N        275.9280  300.7510  366.2520 N.am  202  HIS202     -0.1976
    115  CA       276.8400  299.7280  366.5410 C.3   202  HIS202      0.1656
    116  C        278.2770  300.2270  366.5220 C.2   202  HIS202      0.2291
    117  O        279.1450  299.7490  367.3080 O.2   202  HIS202     -0.2864
    118  CB       276.6490  298.4480  365.6430 C.3   202  HIS202      0.0771
    119  CG       275.2410  297.9040  365.7010 C.ar  202  HIS202      0.0820
    120  ND1      274.6620  297.5670  366.9250 N.ar  202  HIS202     -0.2267
    121  CD2      274.3180  297.5920  364.7400 C.ar  202  HIS202      0.1154
    122  CE1      273.4030  297.2210  366.5750 C.ar  202  HIS202      0.1986
    123  NE2      273.1640  297.1590  365.2840 N.ar  202  HIS202     -0.2212
    124  N        268.9170  293.4280  359.4920 N.3   226  GLY226     -0.1210
    125  CA       269.4650  294.2930  360.4390 C.3   226  GLY226      0.1956
    126  C        270.5500  293.6580  361.2940 C.2   226  GLY226      0.2611
    127  O        271.4990  294.3320  361.6680 O.2   226  GLY226     -0.2717
    128  N        270.4920  292.4140  361.6510 N.am  227  ALA227     -0.1979
    129  CA       271.4350  291.5610  362.4290 C.3   227  ALA227      0.1597
    130  C        272.6980  291.4450  361.6780 C.2   227  ALA227      0.2287
    131  O        273.7830  291.1590  362.2470 O.2   227  ALA227     -0.2864
    132  CB       270.8840  290.1890  362.5680 C.3   227  ALA227      0.0319
    133  N        274.8820  294.6760  362.0190 N.3   230  LYS230     -0.1245
    134  CA       275.5770  294.4090  363.3840 C.3   230  LYS230      0.1561
    135  C        276.6670  293.4930  363.3240 C.2   230  LYS230      0.2260
    136  O        277.6820  293.6450  364.0140 O.2   230  LYS230     -0.2867
    137  CB       274.4240  293.9190  364.3460 C.3   230  LYS230      0.0271
    138  CG       274.8230  293.8690  365.8100 C.3   230  LYS230      0.0035
    139  CD       275.5270  292.6310  366.4090 C.3   230  LYS230      0.0206
    140  CE       274.9500  291.2070  366.1820 C.3   230  LYS230      0.1093
    141  NZ       275.7790  290.1830  366.8070 N.3   230  LYS230     -0.1314
@<TRIPOS>BOND
     1    94    93    2
     2    93    92    1
     3    91    92    1
     4    91    97    1
     5    92    95    1
     6    95    96    1
     7    97    96    1
     8    35    34    1
     9    35    29    1
    10    86    85    2
    11    34    33    1
    12    85    84    1
    13    29    30    1
    14    32    31    2
    15   124   125    1
    16    33    30    1
    17    45    44    1
    18    87    84    1
    19    87    88    1
    20    30    31    1
    21    84    83    1
    22    31    36   am
    23    28    26    1
    24    46    44    1
    25   125   126    1
    26    44    41    1
    27    88    89    2
    28    88    90   am
    29   105   103    1
    30    36    37    1
    31   126   128   am
    32   126   127    2
    33    22    21    1
    34    22    23    1
    35    22    25    1
    36    41    40    1
    37    41    42    1
    38    40    38   am
    39    26    25    1
    40    26    27    1
    41    98    99    1
    42   128   129    1
    43   130   131    2
    44   130   129    1
    45   102   103    1
    46   102    99    1
    47   102   104    1
    48    37    38    1
    49    38    39    2
    50    23    24    2
    51   133   134    1
    52    99   100    1
    53   129   132    1
    54   100   101    2
    55    59    58    1
    56    42    43    2
    57    42    47   am
    58    57    58    1
    59    57    56    1
    60    20    19    2
    61   135   134    1
    62   135   136    2
    63    19    18    1
    64   134   137    1
    65    47    48    1
    66    56    55    1
    67   137   138    1
    68    18    17    1
    69   121   123   ar
    70   121   119   ar
    71    48    49    1
    72   106   107    1
    73   123   122   ar
    74    55    52    1
    75    51    49   am
    76    51    52    1
    77   118   119    1
    78   118   115    1
    79   119   120   ar
    80    17    11   am
    81    49    50    2
    82   138   139    1
    83    52    53    1
    84   113   111    1
    85   140   139    1
    86   140   141    1
    87   114   115    1
    88   114   108   am
    89   111   110    1
    90    16    14    1
    91    14    13    1
    92   116   115    1
    93   116   117    2
    94   122   120   ar
    95   107   110    1
    96   107   108    1
    97   110   112    1
    98    11    12    2
    99    11    10    1
   100   108   109    2
   101    53    60   am
   102    53    54    2
   103    82    80   ar
   104    73    72    1
   105    10    13    1
   106    10     9    1
   107    13    15    1
   108    60    61    1
   109    77    78    2
   110    77    76    1
   111    81    80   ar
   112    80    79    1
   113    65    64    1
   114    72    71    1
   115    72    74    1
   116    76    79    1
   117    76    75    1
   118     4     3    2
   119     9     3   am
   120    71    68    1
   121    67    68    1
   122    67    62   am
   123    61    64    1
   124    61    62    1
   125     3     2    1
   126    64    66    1
   127    68    69    1
   128    69    70    2
   129    62    63    2
   130     2     1    1
   131     2     5    1
   132     5     6    1
   133     8     6   ar
   134     6     7   ar
