@<TRIPOS>MOLECULE
tmp/6hefA01.pdb
 180 171 0 0 0
SMALL
GASTEIGER

@<TRIPOS>ATOM
      1  N        -13.2000   -9.6840   70.6690 N.3    96  LEU96      -0.1245
      2  CA       -14.4010   -8.8940   70.4220 C.3    96  LEU96       0.1561
      3  C        -14.1900   -7.9070   69.2790 C.2    96  LEU96       0.2260
      4  O        -15.0970   -7.6890   68.4670 O.2    96  LEU96      -0.2867
      5  CB       -14.8220   -8.1730   71.7040 C.3    96  LEU96       0.0270
      6  CG       -16.2360   -7.5890   71.7900 C.3    96  LEU96       0.0019
      7  CD1      -16.7020   -7.5770   73.2380 C.3    96  LEU96       0.0001
      8  CD2      -16.3220   -6.1910   71.1960 C.3    96  LEU96       0.0001
      9  N        -14.3570   -9.7830   66.0370 N.3    99  ILE99      -0.1231
     10  CA       -15.7320  -10.0800   65.6520 C.3    99  ILE99       0.1692
     11  C        -16.4480   -8.8120   65.1970 C.2    99  ILE99       0.2591
     12  O        -17.2570   -8.8410   64.2620 O.2    99  ILE99      -0.2718
     13  CB       -16.4660  -10.7710   66.8170 C.3    99  ILE99       0.0266
     14  CG1      -15.8320  -12.1330   67.1010 C.3    99  ILE99       0.0019
     15  CG2      -17.9470  -10.9230   66.5170 C.3    99  ILE99       0.0020
     16  CD1      -16.3570  -12.7970   68.3460 C.3    99  ILE99       0.0001
     17  N        -16.1480   -7.6780   65.8360 N.am  100  ALA100     -0.1980
     18  CA       -16.8260   -6.4320   65.4910 C.3   100  ALA100      0.1597
     19  C        -16.5820   -6.0480   64.0380 C.2   100  ALA100      0.2287
     20  O        -17.4940   -5.5680   63.3540 O.2   100  ALA100     -0.2864
     21  CB       -16.3710   -5.3120   66.4260 C.3   100  ALA100      0.0319
     22  N        -18.1600   -8.7470   61.4100 N.3   103  ILE103     -0.1231
     23  CA       -19.5730   -8.5040   61.1380 C.3   103  ILE103      0.1692
     24  C        -19.7290   -7.4630   60.0370 C.2   103  ILE103      0.2591
     25  O        -20.5650   -7.6080   59.1370 O.2   103  ILE103     -0.2718
     26  CB       -20.3020   -8.0810   62.4290 C.3   103  ILE103      0.0266
     27  CG1      -20.3280   -9.2360   63.4350 C.3   103  ILE103      0.0019
     28  CG2      -21.7100   -7.5930   62.1190 C.3   103  ILE103      0.0020
     29  CD1      -20.8030   -8.8340   64.8160 C.3   103  ILE103      0.0001
     30  N        -18.9130   -6.4080   60.0780 N.am  104  VAL104     -0.1980
     31  CA       -19.0300   -5.3400   59.0910 C.3   104  VAL104      0.1595
     32  C        -18.5520   -5.8150   57.7250 C.2   104  VAL104      0.2287
     33  O        -19.2070   -5.5710   56.7040 O.2   104  VAL104     -0.2864
     34  CB       -18.2580   -4.0950   59.5620 C.3   104  VAL104      0.0276
     35  CG1      -18.2970   -3.0060   58.4980 C.3   104  VAL104      0.0022
     36  CG2      -18.8260   -3.5870   60.8800 C.3   104  VAL104      0.0022
     37  N        -20.9140   -8.1990   56.1410 N.3   107  TRP107     -0.1227
     38  CA       -22.1280   -7.4700   55.7920 C.3   107  TRP107      0.1737
     39  C        -21.9780   -6.7790   54.4440 C.2   107  TRP107      0.2595
     40  O        -22.7120   -7.0700   53.4930 O.2   107  TRP107     -0.2718
     41  CB       -22.4540   -6.4390   56.8710 C.3   107  TRP107      0.0564
     42  CG       -23.7680   -5.7640   56.6560 C.ar  107  TRP107      0.0003
     43  CD1      -23.9940   -4.6110   55.9610 C.ar  107  TRP107      0.0946
     44  CD2      -25.0350   -6.1670   57.1850 C.ar  107  TRP107      0.0152
     45  NE1      -25.3290   -4.2890   55.9980 N.ar  107  TRP107     -0.2442
     46  CE2      -25.9890   -5.2270   56.7480 C.ar  107  TRP107      0.0810
     47  CE3      -25.4580   -7.2400   57.9770 C.ar  107  TRP107      0.0012
     48  CZ2      -27.3370   -5.3250   57.0790 C.ar  107  TRP107      0.0191
     49  CZ3      -26.7980   -7.3360   58.3010 C.ar  107  TRP107      0.0001
     50  CH2      -27.7220   -6.3850   57.8530 C.ar  107  TRP107      0.0015
     51  N        -21.0200   -5.8540   54.3460 N.am  108  GLN108     -0.1979
     52  CA       -20.8570   -5.0660   53.1310 C.3   108  GLN108      0.1601
     53  C        -20.5010   -5.9160   51.9210 C.2   108  GLN108      0.2287
     54  O        -20.7490   -5.4880   50.7890 O.2   108  GLN108     -0.2864
     55  CB       -19.7890   -3.9890   53.3390 C.3   108  GLN108      0.0394
     56  CG       -20.2020   -2.8730   54.2860 C.3   108  GLN108      0.0908
     57  CD       -21.2980   -1.9990   53.7030 C.2   108  GLN108      0.2608
     58  OE1      -21.3010   -1.7030   52.5060 O.2   108  GLN108     -0.2717
     59  NE2      -22.2330   -1.5770   54.5480 N.am  108  GLN108     -0.0878
     60  N        -23.7930   -7.6490   50.9990 N.3   111  ASN111     -0.1240
     61  CA       -24.6220   -6.5450   50.5370 C.3   111  ASN111      0.1653
     62  C        -24.1950   -6.0570   49.1580 C.2   111  ASN111      0.2266
     63  O        -25.0200   -5.5000   48.4260 O.2   111  ASN111     -0.2867
     64  CB       -24.5640   -5.4000   51.5560 C.3   111  ASN111      0.1155
     65  CG       -25.7200   -4.4280   51.4200 C.2   111  ASN111      0.2627
     66  OD1      -26.5960   -4.5980   50.5720 O.2   111  ASN111     -0.2716
     67  ND2      -25.7330   -3.4050   52.2690 N.am  111  ASN111     -0.0877
     68  N        -17.9710   -1.5930   49.2320 N.3   321  LEU321     -0.1245
     69  CA       -18.8110   -0.4020   49.1800 C.3   321  LEU321      0.1561
     70  C        -18.7070    0.2820   47.8240 C.2   321  LEU321      0.2260
     71  O        -19.6990    0.8090   47.3110 O.2   321  LEU321     -0.2867
     72  CB       -18.4250    0.5660   50.2980 C.3   321  LEU321      0.0270
     73  CG       -19.2870    1.8170   50.4730 C.3   321  LEU321      0.0019
     74  CD1      -20.6950    1.4430   50.9140 C.3   321  LEU321      0.0001
     75  CD2      -18.6470    2.7790   51.4600 C.3   321  LEU321      0.0001
     76  N        -20.6340   -1.7210   45.3340 N.3   324  ARG324     -0.1231
     77  CA       -22.0630   -1.5930   45.5850 C.3   324  ARG324      0.1694
     78  C        -22.5920   -0.2430   45.1110 C.2   324  ARG324      0.2591
     79  O        -23.7790   -0.1230   44.7890 O.2   324  ARG324     -0.2718
     80  CB       -22.3440   -1.8090   47.0750 C.3   324  ARG324      0.0321
     81  CG       -23.8080   -2.0160   47.4300 C.3   324  ARG324      0.0489
     82  CD       -23.9690   -2.3640   48.9050 C.3   324  ARG324      0.2205
     83  NE       -23.6680   -1.2420   49.7880 N.pl3 324  ARG324     -0.0865
     84  CZ       -24.5660   -0.3410   50.1730 C.cat 324  ARG324      0.5346
     85  NH1      -25.8260   -0.4430   49.7650 N.pl3 324  ARG324      0.1354
     86  NH2      -24.2120    0.6540   50.9760 N.pl3 324  ARG324      0.1354
     87  N        -21.7280    0.7750   45.0440 N.am  325  ARG325     -0.1980
     88  CA       -22.1530    2.0770   44.5390 C.3   325  ARG325      0.1597
     89  C        -22.1410    2.1330   43.0180 C.2   325  ARG325      0.2287
     90  O        -22.9630    2.8390   42.4230 O.2   325  ARG325     -0.2864
     91  CB       -21.2710    3.1900   45.1090 C.3   325  ARG325      0.0334
     92  CG       -21.4520    3.4190   46.6020 C.3   325  ARG325      0.0492
     93  CD       -20.6150    4.5860   47.1050 C.3   325  ARG325      0.2205
     94  NE       -20.7490    4.7600   48.5500 N.pl3 325  ARG325     -0.0865
     95  CZ       -20.1330    5.7050   49.2530 C.cat 325  ARG325      0.5346
     96  NH1      -19.3430    6.5790   48.6450 N.pl3 325  ARG325      0.1354
     97  NH2      -20.3170    5.7820   50.5650 N.pl3 325  ARG325      0.1354
     98  N        -14.3070    0.0690   65.9800 N.3   802  LEU802     -0.1245
     99  CA       -15.3120    0.6160   65.0750 C.3   802  LEU802      0.1561
    100  C        -15.0900    2.0840   64.7250 C.2   802  LEU802      0.2260
    101  O        -15.3650    2.4540   63.5700 O.2   802  LEU802     -0.2867
    102  CB       -16.7110    0.3950   65.6620 C.3   802  LEU802      0.0270
    103  CG       -17.1100   -1.0810   65.7570 C.3   802  LEU802      0.0019
    104  CD1      -18.5070   -1.2470   66.3310 C.3   802  LEU802      0.0001
    105  CD2      -16.9930   -1.7670   64.4030 C.3   802  LEU802      0.0001
    106  N        -12.7310    1.6900   61.9350 N.3   805  THR805     -0.1203
    107  CA       -13.3740    1.0740   60.7800 C.3   805  THR805      0.1994
    108  C        -14.3390    2.0430   60.1060 C.2   805  THR805      0.2617
    109  O        -14.4250    2.0860   58.8730 O.2   805  THR805     -0.2717
    110  CB       -14.0970   -0.2050   61.2070 C.3   805  THR805      0.1784
    111  OG1      -13.1600   -1.1060   61.8120 O.3   805  THR805     -0.2211
    112  CG2      -14.7360   -0.8880   60.0080 C.3   805  THR805      0.0376
    113  N        -15.0550    2.8460   60.8970 N.am  806  ALA806     -0.1979
    114  CA       -16.0240    3.7930   60.3580 C.3   806  ALA806      0.1597
    115  C        -15.3830    4.9120   59.5470 C.2   806  ALA806      0.2287
    116  O        -16.1140    5.7270   58.9730 O.2   806  ALA806     -0.2864
    117  CB       -16.8610    4.3910   61.4910 C.3   806  ALA806      0.0319
    118  N        -16.2210    5.0000   55.6110 N.3   809  PHE809     -0.1241
    119  CA       -17.4230    5.6540   55.1180 C.3   809  PHE809      0.1605
    120  C        -17.2850    7.1700   55.0640 C.2   809  PHE809      0.2264
    121  O        -18.3010    7.8740   55.0080 O.2   809  PHE809     -0.2867
    122  CB       -18.6250    5.2670   55.9790 C.3   809  PHE809      0.0534
    123  CG       -18.9910    3.8160   55.8820 C.ar  809  PHE809     -0.0203
    124  CD1      -19.7230    3.3430   54.8070 C.ar  809  PHE809     -0.0042
    125  CD2      -18.5960    2.9240   56.8630 C.ar  809  PHE809     -0.0042
    126  CE1      -20.0570    2.0050   54.7130 C.ar  809  PHE809     -0.0003
    127  CE2      -18.9270    1.5870   56.7750 C.ar  809  PHE809     -0.0003
    128  CZ       -19.6590    1.1270   55.7000 C.ar  809  PHE809     -0.0000
    129  N        -21.5750    7.8240   60.7990 N.3   932  TRP932     -0.1241
    130  CA       -21.1930    6.5370   61.3660 C.3   932  TRP932      0.1605
    131  C        -19.8900    6.6030   62.1520 C.2   932  TRP932      0.2264
    132  O        -19.6080    5.6900   62.9360 O.2   932  TRP932     -0.2867
    133  CB       -21.1090    5.4910   60.2540 C.3   932  TRP932      0.0550
    134  CG       -22.4610    5.1220   59.7170 C.ar  932  TRP932      0.0003
    135  CD1      -23.2740    4.1220   60.1670 C.ar  932  TRP932      0.0946
    136  CD2      -23.1720    5.7670   58.6530 C.ar  932  TRP932      0.0152
    137  NE1      -24.4390    4.0940   59.4400 N.ar  932  TRP932     -0.2442
    138  CE2      -24.4030    5.0940   58.5050 C.ar  932  TRP932      0.0810
    139  CE3      -22.8860    6.8430   57.8070 C.ar  932  TRP932      0.0012
    140  CZ2      -25.3450    5.4620   57.5450 C.ar  932  TRP932      0.0191
    141  CZ3      -23.8250    7.2060   56.8530 C.ar  932  TRP932      0.0001
    142  CH2      -25.0380    6.5170   56.7310 C.ar  932  TRP932      0.0015
    143  N        -21.2290    7.9620   65.5140 N.3   935  GLY935     -0.1210
    144  CA       -21.8880    6.8610   66.1950 C.3   935  GLY935      0.1956
    145  C        -20.8990    5.9540   66.9020 C.2   935  GLY935      0.2612
    146  O        -21.1000    5.5760   68.0590 O.2   935  GLY935     -0.2717
    147  N        -19.8090    5.6030   66.2180 N.am  936  SER936     -0.1952
    148  CA       -18.7970    4.7570   66.8400 C.3   936  SER936      0.1924
    149  C        -18.0390    5.4960   67.9360 C.2   936  SER936      0.2314
    150  O        -17.5190    4.8610   68.8600 O.2   936  SER936     -0.2863
    151  CB       -17.8310    4.2310   65.7810 C.3   936  SER936      0.2116
    152  OG       -18.5040    3.3960   64.8550 O.3   936  SER936     -0.2180
    153  N        -19.4640    7.7810   70.0860 N.3   938  CYS938     -0.1221
    154  CA       -20.3350    7.6170   71.2420 C.3   938  CYS938      0.1808
    155  C        -20.3270    6.1800   71.7410 C.2   938  CYS938      0.2601
    156  O        -20.4940    5.9390   72.9420 O.2   938  CYS938     -0.2717
    157  CB       -21.7580    8.0530   70.8960 C.3   938  CYS938      0.0970
    158  SG       -21.9260    9.8170   70.5700 S.3   938  CYS938     -0.0800
    159  N        -20.1390    5.2150   70.8370 N.am  939  LEU939     -0.1979
    160  CA       -20.0610    3.8180   71.2480 C.3   939  LEU939      0.1596
    161  C        -18.8590    3.5770   72.1480 C.2   939  LEU939      0.2287
    162  O        -18.9730    2.9370   73.1990 O.2   939  LEU939     -0.2864
    163  CB       -20.0170    2.9110   70.0190 C.3   939  LEU939      0.0297
    164  CG       -19.8720    1.4130   70.2880 C.3   939  LEU939      0.0022
    165  CD1      -20.9840    0.8870   71.1740 C.3   939  LEU939      0.0001
    166  CD2      -19.8560    0.6650   68.9730 C.3   939  LEU939      0.0001
    167  N        -19.3620    5.8140   75.6830 N.3   942  SER942     -0.1202
    168  CA       -20.3480    5.3150   76.6380 C.3   942  SER942      0.2020
    169  C        -19.9540    3.9430   77.1660 C.2   942  SER942      0.2618
    170  O        -19.9740    3.7030   78.3790 O.2   942  SER942     -0.2717
    171  CB       -21.7250    5.2450   75.9900 C.3   942  SER942      0.2103
    172  OG       -21.7640    4.1720   75.0680 O.3   942  SER942     -0.2182
    173  N        -19.6090    3.0210   76.2640 N.am  943  LEU943     -0.1979
    174  CA       -19.1360    1.7080   76.6810 C.3   943  LEU943      0.1596
    175  C        -17.9020    1.8130   77.5680 C.2   943  LEU943      0.2287
    176  O        -17.6150    0.8850   78.3300 O.2   943  LEU943     -0.2864
    177  CB       -18.8480    0.8510   75.4470 C.3   943  LEU943      0.0297
    178  CG       -18.5080   -0.6260   75.6220 C.3   943  LEU943      0.0022
    179  CD1      -19.6740   -1.3520   76.2730 C.3   943  LEU943      0.0001
    180  CD2      -18.1720   -1.2450   74.2730 C.3   943  LEU943      0.0001
@<TRIPOS>BOND
     1    90    89    2
     2    89    88    1
     3    88    87    1
     4    88    91    1
     5    79    78    2
     6    87    78   am
     7    91    92    1
     8    78    77    1
     9    76    77    1
    10    77    80    1
    11    92    93    1
    12    80    81    1
    13    93    94    1
    14    71    70    2
    15    81    82    1
    16    70    69    1
    17    63    62    2
    18    94    95    2
    19    96    95    1
    20    82    83    1
    21    62    61    1
    22    69    68    1
    23    69    72    1
    24    95    97    1
    25    85    84    1
    26    83    84    2
    27    84    86    1
    28    72    73    1
    29    73    74    1
    30    73    75    1
    31    61    60    1
    32    61    64    1
    33    66    65    2
    34    54    53    2
    35    65    64    1
    36    65    67   am
    37    53    52    1
    38    58    57    2
    39    52    55    1
    40    52    51    1
    41    55    56    1
    42    40    39    2
    43    57    56    1
    44    57    59   am
    45    51    39   am
    46    39    38    1
    47   126   124   ar
    48   126   128   ar
    49   124   123   ar
    50   121   120    2
    51   120   119    1
    52   119   118    1
    53   119   122    1
    54   128   127   ar
    55    38    37    1
    56    38    41    1
    57   123   122    1
    58   123   125   ar
    59    43    45   ar
    60    43    42   ar
    61    45    46   ar
    62    42    41    1
    63    42    44   ar
    64    33    32    2
    65   142   141   ar
    66   142   140   ar
    67    46    48   ar
    68    46    44   ar
    69   127   125   ar
    70   141   139   ar
    71    48    50   ar
    72    44    47   ar
    73   140   138   ar
    74    32    31    1
    75   139   136   ar
    76    50    49   ar
    77    47    49   ar
    78    35    34    1
    79   138   136   ar
    80   138   137   ar
    81   136   134   ar
    82   109   108    2
    83   116   115    2
    84    31    34    1
    85    31    30    1
    86    25    24    2
    87   137   135   ar
    88   115   114    1
    89    34    36    1
    90   134   135   ar
    91   134   133    1
    92   112   110    1
    93    24    30   am
    94    24    23    1
    95   108   107    1
    96   108   113   am
    97   133   130    1
    98   114   113    1
    99   114   117    1
   100   107   110    1
   101   107   106    1
   102   129   130    1
   103    23    22    1
   104    23    26    1
   105   110   111    1
   106   130   131    1
   107    28    26    1
   108   131   132    2
   109    26    27    1
   110    20    19    2
   111    27    29    1
   112   101   100    2
   113    19    18    1
   114    12    11    2
   115   105   103    1
   116   100    99    1
   117   152   151    1
   118    99   102    1
   119    99    98    1
   120    11    10    1
   121    11    17   am
   122    18    17    1
   123    18    21    1
   124   143   144    1
   125    10     9    1
   126    10    13    1
   127   102   103    1
   128   103   104    1
   129   151   148    1
   130   144   145    1
   131   147   148    1
   132   147   145   am
   133    15    13    1
   134    13    14    1
   135   148   149    1
   136   145   146    2
   137    14    16    1
   138   149   150    2
   139     4     3    2
   140   166   164    1
   141     3     2    1
   142   163   164    1
   143   163   160    1
   144   153   154    1
   145   164   165    1
   146     2     1    1
   147     2     5    1
   148   158   157    1
   149   159   160    1
   150   159   155   am
   151   157   154    1
   152     8     6    1
   153   154   155    1
   154   160   161    1
   155     5     6    1
   156   155   156    2
   157     6     7    1
   158   161   162    2
   159   180   178    1
   160   172   171    1
   161   177   178    1
   162   177   174    1
   163   178   179    1
   164   167   168    1
   165   171   168    1
   166   173   174    1
   167   173   169   am
   168   168   169    1
   169   174   175    1
   170   169   170    2
   171   175   176    2
