@<TRIPOS>MOLECULE
tmp/6hegA00.pdb
 166 154 0 0 0
SMALL
GASTEIGER

@<TRIPOS>ATOM
      1  N         47.0330   63.7580   85.8300 N.3     2  LEU2       -0.1231
      2  CA        47.0260   62.3390   86.1510 C.3     2  LEU2        0.1678
      3  C         45.6160   61.7630   86.0640 C.2     2  LEU2        0.2434
      4  O         44.6300   62.4660   86.3190 O.2     2  LEU2       -0.2733
      5  CB        47.5870   62.1140   87.5480 C.3     2  LEU2        0.0284
      6  CG        48.9570   62.7620   87.7480 C.3     2  LEU2        0.0019
      7  CD1       49.3230   62.7700   89.2160 C.3     2  LEU2        0.0001
      8  CD2       50.0280   62.0490   86.9210 C.3     2  LEU2        0.0001
      9  N         45.4980   60.4820   85.7050 N.am    3  PRO3       -0.2729
     10  CA        44.1630   59.8920   85.5070 C.3     3  PRO3        0.1401
     11  C         43.2860   59.9050   86.7490 C.2     3  PRO3        0.2269
     12  O         42.0700   59.7020   86.6230 O.2     3  PRO3       -0.2865
     13  CB        44.4760   58.4500   85.0770 C.3     3  PRO3        0.0296
     14  CG        45.9100   58.4770   84.6180 C.3     3  PRO3        0.0237
     15  CD        46.5790   59.5110   85.4660 C.3     3  PRO3        0.0939
     16  N         47.3400   51.0600   88.7590 N.3    27  THR27      -0.1203
     17  CA        48.6640   51.5500   89.1130 C.3    27  THR27       0.1994
     18  C         49.1170   52.5610   88.0710 C.2    27  THR27       0.2618
     19  O         48.9640   52.3400   86.8670 O.2    27  THR27      -0.2717
     20  CB        49.6800   50.4080   89.1960 C.3    27  THR27       0.1784
     21  OG1       49.3230   49.4920   90.2390 O.3    27  THR27      -0.2211
     22  CG2       51.0670   50.9650   89.4830 C.3    27  THR27       0.0376
     23  N         49.6750   53.6780   88.5380 N.am   28  GLY28      -0.1942
     24  CA        50.0680   54.7620   87.6570 C.3    28  GLY28       0.2014
     25  C         49.1750   55.9900   87.6760 C.2    28  GLY28       0.2639
     26  O         49.4500   56.9450   86.9350 O.2    28  GLY28      -0.2714
     27  N         48.1280   56.0110   88.5000 N.am   29  ALA29      -0.1963
     28  CA        47.1820   57.1150   88.5390 C.3    29  ALA29       0.1728
     29  C         47.4540   58.1040   89.6760 C.2    29  ALA29       0.2617
     30  O         46.5440   58.8410   90.0670 O.2    29  ALA29      -0.2715
     31  CB        45.7590   56.5710   88.6470 C.3    29  ALA29       0.0334
     32  N         48.6770   58.1390   90.2120 N.am   30  GLY30      -0.1940
     33  CA        49.0180   59.1620   91.1920 C.3    30  GLY30       0.2014
     34  C         48.1970   59.1500   92.4630 C.2    30  GLY30       0.2639
     35  O         47.9910   60.2070   93.0690 O.2    30  GLY30      -0.2714
     36  N         47.7320   57.9740   92.8940 N.am   31  LYS31      -0.1963
     37  CA        47.0840   57.8650   94.1970 C.3    31  LYS31       0.1728
     38  C         48.0400   58.1990   95.3330 C.2    31  LYS31       0.2617
     39  O         47.6110   58.7100   96.3730 O.2    31  LYS31      -0.2715
     40  CB        46.5110   56.4610   94.3920 C.3    31  LYS31       0.0311
     41  CG        45.6530   56.0040   93.2330 C.3    31  LYS31       0.0038
     42  CD        44.8110   54.7790   93.5890 C.3    31  LYS31       0.0206
     43  CE        45.6680   53.4980   93.6820 C.3    31  LYS31       0.1093
     44  NZ        46.2820   53.0930   92.3480 N.3    31  LYS31      -0.1314
     45  N         49.3340   57.9220   95.1610 N.am   32  SER32      -0.1936
     46  CA        50.2940   58.1220   96.2400 C.3    32  SER32       0.2055
     47  C         50.9990   59.4620   96.1770 C.2    32  SER32       0.2643
     48  O         51.5220   59.9160   97.1990 O.2    32  SER32      -0.2714
     49  CB        51.3760   57.0370   96.2320 C.3    32  SER32       0.2130
     50  OG        50.9110   55.8100   95.7130 O.3    32  SER32      -0.2179
     51  N         51.0670   60.0910   95.0080 N.am   33  THR33      -0.1950
     52  CA        51.8410   61.3120   94.8730 C.3    33  THR33       0.1897
     53  C         51.0380   62.5150   94.4160 C.2    33  THR33       0.2313
     54  O         51.5830   63.6200   94.4000 O.2    33  THR33      -0.2863
     55  CB        52.9980   61.1000   93.8880 C.3    33  THR33       0.1794
     56  OG1       52.4680   60.8300   92.5820 O.3    33  THR33      -0.2208
     57  CG2       53.8700   59.9370   94.3410 C.3    33  THR33       0.0378
     58  N         60.1000   56.8670   99.3400 N.3    61  ASN61      -0.1240
     59  CA        59.9990   57.3930   97.9840 C.3    61  ASN61       0.1653
     60  C         58.7640   58.2670   97.8160 C.2    61  ASN61       0.2266
     61  O         58.8230   59.2980   97.1400 O.2    61  ASN61      -0.2867
     62  CB        59.9980   56.2510   96.9640 C.3    61  ASN61       0.1155
     63  CG        59.3970   56.6630   95.6240 C.2    61  ASN61       0.2627
     64  OD1       58.2050   56.4620   95.3850 O.2    61  ASN61      -0.2716
     65  ND2       60.2170   57.2440   94.7480 N.am   61  ASN61      -0.0877
     66  N         58.6090   62.1110   96.7900 N.3    65  ARG65      -0.1245
     67  CA        57.8330   62.5300   95.6240 C.3    65  ARG65       0.1563
     68  C         56.8390   63.6320   95.9870 C.2    65  ARG65       0.2260
     69  O         56.7260   64.6390   95.2790 O.2    65  ARG65      -0.2867
     70  CB        57.0960   61.3360   95.0140 C.3    65  ARG65       0.0307
     71  CG        57.9530   60.2090   94.4420 C.3    65  ARG65       0.0489
     72  CD        57.0530   58.9840   94.1750 C.3    65  ARG65       0.2205
     73  NE        57.5910   58.0420   93.1910 N.pl3  65  ARG65      -0.0865
     74  CZ        56.9550   56.9500   92.7600 C.cat  65  ARG65       0.5346
     75  NH1       55.7460   56.6380   93.2210 N.pl3  65  ARG65       0.1354
     76  NH2       57.5320   56.1620   91.8610 N.pl3  65  ARG65       0.1354
     77  N         58.7870   66.8760   96.6180 N.3    68  GLU68      -0.1245
     78  CA        59.2030   67.4550   95.3450 C.3    68  GLU68       0.1567
     79  C         58.0280   68.0730   94.5930 C.2    68  GLU68       0.2260
     80  O         58.2030   69.0710   93.8860 O.2    68  GLU68      -0.2867
     81  CB        59.8930   66.3900   94.4820 C.3    68  GLU68       0.0388
     82  CG        61.2680   65.9200   94.9950 C.3    68  GLU68       0.1160
     83  CD        61.5380   64.4320   94.7360 C.2    68  GLU68       0.3649
     84  OE1       62.1990   63.7900   95.5840 O.co2  68  GLU68      -0.2457
     85  OE2       61.0890   63.9030   93.6940 O.co2  68  GLU68      -0.2457
     86  N         47.7100   51.1110   99.2720 N.3   122  GLU122     -0.1245
     87  CA        48.0920   49.7630   98.8580 C.3   122  GLU122      0.1567
     88  C         47.4290   48.7150   99.7410 C.2   122  GLU122      0.2260
     89  O         48.0810   47.8440  100.3240 O.2   122  GLU122     -0.2867
     90  CB        49.6090   49.6040   98.8740 C.3   122  GLU122      0.0388
     91  CG        50.3060   50.5040   97.8810 C.3   122  GLU122      0.1160
     92  CD        49.8910   50.1860   96.4680 C.2   122  GLU122      0.3649
     93  OE1       50.2640   49.0960   95.9750 O.co2 122  GLU122     -0.2457
     94  OE2       49.1760   51.0190   95.8670 O.co2 122  GLU122     -0.2457
     95  N         44.1090   49.1200   94.4530 N.3   155  ALA155     -0.1245
     96  CA        44.5510   49.2350   93.0660 C.3   155  ALA155      0.1562
     97  C         43.9250   48.1840   92.1650 C.2   155  ALA155      0.2260
     98  O         44.2870   48.0920   90.9860 O.2   155  ALA155     -0.2867
     99  CB        46.0770   49.1500   92.9800 C.3   155  ALA155      0.0290
    100  N         65.6260   56.1460   91.3790 N.3   253  ARG253     -0.1245
    101  CA        65.0250   56.9760   90.3400 C.3   253  ARG253      0.1563
    102  C         65.6440   56.7090   88.9740 C.2   253  ARG253      0.2260
    103  O         65.0170   57.0140   87.9550 O.2   253  ARG253     -0.2867
    104  CB        65.1750   58.4560   90.7050 C.3   253  ARG253      0.0307
    105  CG        64.7520   59.4440   89.6120 C.3   253  ARG253      0.0489
    106  CD        63.2420   59.7240   89.6100 C.3   253  ARG253      0.2205
    107  NE        62.9510   61.1570   89.5250 N.pl3 253  ARG253     -0.0865
    108  CZ        61.7610   61.6800   89.2300 C.cat 253  ARG253      0.5346
    109  NH1       60.7170   60.8970   88.9720 N.pl3 253  ARG253      0.1354
    110  NH2       61.6160   62.9980   89.1840 N.pl3 253  ARG253      0.1354
    111  N         63.3130   54.0130   87.9900 N.3   256  ILE256     -0.1231
    112  CA        61.9560   54.5290   87.8150 C.3   256  ILE256      0.1692
    113  C         61.8840   55.4480   86.5980 C.2   256  ILE256      0.2591
    114  O         60.9730   55.3340   85.7690 O.2   256  ILE256     -0.2718
    115  CB        61.4720   55.2440   89.0910 C.3   256  ILE256      0.0266
    116  CG1       61.0940   54.2270   90.1710 C.3   256  ILE256      0.0019
    117  CG2       60.2640   56.1190   88.7850 C.3   256  ILE256      0.0020
    118  CD1       62.0540   54.1520   91.3380 C.3   256  ILE256      0.0001
    119  N         62.8590   56.3500   86.4590 N.am  257  LEU257     -0.1980
    120  CA        62.8540   57.3210   85.3730 C.3   257  LEU257      0.1596
    121  C         63.0920   56.6460   84.0280 C.2   257  LEU257      0.2287
    122  O         63.6550   55.5530   83.9580 O.2   257  LEU257     -0.2864
    123  CB        63.9260   58.3850   85.5930 C.3   257  LEU257      0.0297
    124  CG        63.5420   59.5960   86.4360 C.3   257  LEU257      0.0022
    125  CD1       64.6940   60.5890   86.4840 C.3   257  LEU257      0.0001
    126  CD2       62.2790   60.2440   85.8840 C.3   257  LEU257      0.0001
    127  N         52.6890   46.8630   92.1530 N.3   275  THR275     -0.1203
    128  CA        51.8000   48.0130   92.2660 C.3   275  THR275      0.1994
    129  C         52.3790   49.1840   93.0470 C.2   275  THR275      0.2618
    130  O         51.9190   50.3120   92.8460 O.2   275  THR275     -0.2717
    131  CB        50.4730   47.5990   92.9210 C.3   275  THR275      0.1784
    132  OG1       50.7190   47.1440   94.2580 O.3   275  THR275     -0.2211
    133  CG2       49.8160   46.4760   92.1330 C.3   275  THR275      0.0376
    134  N         53.3770   48.9690   93.9050 N.am  276  SER276     -0.1951
    135  CA        53.8470   50.0400   94.7810 C.3   276  SER276      0.1924
    136  C         54.5190   51.1560   93.9950 C.2   276  SER276      0.2314
    137  O         54.2400   52.3380   94.2180 O.2   276  SER276     -0.2863
    138  CB        54.7920   49.4750   95.8400 C.3   276  SER276      0.2116
    139  OG        54.1480   48.4490   96.5830 O.3   276  SER276     -0.2180
    140  N         55.9970   52.9380   90.2590 N.3   278  THR278     -0.1218
    141  CA        55.6280   53.1410   88.8660 C.3   278  THR278      0.1862
    142  C         56.8930   53.2900   88.0340 C.2   278  THR278      0.2287
    143  O         57.5690   54.3220   88.1020 O.2   278  THR278     -0.2866
    144  CB        54.7350   54.3670   88.7130 C.3   278  THR278      0.1770
    145  OG1       53.6740   54.3020   89.6720 O.3   278  THR278     -0.2211
    146  CG2       54.1500   54.4100   87.3090 C.3   278  THR278      0.0375
    147  N         58.8690   53.8410   84.5590 N.3   280  GLU280     -0.1245
    148  CA        58.5890   54.6500   83.3800 C.3   280  GLU280      0.1567
    149  C         59.2600   54.0730   82.1420 C.2   280  GLU280      0.2260
    150  O         60.3170   53.4410   82.2220 O.2   280  GLU280     -0.2867
    151  CB        59.0710   56.0830   83.5840 C.3   280  GLU280      0.0388
    152  CG        58.5210   56.7280   84.8210 C.3   280  GLU280      0.1160
    153  CD        57.0180   56.8430   84.7780 C.2   280  GLU280      0.3649
    154  OE1       56.3790   56.2410   83.8860 O.co2 280  GLU280     -0.2457
    155  OE2       56.4740   57.5480   85.6380 O.co2 280  GLU280     -0.2457
    156  N         51.2770   50.8590   80.0330 N.3   324  ARG324     -0.1245
    157  CA        50.9340   52.2340   80.3770 C.3   324  ARG324      0.1563
    158  C         51.2520   53.2240   79.2610 C.2   324  ARG324      0.2260
    159  O         50.6170   54.2800   79.1800 O.2   324  ARG324     -0.2867
    160  CB        51.6600   52.6480   81.6570 C.3   324  ARG324      0.0307
    161  CG        51.1230   51.9730   82.9080 C.3   324  ARG324      0.0489
    162  CD        51.8910   52.4050   84.1480 C.3   324  ARG324      0.2205
    163  NE        51.8850   53.8560   84.2860 N.pl3 324  ARG324     -0.0865
    164  CZ        52.8660   54.6490   83.8720 C.cat 324  ARG324      0.5346
    165  NH1       53.9450   54.1320   83.3000 N.pl3 324  ARG324      0.1354
    166  NH2       52.7700   55.9620   84.0350 N.pl3 324  ARG324      0.1354
@<TRIPOS>BOND
     1   159   158    2
     2   158   157    1
     3   156   157    1
     4   157   160    1
     5   160   161    1
     6   149   150    2
     7   149   148    1
     8   161   162    1
     9   165   164    1
    10   148   151    1
    11   148   147    1
    12   151   152    1
    13   164   166    1
    14   164   163    2
    15   154   153   ar
    16   122   121    2
    17   121   120    1
    18   162   163    1
    19    14    13    1
    20    14    15    1
    21   153   152    1
    22   153   155   ar
    23    13    10    1
    24   120   123    1
    25   120   119    1
    26    15     9    1
    27    10     9    1
    28    10    11    1
    29   123   124    1
    30     9     3   am
    31   114   113    2
    32     1     2    1
    33   126   124    1
    34     3     2    1
    35     3     4    2
    36     2     5    1
    37   124   125    1
    38   119   113   am
    39   113   112    1
    40    12    11    2
    41    19    18    2
    42     8     6    1
    43    26    25    2
    44   146   144    1
    45     5     6    1
    46    24    25    1
    47    24    23    1
    48    25    27   am
    49     6     7    1
    50   112   111    1
    51   112   115    1
    52   103   102    2
    53   142   143    2
    54   142   141    1
    55    18    23   am
    56    18    17    1
    57    27    28    1
    58    28    31    1
    59    28    29    1
    60   144   141    1
    61   144   145    1
    62    16    17    1
    63   117   115    1
    64   141   140    1
    65   109   108    1
    66   102   101    1
    67   115   116    1
    68    17    20    1
    69   110   108    1
    70    20    22    1
    71    20    21    1
    72   108   107    2
    73   107   106    1
    74   106   105    1
    75   105   104    1
    76    29    30    2
    77    29    32   am
    78   116   118    1
    79    32    33    1
    80   101   104    1
    81   101   100    1
    82    98    97    2
    83    33    34    1
    84    76    74    1
    85   133   131    1
    86   127   128    1
    87    97    96    1
    88   128   131    1
    89   128   129    1
    90    44    43    1
    91    34    36   am
    92    34    35    2
    93    56    55    1
    94    74    73    2
    95    74    75    1
    96   130   129    2
    97    36    37    1
    98   131   132    1
    99    99    96    1
   100   129   134   am
   101    96    95    1
   102    73    72    1
   103    41    42    1
   104    41    40    1
   105    42    43    1
   106    85    83   ar
   107    80    79    2
   108    55    57    1
   109    55    52    1
   110   134   135    1
   111   136   137    2
   112   136   135    1
   113    72    71    1
   114    37    40    1
   115    37    38    1
   116    54    53    2
   117    53    52    1
   118    71    70    1
   119    81    82    1
   120    81    78    1
   121    79    78    1
   122    83    82    1
   123    83    84   ar
   124    65    63   am
   125   135   138    1
   126    52    51    1
   127    51    47   am
   128    70    67    1
   129    45    38   am
   130    45    46    1
   131    69    68    2
   132    38    39    2
   133    78    77    1
   134    64    63    2
   135    63    62    1
   136    67    68    1
   137    67    66    1
   138    50    49    1
   139   138   139    1
   140    94    92   ar
   141    93    92   ar
   142    47    46    1
   143    47    48    2
   144    49    46    1
   145    92    91    1
   146    62    59    1
   147    61    60    2
   148    60    59    1
   149    91    90    1
   150    59    58    1
   151    87    90    1
   152    87    86    1
   153    87    88    1
   154    88    89    2
