@<TRIPOS>MOLECULE
tmp/6hepB01.pdb
 80 72 0 0 0
SMALL
GASTEIGER

@<TRIPOS>ATOM
      1  N         54.6830    0.4390  -24.2710 N.3     1  MET1       -0.1230
      2  CA        55.4310    0.2840  -23.0270 C.3     1  MET1        0.1702
      3  C         55.3710   -1.1690  -22.5530 C.2     1  MET1        0.2593
      4  O         55.8770   -2.0670  -23.2260 O.2     1  MET1       -0.2718
      5  CB        54.8890    1.2450  -21.9630 C.3     1  MET1        0.0401
      6  CG        53.3970    1.5360  -22.1020 C.3     1  MET1        0.0596
      7  SD        52.8590    3.0920  -21.3490 S.3     1  MET1       -0.1393
      8  CE        52.7490    4.1950  -22.7700 C.3     1  MET1        0.0692
      9  N         54.7750   -1.4100  -21.3920 N.am    2  GLY2       -0.1942
     10  CA        54.6740   -2.7720  -20.9040 C.3     2  GLY2        0.2014
     11  C         54.3580   -2.8720  -19.4290 C.2     2  GLY2        0.2639
     12  O         54.6260   -1.9410  -18.6670 O.2     2  GLY2       -0.2714
     13  N         53.8130   -4.0170  -19.0100 N.am    3  SER3       -0.1949
     14  CA        53.3460   -4.1510  -17.6290 C.3     3  SER3        0.1924
     15  C         54.4750   -3.9730  -16.6170 C.2     3  SER3        0.2314
     16  O         54.2260   -3.5580  -15.4770 O.2     3  SER3       -0.2863
     17  CB        52.6610   -5.5080  -17.4440 C.3     3  SER3        0.2116
     18  OG        53.6070   -6.5650  -17.5130 O.3     3  SER3       -0.2180
     19  N         54.7430   -0.1980  -15.5300 N.3     6  MET6       -0.1245
     20  CA        53.4940    0.4510  -15.1640 C.3     6  MET6        0.1570
     21  C         53.2910    0.3300  -13.6610 C.2     6  MET6        0.2261
     22  O         53.6650   -0.6800  -13.0550 O.2     6  MET6       -0.2867
     23  CB        52.3080   -0.1750  -15.9110 C.3     6  MET6        0.0387
     24  CG        52.3860    0.0130  -17.4290 C.3     6  MET6        0.0595
     25  SD        51.1290   -0.9320  -18.3140 S.3     6  MET6       -0.1393
     26  CE        49.6260   -0.2370  -17.6020 C.3     6  MET6        0.0692
     27  N         47.6920   -0.2510  -14.1430 N.3    11  LEU11      -0.1245
     28  CA        47.2320   -1.5790  -14.5330 C.3    11  LEU11       0.1561
     29  C         45.7780   -1.7860  -14.1410 C.2    11  LEU11       0.2260
     30  O         45.0250   -2.4360  -14.8690 O.2    11  LEU11      -0.2867
     31  CB        48.1230   -2.6520  -13.9100 C.3    11  LEU11       0.0270
     32  CG        49.5320   -2.7090  -14.5190 C.3    11  LEU11       0.0019
     33  CD1       50.4930   -3.3830  -13.5470 C.3    11  LEU11       0.0001
     34  CD2       49.5120   -3.4460  -15.8670 C.3    11  LEU11       0.0001
     35  N         43.7230   -0.0760  -16.7170 N.3    14  LYS14      -0.1245
     36  CA        43.7070   -0.9260  -17.9040 C.3    14  LYS14       0.1561
     37  C         42.7420   -2.1000  -17.7370 C.2    14  LYS14       0.2260
     38  O         41.9670   -2.4110  -18.6510 O.2    14  LYS14      -0.2867
     39  CB        45.1320   -1.4100  -18.1970 C.3    14  LYS14       0.0271
     40  CG        45.2660   -2.3040  -19.4310 C.3    14  LYS14       0.0035
     41  CD        44.7750   -1.6050  -20.6890 C.3    14  LYS14       0.0206
     42  CE        45.1650   -2.3830  -21.9440 C.3    14  LYS14       0.1093
     43  NZ        46.6520   -2.4970  -22.0750 N.3    14  LYS14      -0.1314
     44  N         39.1330   -0.8540  -18.2320 N.3    17  LEU17      -0.1245
     45  CA        38.8110   -0.6370  -19.6420 C.3    17  LEU17       0.1561
     46  C         38.5880   -1.9610  -20.3560 C.2    17  LEU17       0.2260
     47  O         37.6410   -2.1090  -21.1410 O.2    17  LEU17      -0.2867
     48  CB        39.9280    0.1320  -20.3380 C.3    17  LEU17       0.0270
     49  CG        40.1060    1.5770  -19.8970 C.3    17  LEU17       0.0019
     50  CD1       41.3390    2.1460  -20.5560 C.3    17  LEU17       0.0001
     51  CD2       38.8670    2.4070  -20.1940 C.3    17  LEU17       0.0001
     52  N         37.1850   -7.6580  -23.1830 N.3    23  ARG23      -0.1245
     53  CA        38.4610   -8.2360  -23.5650 C.3    23  ARG23       0.1563
     54  C         39.0520   -8.8430  -22.2930 C.2    23  ARG23       0.2260
     55  O         39.9250   -8.2780  -21.6380 O.2    23  ARG23      -0.2867
     56  CB        39.3430   -7.1810  -24.2210 C.3    23  ARG23       0.0307
     57  CG        38.7560   -6.7580  -25.5920 C.3    23  ARG23       0.0489
     58  CD        39.5630   -5.7180  -26.2900 C.3    23  ARG23       0.2205
     59  NE        40.9350   -6.1360  -26.5320 N.pl3  23  ARG23      -0.0865
     60  CZ        41.3860   -6.5780  -27.6980 C.cat  23  ARG23       0.5346
     61  NH1       40.5590   -6.6700  -28.7430 N.pl3  23  ARG23       0.1354
     62  NH2       42.6700   -6.9150  -27.8240 N.pl3  23  ARG23       0.1354
     63  N         42.9030   -9.6140  -21.9220 N.3    26  ASP26      -0.1239
     64  CA        43.6240   -8.3920  -21.5570 C.3    26  ASP26       0.1674
     65  C         43.4300   -8.0700  -20.0820 C.2    26  ASP26       0.2266
     66  O         44.3720   -7.6700  -19.3950 O.2    26  ASP26      -0.2867
     67  CB        43.1370   -7.1890  -22.3800 C.3    26  ASP26       0.1410
     68  CG        43.5900   -7.2120  -23.8420 C.2    26  ASP26       0.3668
     69  OD1       44.3920   -8.0920  -24.2230 O.co2  26  ASP26      -0.2456
     70  OD2       43.1110   -6.3350  -24.6130 O.co2  26  ASP26      -0.2456
     71  N         45.4860  -10.3490  -17.9200 N.3    29  ALA29      -0.1231
     72  CA        46.9150  -10.0600  -18.0100 C.3    29  ALA29       0.1694
     73  C         47.2760   -8.8420  -17.1650 C.2    29  ALA29       0.2591
     74  O         48.3160   -8.8240  -16.4940 O.2    29  ALA29      -0.2718
     75  CB        47.3140   -9.8550  -19.4750 C.3    29  ALA29       0.0304
     76  N         46.4070   -7.8320  -17.1500 N.am   30  ALA30      -0.1980
     77  CA        46.6790   -6.6480  -16.3420 C.3    30  ALA30       0.1597
     78  C         46.6320   -6.9690  -14.8510 C.2    30  ALA30       0.2287
     79  O         47.5100   -6.5470  -14.0930 O.2    30  ALA30      -0.2864
     80  CB        45.6740   -5.5410  -16.6780 C.3    30  ALA30       0.0319
@<TRIPOS>BOND
     1    61    60    1
     2    62    60    1
     3    60    59    2
     4    59    58    1
     5    58    57    1
     6    57    56    1
     7    70    68   ar
     8     1     2    1
     9    69    68   ar
    10    56    53    1
    11    68    67    1
    12    53    52    1
    13    53    54    1
    14     4     3    2
    15     2     3    1
    16     2     5    1
    17     8     7    1
    18     3     9   am
    19    67    64    1
    20    54    55    2
    21     6     5    1
    22     6     7    1
    23    43    42    1
    24    42    41    1
    25    63    64    1
    26    64    65    1
    27     9    10    1
    28    47    46    2
    29    10    11    1
    30    41    40    1
    31    50    49    1
    32    46    45    1
    33    48    49    1
    34    48    45    1
    35    51    49    1
    36    65    66    2
    37    45    44    1
    38    75    72    1
    39    40    39    1
    40    11    13   am
    41    11    12    2
    42    13    14    1
    43    38    37    2
    44    25    26    1
    45    25    24    1
    46    39    36    1
    47    72    71    1
    48    72    73    1
    49    36    37    1
    50    36    35    1
    51    14    17    1
    52    14    15    1
    53    18    17    1
    54    24    23    1
    55    73    76   am
    56    73    74    2
    57    76    77    1
    58    80    77    1
    59    15    16    2
    60    77    78    1
    61    23    20    1
    62    34    32    1
    63    19    20    1
    64    20    21    1
    65    30    29    2
    66    78    79    2
    67    28    27    1
    68    28    29    1
    69    28    31    1
    70    32    31    1
    71    32    33    1
    72    21    22    2
