@<TRIPOS>MOLECULE
tmp/6hezB00.pdb
 170 163 0 0 0
SMALL
GASTEIGER

@<TRIPOS>ATOM
      1  N        -17.9460  -25.3460   -5.3180 N.3    54  TYR54      -0.1241
      2  CA       -18.3680  -26.4540   -6.2020 C.3    54  TYR54       0.1605
      3  C        -18.3710  -26.0660   -7.6870 C.2    54  TYR54       0.2264
      4  O        -18.2390  -26.9310   -8.5550 O.2    54  TYR54      -0.2867
      5  CB       -19.7740  -26.9610   -5.8290 C.3    54  TYR54       0.0534
      6  CG       -19.9200  -27.4850   -4.4120 C.ar   54  TYR54      -0.0201
      7  CD1      -19.6170  -28.8180   -4.1010 C.ar   54  TYR54      -0.0009
      8  CD2      -20.3680  -26.6560   -3.3780 C.ar   54  TYR54      -0.0009
      9  CE1      -19.7460  -29.3030   -2.8020 C.ar   54  TYR54       0.0417
     10  CE2      -20.5050  -27.1340   -2.0780 C.ar   54  TYR54       0.0417
     11  CZ       -20.1970  -28.4560   -1.7930 C.ar   54  TYR54       0.1957
     12  OH       -20.3360  -28.9360   -0.5020 O.3    54  TYR54      -0.2866
     13  N        -19.4960  -19.5780    6.8520 N.3   110  PRO110     -0.2102
     14  CA       -20.1270  -20.5950    6.0530 C.3   110  PRO110      0.1504
     15  C        -20.0640  -21.9590    6.7610 C.2   110  PRO110      0.2576
     16  O        -19.4860  -22.0820    7.8440 O.2   110  PRO110     -0.2718
     17  CB       -19.2410  -20.6210    4.8150 C.3   110  PRO110      0.0282
     18  CG       -17.8820  -20.3860    5.3650 C.3   110  PRO110      0.0208
     19  CD       -18.1080  -19.3440    6.4210 C.3   110  PRO110      0.0893
     20  N        -20.6490  -22.9830    6.1520 N.am  111  GLY111     -0.1943
     21  CA       -20.6800  -24.3100    6.7820 C.3   111  GLY111      0.2014
     22  C        -19.3770  -25.1000    6.7440 C.2   111  GLY111      0.2639
     23  O        -19.3580  -26.2670    7.1170 O.2   111  GLY111     -0.2714
     24  N        -18.3000  -24.4860    6.2670 N.am  112  THR112     -0.1950
     25  CA       -16.9600  -25.0670    6.3690 C.3   112  THR112      0.1897
     26  C        -16.0120  -23.9170    6.6470 C.2   112  THR112      0.2313
     27  O        -16.3140  -22.7890    6.2970 O.2   112  THR112     -0.2863
     28  CB       -16.5280  -25.8630    5.1110 C.3   112  THR112      0.1794
     29  OG1      -15.2060  -26.3720    5.3070 O.3   112  THR112     -0.2208
     30  CG2      -16.5320  -25.0050    3.8540 C.3   112  THR112      0.0378
     31  N        -22.7150  -16.3010    2.6480 N.3   126  HIS126     -0.1226
     32  CA       -23.7120  -16.1100    3.7140 C.3   126  HIS126      0.1752
     33  C        -23.5970  -17.1770    4.7750 C.2   126  HIS126      0.2597
     34  O        -23.0330  -18.2480    4.5480 O.2   126  HIS126     -0.2718
     35  CB       -25.1230  -16.1770    3.1370 C.3   126  HIS126      0.0759
     36  CG       -25.4060  -17.4720    2.4040 C.ar  126  HIS126      0.0818
     37  ND1      -25.0380  -17.6740    1.1190 N.ar  126  HIS126     -0.2268
     38  CD2      -25.9940  -18.6660    2.8380 C.ar  126  HIS126      0.1154
     39  CE1      -25.3930  -18.9160    0.7340 C.ar  126  HIS126      0.1986
     40  NE2      -25.9770  -19.5290    1.7890 N.ar  126  HIS126     -0.2212
     41  N        -24.1460  -16.8940    5.9510 N.am  127  GLY127     -0.1942
     42  CA       -24.1340  -17.8440    7.0620 C.3   127  GLY127      0.2014
     43  C        -25.5090  -17.9790    7.6950 C.2   127  GLY127      0.2638
     44  O        -26.5150  -17.4640    7.1630 O.2   127  GLY127     -0.2714
     45  N        -25.5220  -18.6650    8.8390 N.am  128  LYS128     -0.1977
     46  CA       -26.7020  -18.9090    9.6650 C.3   128  LYS128      0.1596
     47  C        -27.2470  -17.6200   10.2800 C.2   128  LYS128      0.2287
     48  O        -28.3620  -17.6020   10.7850 O.2   128  LYS128     -0.2864
     49  CB       -26.3700  -19.9500   10.7670 C.3   128  LYS128      0.0298
     50  CG       -26.3550  -21.3840   10.2450 C.3   128  LYS128      0.0038
     51  CD       -25.7760  -22.3950   11.2300 C.3   128  LYS128      0.0206
     52  CE       -25.6280  -23.7710   10.5820 C.3   128  LYS128      0.1093
     53  NZ       -25.7990  -24.8700   11.5740 N.3   128  LYS128     -0.1314
     54  N        -31.0720  -21.5930   11.4920 N.3   222  SER222     -0.1217
     55  CA       -31.1750  -22.5000   10.3550 C.3   222  SER222      0.1889
     56  C        -31.9200  -23.7440   10.8150 C.2   222  SER222      0.2288
     57  O        -32.1650  -23.9170   12.0020 O.2   222  SER222     -0.2866
     58  CB       -29.7890  -22.8790    9.8190 C.3   222  SER222      0.2089
     59  OG       -29.0100  -23.5680   10.7920 O.3   222  SER222     -0.2183
     60  N        -32.5700  -28.1800    9.8500 N.3   224  TRP224     -0.1241
     61  CA       -32.5990  -29.3560    8.9970 C.3   224  TRP224      0.1605
     62  C        -34.0500  -29.5840    8.6550 C.2   224  TRP224      0.2264
     63  O        -34.9210  -29.4110    9.5100 O.2   224  TRP224     -0.2867
     64  CB       -32.0670  -30.6060    9.6990 C.3   224  TRP224      0.0550
     65  CG       -30.6370  -30.5600   10.2150 C.ar  224  TRP224      0.0003
     66  CD1      -30.2100  -30.6790   11.5460 C.ar  224  TRP224      0.0946
     67  CD2      -29.3860  -30.4310    9.4300 C.ar  224  TRP224      0.0152
     68  NE1      -28.8410  -30.6190   11.6340 N.ar  224  TRP224     -0.2442
     69  CE2      -28.2820  -30.4710   10.4070 C.ar  224  TRP224      0.0810
     70  CE3      -29.0830  -30.2930    8.0730 C.ar  224  TRP224      0.0012
     71  CZ2      -26.9480  -30.3670   10.0160 C.ar  224  TRP224      0.0191
     72  CZ3      -27.7330  -30.1880    7.6950 C.ar  224  TRP224      0.0001
     73  CH2      -26.6940  -30.2190    8.6450 C.ar  224  TRP224      0.0015
     74  N        -22.7060  -25.0270   15.0290 N.3   284  TYR284     -0.1227
     75  CA       -22.5340  -25.0490   13.5650 C.3   284  TYR284      0.1736
     76  C        -22.2550  -26.5160   13.1190 C.2   284  TYR284      0.2595
     77  O        -21.1390  -26.8510   12.6810 O.2   284  TYR284     -0.2718
     78  CB       -21.3700  -24.1180   13.1910 C.3   284  TYR284      0.0548
     79  CG       -21.7430  -22.8130   12.5330 C.ar  284  TYR284     -0.0200
     80  CD1      -21.5760  -22.6540   11.1620 C.ar  284  TYR284     -0.0009
     81  CD2      -22.2460  -21.7380   13.2670 C.ar  284  TYR284     -0.0009
     82  CE1      -21.9180  -21.4800   10.5320 C.ar  284  TYR284      0.0417
     83  CE2      -22.5850  -20.5400   12.6420 C.ar  284  TYR284      0.0417
     84  CZ       -22.4130  -20.4160   11.2720 C.ar  284  TYR284      0.1957
     85  OH       -22.7330  -19.2540   10.5900 O.3   284  TYR284     -0.2866
     86  N        -23.2800  -27.3740   13.2480 N.am  285  HIS285     -0.1975
     87  CA       -23.1730  -28.8470   13.1350 C.3   285  HIS285      0.1656
     88  C        -21.7850  -29.3990   12.8030 C.2   285  HIS285      0.2291
     89  O        -21.5000  -30.5720   13.0500 O.2   285  HIS285     -0.2864
     90  CB       -24.2100  -29.3870   12.1590 C.3   285  HIS285      0.0771
     91  CG       -24.3020  -30.9010   12.1170 C.ar  285  HIS285      0.0820
     92  ND1      -25.2150  -31.6570   12.7130 N.ar  285  HIS285     -0.2267
     93  CD2      -23.5260  -31.7270   11.3480 C.ar  285  HIS285      0.1154
     94  CE1      -25.0480  -32.9000   12.3310 C.ar  285  HIS285      0.1986
     95  NE2      -24.0350  -32.9220   11.5140 N.ar  285  HIS285     -0.2212
     96  N        -28.8040  -25.4420   -4.5670 N.3   291  GLN291     -0.1245
     97  CA       -29.2610  -24.4040   -3.6770 C.3   291  GLN291      0.1566
     98  C        -30.0260  -23.3670   -4.4620 C.2   291  GLN291      0.2260
     99  O        -29.6430  -23.0220   -5.5820 O.2   291  GLN291     -0.2867
    100  CB       -28.0830  -23.7500   -2.9410 C.3   291  GLN291      0.0367
    101  CG       -28.5450  -22.8060   -1.8440 C.3   291  GLN291      0.0905
    102  CD       -27.4160  -22.2350   -0.9950 C.2   291  GLN291      0.2608
    103  OE1      -26.2480  -22.6320   -1.1150 O.2   291  GLN291     -0.2717
    104  NE2      -27.7660  -21.3020   -0.1180 N.am  291  GLN291     -0.0878
    105  N        -29.4250  -34.6830    3.5780 N.3   318  LEU318     -0.1245
    106  CA       -28.8480  -33.4550    4.1270 C.3   318  LEU318      0.1561
    107  C        -29.4810  -32.2010    3.5240 C.2   318  LEU318      0.2260
    108  O        -29.0830  -31.7620    2.4440 O.2   318  LEU318     -0.2867
    109  CB       -27.3330  -33.3890    3.8890 C.3   318  LEU318      0.0270
    110  CG       -26.3490  -34.4940    4.2950 C.3   318  LEU318      0.0019
    111  CD1      -24.9480  -34.0610    3.8730 C.3   318  LEU318      0.0001
    112  CD2      -26.3970  -34.8070    5.7900 C.3   318  LEU318      0.0001
    113  N        -30.6280  -28.1230    4.3550 N.3   320  VAL320     -0.1245
    114  CA       -30.6540  -26.9620    5.2340 C.3   320  VAL320      0.1561
    115  C        -31.6730  -25.9500    4.7380 C.2   320  VAL320      0.2260
    116  O        -31.7610  -25.6870    3.5560 O.2   320  VAL320     -0.2867
    117  CB       -29.2680  -26.3000    5.4070 C.3   320  VAL320      0.0252
    118  CG1      -29.2940  -25.2850    6.5450 C.3   320  VAL320      0.0019
    119  CG2      -28.2020  -27.3500    5.6960 C.3   320  VAL320      0.0019
    120  N        -33.3770  -22.0010    5.5580 N.3   322  LYS322     -0.1245
    121  CA       -33.2170  -20.7690    6.2840 C.3   322  LYS322      0.1561
    122  C        -34.0330  -19.6660    5.6330 C.2   322  LYS322      0.2260
    123  O        -34.2670  -19.6880    4.4270 O.2   322  LYS322     -0.2867
    124  CB       -31.7270  -20.4180    6.3440 C.3   322  LYS322      0.0271
    125  CG       -31.4540  -18.9410    6.3520 C.3   322  LYS322      0.0035
    126  CD       -30.1130  -18.6400    6.9530 C.3   322  LYS322      0.0206
    127  CE       -30.1910  -17.2880    7.6490 C.3   322  LYS322      0.1093
    128  NZ       -30.8720  -17.4320    8.9640 N.3   322  LYS322     -0.1314
    129  N        -33.5660  -16.0440    4.5510 N.3   324  PHE324     -0.1241
    130  CA       -32.6220  -14.9070    4.2910 C.3   324  PHE324      0.1605
    131  C        -33.2390  -13.5400    4.6540 C.2   324  PHE324      0.2264
    132  O        -34.4550  -13.3450    4.4970 O.2   324  PHE324     -0.2867
    133  CB       -32.2300  -14.8380    2.8080 C.3   324  PHE324      0.0534
    134  CG       -31.1530  -15.8050    2.3850 C.ar  324  PHE324     -0.0203
    135  CD1      -30.3020  -16.4000    3.3030 C.ar  324  PHE324     -0.0042
    136  CD2      -30.9540  -16.0740    1.0390 C.ar  324  PHE324     -0.0042
    137  CE1      -29.2930  -17.2690    2.8870 C.ar  324  PHE324     -0.0003
    138  CE2      -29.9400  -16.9290    0.6190 C.ar  324  PHE324     -0.0003
    139  CZ       -29.1120  -17.5390    1.5500 C.ar  324  PHE324     -0.0000
    140  N        -34.5740  -19.9290    1.5740 N.3   340  ASN340     -0.1240
    141  CA       -33.3780  -20.5810    1.0620 C.3   340  ASN340      0.1653
    142  C        -33.2920  -22.0410    1.4750 C.2   340  ASN340      0.2266
    143  O        -33.5330  -22.3880    2.6250 O.2   340  ASN340     -0.2867
    144  CB       -32.0970  -19.8460    1.4860 C.3   340  ASN340      0.1155
    145  CG       -30.8420  -20.6020    1.0800 C.2   340  ASN340      0.2627
    146  OD1      -30.3750  -21.5010    1.7950 O.2   340  ASN340     -0.2716
    147  ND2      -30.3170  -20.2780   -0.0900 N.am  340  ASN340     -0.0877
    148  N        -30.7820  -25.6870    0.8390 N.3   342  CYS342     -0.1235
    149  CA       -29.7130  -26.4760    0.2260 C.3   342  CYS342      0.1677
    150  C        -30.0810  -27.9230    0.2910 C.2   342  CYS342      0.2270
    151  O        -30.5200  -28.4200    1.3330 O.2   342  CYS342     -0.2867
    152  CB       -28.3740  -26.3000    0.9050 C.3   342  CYS342      0.0956
    153  SG       -28.1910  -24.6400    1.4590 S.3   342  CYS342     -0.0801
    154  N        -28.8390  -32.0210   -1.2450 N.3   344  ASP344     -0.1239
    155  CA       -27.6990  -32.8340   -1.6640 C.3   344  ASP344      0.1674
    156  C        -28.2250  -34.0870   -2.3460 C.2   344  ASP344      0.2266
    157  O        -28.5530  -35.0730   -1.6850 O.2   344  ASP344     -0.2867
    158  CB       -26.8430  -33.2210   -0.4450 C.3   344  ASP344      0.1410
    159  CG       -25.5710  -32.3850   -0.3170 C.2   344  ASP344      0.3668
    160  OD1      -24.5760  -32.7320   -0.9920 O.co2 344  ASP344     -0.2456
    161  OD2      -25.5500  -31.4050    0.4730 O.co2 344  ASP344     -0.2456
    162  N        -22.1840  -23.1250   -5.8190 N.3   373  LYS373     -0.1245
    163  CA       -22.6670  -24.5120   -5.9120 C.3   373  LYS373      0.1561
    164  C        -22.7760  -24.9930   -7.3500 C.2   373  LYS373      0.2260
    165  O        -22.6730  -26.1960   -7.6120 O.2   373  LYS373     -0.2867
    166  CB       -24.0250  -24.7070   -5.1980 C.3   373  LYS373      0.0271
    167  CG       -24.0740  -24.2970   -3.7150 C.3   373  LYS373      0.0035
    168  CD       -23.6950  -25.4170   -2.7520 C.3   373  LYS373      0.0206
    169  CE       -22.9770  -24.8820   -1.5090 C.3   373  LYS373      0.1093
    170  NZ       -23.7690  -24.8900   -0.2450 N.3   373  LYS373     -0.1314
@<TRIPOS>BOND
     1     4     3    2
     2     3     2    1
     3   165   164    2
     4   164   163    1
     5     2     5    1
     6     2     1    1
     7   163   162    1
     8   163   166    1
     9     5     6    1
    10    99    98    2
    11   166   167    1
    12    96    97    1
    13    98    97    1
    14     6     7   ar
    15     6     8   ar
    16     7     9   ar
    17   167   168    1
    18    97   100    1
    19     8    10   ar
    20   100   101    1
    21     9    11   ar
    22   168   169    1
    23   156   157    2
    24   156   155    1
    25    10    11   ar
    26   101   102    1
    27    11    12    1
    28   155   154    1
    29   155   158    1
    30   169   170    1
    31   103   102    2
    32   102   104   am
    33   160   159   ar
    34   158   159    1
    35   159   161   ar
    36   147   145   am
    37   149   150    1
    38   149   148    1
    39   149   152    1
    40   150   151    2
    41   138   136   ar
    42   138   139   ar
    43    39    37   ar
    44    39    40   ar
    45   152   153    1
    46   136   134   ar
    47   141   142    1
    48   141   144    1
    49   141   140    1
    50   145   144    1
    51   145   146    2
    52    37    36   ar
    53   142   143    2
    54   139   137   ar
    55    40    38   ar
    56   134   133    1
    57   134   135   ar
    58    36    38   ar
    59    36    35    1
    60   108   107    2
    61    31    32    1
    62   133   130    1
    63   137   135   ar
    64    35    32    1
    65   107   106    1
    66   116   115    2
    67   105   106    1
    68    32    33    1
    69    30    28    1
    70   111   110    1
    71   109   106    1
    72   109   110    1
    73   130   129    1
    74   130   131    1
    75   110   112    1
    76   113   114    1
    77   123   122    2
    78   132   131    2
    79    34    33    2
    80   115   114    1
    81    33    41   am
    82    17    18    1
    83    17    14    1
    84    28    29    1
    85    28    25    1
    86   114   117    1
    87    18    19    1
    88   117   119    1
    89   117   118    1
    90   120   121    1
    91   122   121    1
    92    41    42    1
    93    14    15    1
    94    14    13    1
    95    20    15   am
    96    20    21    1
    97    24    25    1
    98    24    22   am
    99   121   124    1
   100    27    26    2
   101   124   125    1
   102   125   126    1
   103    25    26    1
   104    19    13    1
   105    22    21    1
   106    22    23    2
   107    15    16    2
   108   126   127    1
   109    42    43    1
   110    44    43    2
   111   127   128    1
   112    72    70   ar
   113    72    73   ar
   114    43    45   am
   115    70    67   ar
   116    73    71   ar
   117    62    61    1
   118    62    63    2
   119    45    46    1
   120    61    64    1
   121    61    60    1
   122    67    65   ar
   123    67    69   ar
   124    46    47    1
   125    46    49    1
   126    64    65    1
   127    58    55    1
   128    58    59    1
   129    71    69   ar
   130    65    66   ar
   131    50    49    1
   132    50    51    1
   133    47    48    2
   134    55    56    1
   135    55    54    1
   136    69    68   ar
   137    82    80   ar
   138    82    84   ar
   139    52    51    1
   140    52    53    1
   141    85    84    1
   142    56    57    2
   143    80    79   ar
   144    84    83   ar
   145    93    95   ar
   146    93    91   ar
   147    95    94   ar
   148    66    68   ar
   149    91    90    1
   150    91    92   ar
   151    90    87    1
   152    94    92   ar
   153    79    78    1
   154    79    81   ar
   155    83    81   ar
   156    77    76    2
   157    88    89    2
   158    88    87    1
   159    76    86   am
   160    76    75    1
   161    87    86    1
   162    78    75    1
   163    75    74    1
