@<TRIPOS>MOLECULE
tmp/6hf0A01.pdb
 169 160 0 0 0
SMALL
GASTEIGER

@<TRIPOS>ATOM
      1  N          8.3620  -10.4570   44.8390 N.3    54  TYR54      -0.1241
      2  CA         8.5970  -11.0190   46.1790 C.3    54  TYR54       0.1605
      3  C          8.6790   -9.9500   47.2780 C.2    54  TYR54       0.2264
      4  O          8.3170  -10.2000   48.4310 O.2    54  TYR54      -0.2867
      5  CB         9.8950  -11.8200   46.2050 C.3    54  TYR54       0.0534
      6  CG         9.9450  -13.0240   45.2990 C.ar   54  TYR54      -0.0201
      7  CD1        9.5190  -14.2730   45.7390 C.ar   54  TYR54      -0.0009
      8  CD2       10.4520  -12.9220   44.0080 C.ar   54  TYR54      -0.0009
      9  CE1        9.5750  -15.3870   44.9040 C.ar   54  TYR54       0.0417
     10  CE2       10.5170  -14.0230   43.1670 C.ar   54  TYR54       0.0417
     11  CZ        10.0810  -15.2560   43.6170 C.ar   54  TYR54       0.1957
     12  OH        10.1540  -16.3480   42.7680 O.3    54  TYR54      -0.2866
     13  N         10.3390  -12.4960   31.5810 N.3   110  PRO110     -0.2102
     14  CA        10.8470  -12.9960   32.8660 C.3   110  PRO110      0.1504
     15  C         10.4850  -14.4760   33.0270 C.2   110  PRO110      0.2576
     16  O          9.8160  -15.0370   32.1560 O.2   110  PRO110     -0.2718
     17  CB        10.0970  -12.1360   33.8830 C.3   110  PRO110      0.0282
     18  CG         8.7620  -11.8650   33.2010 C.3   110  PRO110      0.0208
     19  CD         9.0620  -11.7700   31.7180 C.3   110  PRO110      0.0893
     20  N         10.9020  -15.0890   34.1320 N.am  111  GLY111     -0.1943
     21  CA        10.6880  -16.5100   34.3570 C.3   111  GLY111      0.2014
     22  C          9.2680  -16.9230   34.7130 C.2   111  GLY111      0.2639
     23  O          8.9870  -18.1050   34.9000 O.2   111  GLY111     -0.2714
     24  N          8.3760  -15.9520   34.8370 N.am  112  THR112     -0.1950
     25  CA         6.9450  -16.2290   34.9200 C.3   112  THR112      0.1897
     26  C          6.2120  -15.2310   34.0140 C.2   112  THR112      0.2313
     27  O          6.6380  -14.0860   33.8860 O.2   112  THR112     -0.2863
     28  CB         6.4180  -16.1330   36.3660 C.3   112  THR112      0.1794
     29  OG1        4.9920  -16.2810   36.3620 O.3   112  THR112     -0.2208
     30  CG2        6.7820  -14.7980   36.9990 C.3   112  THR112      0.0378
     31  N         14.3040   -8.0110   33.6150 N.3   126  HIS126     -0.1226
     32  CA        15.2870   -8.5380   32.6800 C.3   126  HIS126      0.1752
     33  C         14.8800   -9.9590   32.3960 C.2   126  HIS126      0.2597
     34  O         14.0160  -10.5040   33.0760 O.2   126  HIS126     -0.2718
     35  CB        16.6750   -8.5390   33.3360 C.3   126  HIS126      0.0759
     36  CG        16.7160   -9.2860   34.6300 C.ar  126  HIS126      0.0818
     37  ND1       16.3600   -8.7110   35.8300 N.ar  126  HIS126     -0.2268
     38  CD2       17.0220  -10.5760   34.9080 C.ar  126  HIS126      0.1154
     39  CE1       16.4720   -9.6070   36.7960 C.ar  126  HIS126      0.1986
     40  NE2       16.8670  -10.7480   36.2640 N.ar  126  HIS126     -0.2212
     41  N         15.5380  -10.5740   31.4250 N.am  127  GLY127     -0.1942
     42  CA        15.3200  -11.9790   31.1300 C.3   127  GLY127      0.2014
     43  C         16.5460  -12.6140   30.5130 C.2   127  GLY127      0.2638
     44  O         17.6290  -12.0230   30.5210 O.2   127  GLY127     -0.2714
     45  N         16.3630  -13.8020   29.9430 N.am  128  LYS128     -0.1977
     46  CA        17.4740  -14.6020   29.4220 C.3   128  LYS128      0.1596
     47  C         18.2260  -13.9070   28.2960 C.2   128  LYS128      0.2287
     48  O         19.3570  -14.2870   27.9700 O.2   128  LYS128     -0.2864
     49  CB        16.9950  -15.9920   28.9560 C.3   128  LYS128      0.0298
     50  CG        16.7230  -16.9840   30.0800 C.3   128  LYS128      0.0038
     51  CD        15.8720  -18.1520   29.6090 C.3   128  LYS128      0.0206
     52  CE        15.3230  -18.9950   30.7680 C.3   128  LYS128      0.1093
     53  NZ        16.3820  -19.7800   31.4910 N.3   128  LYS128     -0.1314
     54  N         21.3050  -18.5270   29.5910 N.3   222  SER222     -0.1217
     55  CA        21.2160  -18.6850   31.0480 C.3   222  SER222      0.1889
     56  C         21.8060  -20.0380   31.4710 C.2   222  SER222      0.2288
     57  O         22.2500  -20.8200   30.6310 O.2   222  SER222     -0.2866
     58  CB        19.7730  -18.5580   31.5220 C.3   222  SER222      0.2089
     59  OG        18.9970  -19.6780   31.1350 O.3   222  SER222     -0.2183
     60  N         21.6750  -23.3920   34.6560 N.3   224  TRP224     -0.1241
     61  CA        21.4730  -23.9960   35.9650 C.3   224  TRP224      0.1605
     62  C         22.8360  -24.1380   36.6120 C.2   224  TRP224      0.2264
     63  O         23.8290  -24.3980   35.9410 O.2   224  TRP224     -0.2867
     64  CB        20.8110  -25.3550   35.8660 C.3   224  TRP224      0.0550
     65  CG        19.4150  -25.2720   35.4410 C.ar  224  TRP224      0.0003
     66  CD1       18.8660  -25.8350   34.3270 C.ar  224  TRP224      0.0946
     67  CD2       18.3540  -24.5730   36.1140 C.ar  224  TRP224      0.0152
     68  NE1       17.5260  -25.5370   34.2680 N.ar  224  TRP224     -0.2442
     69  CE2       17.1890  -24.7670   35.3400 C.ar  224  TRP224      0.0810
     70  CE3       18.2810  -23.8120   37.2850 C.ar  224  TRP224      0.0012
     71  CZ2       15.9550  -24.2170   35.7150 C.ar  224  TRP224      0.0191
     72  CZ3       17.0550  -23.2720   37.6520 C.ar  224  TRP224      0.0001
     73  CH2       15.9090  -23.4780   36.8670 C.ar  224  TRP224      0.0015
     74  N         12.0470  -22.2470   28.1760 N.3   293  TYR293     -0.1241
     75  CA        11.8940  -21.4170   29.3710 C.3   293  TYR293      0.1605
     76  C         11.4850  -22.2330   30.5930 C.2   293  TYR293      0.2264
     77  O         11.4450  -21.7110   31.7070 O.2   293  TYR293     -0.2867
     78  CB        10.8650  -20.3110   29.1270 C.3   293  TYR293      0.0534
     79  CG        11.4840  -18.9570   28.9000 C.ar  293  TYR293     -0.0201
     80  CD1       11.2940  -17.9260   29.8070 C.ar  293  TYR293     -0.0009
     81  CD2       12.2720  -18.7110   27.7840 C.ar  293  TYR293     -0.0009
     82  CE1       11.8680  -16.6840   29.6070 C.ar  293  TYR293      0.0417
     83  CE2       12.8500  -17.4700   27.5770 C.ar  293  TYR293      0.0417
     84  CZ        12.6480  -16.4620   28.4950 C.ar  293  TYR293      0.1957
     85  OH        13.2350  -15.2210   28.3090 O.3   293  TYR293     -0.2866
     86  N         14.2570  -15.8230   48.5410 N.3   297  GLN297     -0.1245
     87  CA        14.7620  -15.5880   47.1990 C.3   297  GLN297      0.1566
     88  C         15.7970  -14.4960   47.2770 C.2   297  GLN297      0.2260
     89  O         15.5310  -13.4170   47.8090 O.2   297  GLN297     -0.2867
     90  CB        13.6200  -15.1570   46.2710 C.3   297  GLN297      0.0367
     91  CG        12.4850  -16.1950   46.1660 C.3   297  GLN297      0.0905
     92  CD        11.6110  -16.3150   47.4410 C.2   297  GLN297      0.2608
     93  OE1       11.5160  -15.3680   48.2390 O.2   297  GLN297     -0.2717
     94  NE2       10.9780  -17.4850   47.6290 N.am  297  GLN297     -0.0878
     95  N         18.8760  -12.5210   44.9370 N.3   299  GLN299     -0.1245
     96  CA        19.4880  -12.3000   43.6290 C.3   299  GLN299      0.1566
     97  C         20.4140  -11.0780   43.6300 C.2   299  GLN299      0.2260
     98  O         20.0760  -10.0340   44.1860 O.2   299  GLN299     -0.2867
     99  CB        18.4010  -12.1160   42.5780 C.3   299  GLN299      0.0367
    100  CG        18.9530  -11.8070   41.1950 C.3   299  GLN299      0.0905
    101  CD        17.8720  -11.6860   40.1240 C.2   299  GLN299      0.2608
    102  OE1       16.6900  -11.8880   40.3900 O.2   299  GLN299     -0.2717
    103  NE2       18.2820  -11.3400   38.9090 N.am  299  GLN299     -0.0878
    104  N         17.7950  -24.6130   43.2810 N.3   326  LEU326     -0.1245
    105  CA        17.4380  -23.8060   42.1090 C.3   326  LEU326      0.1561
    106  C         18.3030  -22.5560   41.9910 C.2   326  LEU326      0.2260
    107  O         18.0030  -21.5230   42.6020 O.2   326  LEU326     -0.2867
    108  CB        15.9730  -23.3620   42.1730 C.3   326  LEU326      0.0270
    109  CG        14.8200  -24.3480   41.9820 C.3   326  LEU326      0.0019
    110  CD1       14.6280  -25.2540   43.1990 C.3   326  LEU326      0.0001
    111  CD2       13.5430  -23.5680   41.6790 C.3   326  LEU326      0.0001
    112  N         20.0170  -19.9200   39.1690 N.3   328  VAL328     -0.1245
    113  CA        20.2040  -19.4680   37.8080 C.3   328  VAL328      0.1561
    114  C         21.3290  -18.4560   37.7330 C.2   328  VAL328      0.2260
    115  O         21.3820  -17.5080   38.5060 O.2   328  VAL328     -0.2867
    116  CB        18.9150  -18.8560   37.2340 C.3   328  VAL328      0.0252
    117  CG1       19.0890  -18.5490   35.7760 C.3   328  VAL328      0.0019
    118  CG2       17.7570  -19.8010   37.4510 C.3   328  VAL328      0.0019
    119  N         23.6850  -16.0020   34.9430 N.3   330  LYS330     -0.1245
    120  CA        23.7160  -15.3680   33.6400 C.3   330  LYS330      0.1561
    121  C         24.7060  -14.2150   33.6740 C.2   330  LYS330      0.2260
    122  O         24.9520  -13.6190   34.7440 O.2   330  LYS330     -0.2867
    123  CB        22.3130  -14.8680   33.2420 C.3   330  LYS330      0.0271
    124  CG        22.3270  -13.7020   32.2740 C.3   330  LYS330      0.0035
    125  CD        20.9780  -13.3890   31.6770 C.3   330  LYS330      0.0206
    126  CE        21.1940  -12.8200   30.2870 C.3   330  LYS330      0.1093
    127  NZ        22.0620  -13.7380   29.4860 N.3   330  LYS330     -0.1314
    128  N         24.8720  -10.5600   32.5550 N.3   332  PHE332     -0.1241
    129  CA        24.1440   -9.3870   32.0480 C.3   332  PHE332      0.1605
    130  C         24.9890   -8.6150   31.0360 C.2   332  PHE332      0.2264
    131  O         26.2150   -8.6830   31.0630 O.2   332  PHE332     -0.2867
    132  CB        23.7870   -8.4240   33.1810 C.3   332  PHE332      0.0534
    133  CG        22.6150   -8.8550   34.0270 C.ar  332  PHE332     -0.0203
    134  CD1       21.7130   -9.8050   33.5760 C.ar  332  PHE332     -0.0042
    135  CD2       22.4040   -8.2790   35.2790 C.ar  332  PHE332     -0.0042
    136  CE1       20.6280  -10.1870   34.3590 C.ar  332  PHE332     -0.0003
    137  CE2       21.3250   -8.6500   36.0600 C.ar  332  PHE332     -0.0003
    138  CZ        20.4290   -9.6120   35.5980 C.ar  332  PHE332     -0.0000
    139  N         25.3450  -12.2970   37.1800 N.3   348  ASN348     -0.1240
    140  CA        24.0930  -12.3290   37.9080 C.3   348  ASN348      0.1653
    141  C         23.8080  -13.7340   38.4100 C.2   348  ASN348      0.2266
    142  O         24.1420  -14.7240   37.7460 O.2   348  ASN348     -0.2867
    143  CB        22.9380  -11.8410   37.0140 C.3   348  ASN348      0.1155
    144  CG        21.5880  -12.0710   37.6530 C.2   348  ASN348      0.2627
    145  OD1       21.1110  -11.2550   38.4430 O.2   348  ASN348     -0.2716
    146  ND2       20.9790  -13.2130   37.3470 N.am  348  ASN348     -0.0877
    147  N         20.7660  -16.0440   40.9550 N.3   350  CYS350     -0.1235
    148  CA        19.5490  -16.1250   41.7510 C.3   350  CYS350      0.1677
    149  C         19.6480  -17.3840   42.5640 C.2   350  CYS350      0.2270
    150  O         19.8220  -18.4650   42.0120 O.2   350  CYS350     -0.2867
    151  CB        18.3090  -16.2560   40.8620 C.3   350  CYS350      0.0956
    152  SG        18.1440  -14.9950   39.5700 S.3   350  CYS350     -0.0801
    153  N         17.9370  -19.6670   46.0090 N.3   352  ASP352     -0.1239
    154  CA        16.7430  -19.8780   46.8110 C.3   352  ASP352      0.1674
    155  C         17.1120  -20.5570   48.1300 C.2   352  ASP352      0.2266
    156  O         17.5780  -21.6960   48.1390 O.2   352  ASP352     -0.2867
    157  CB        15.7470  -20.7400   46.0370 C.3   352  ASP352      0.1410
    158  CG        14.3500  -20.1630   46.0520 C.2   352  ASP352      0.3668
    159  OD1       14.2200  -18.9430   46.2960 O.co2 352  ASP352     -0.2456
    160  OD2       13.3850  -20.9230   45.8180 O.co2 352  ASP352     -0.2456
    161  N         12.9740   -8.8030   44.3080 N.3   381  LYS381     -0.1245
    162  CA        13.1980  -10.0300   45.0670 C.3   381  LYS381      0.1561
    163  C         13.4210   -9.7420   46.5540 C.2   381  LYS381      0.2260
    164  O         13.4670  -10.6680   47.3560 O.2   381  LYS381     -0.2867
    165  CB        14.3770  -10.8330   44.4930 C.3   381  LYS381      0.0271
    166  CG        14.2610  -11.1280   42.9940 C.3   381  LYS381      0.0035
    167  CD        13.9250  -12.5940   42.6870 C.3   381  LYS381      0.0206
    168  CE        13.7100  -12.7960   41.1870 C.3   381  LYS381      0.1093
    169  NZ        13.4290  -14.2140   40.7540 N.3   381  LYS381     -0.1314
@<TRIPOS>BOND
     1    83    81   ar
     2    83    84   ar
     3    81    79   ar
     4    48    47    2
     5    74    75    1
     6    47    46    1
     7    85    84    1
     8    84    82   ar
     9    79    78    1
    10    79    80   ar
    11    49    46    1
    12    49    50    1
    13    78    75    1
    14    75    76    1
    15    46    45    1
    16   127   126    1
    17    54    55    1
    18    82    80   ar
    19    51    50    1
    20    51    52    1
    21    45    43   am
    22   126   125    1
    23    43    44    2
    24    43    42    1
    25    76    77    2
    26    57    56    2
    27    52    53    1
    28   130   131    2
    29   130   129    1
    30    55    56    1
    31    55    58    1
    32    42    41    1
    33    59    58    1
    34    41    33   am
    35    13    19    1
    36    13    14    1
    37   125   124    1
    38    19    18    1
    39   129   128    1
    40   129   132    1
    41    16    15    2
    42   124   123    1
    43    33    32    1
    44    33    34    2
    45    32    35    1
    46    32    31    1
    47    14    15    1
    48    14    17    1
    49    15    20   am
    50   132   133    1
    51    18    17    1
    52   123   120    1
    53    35    36    1
    54   134   133   ar
    55   134   136   ar
    56   120   121    1
    57   120   119    1
    58   121   122    2
    59    27    26    2
    60    26    25    1
    61   133   135   ar
    62    20    21    1
    63    68    66   ar
    64    68    69   ar
    65    66    65   ar
    66    21    22    1
    67   136   138   ar
    68    36    38   ar
    69    36    37   ar
    70    60    61    1
    71    22    24   am
    72    22    23    2
    73    24    25    1
    74    38    40   ar
    75    25    28    1
    76   135   137   ar
    77    69    71   ar
    78    69    67   ar
    79    65    64    1
    80    65    67   ar
    81   138   137   ar
    82    71    73   ar
    83   117   116    1
    84    37    39   ar
    85    64    61    1
    86    63    62    2
    87    61    62    1
    88    67    70   ar
    89    40    39   ar
    90    29    28    1
    91    28    30    1
    92    73    72   ar
    93   143   144    1
    94   143   140    1
    95   139   140    1
    96   116   118    1
    97   116   113    1
    98    70    72   ar
    99   146   144   am
   100   144   145    2
   101   114   113    1
   102   114   115    2
   103   142   141    2
   104   113   112    1
   105   140   141    1
   106   103   101   am
   107   152   151    1
   108   101   102    2
   109   101   100    1
   110   169   168    1
   111   151   148    1
   112   147   148    1
   113   168   167    1
   114   100    99    1
   115   111   109    1
   116   148   149    1
   117   109   108    1
   118   109   110    1
   119   106   105    1
   120   106   107    2
   121   150   149    2
   122   105   108    1
   123   105   104    1
   124    99    96    1
   125   167   166    1
   126    12    11    1
   127   166   165    1
   128    10    11   ar
   129    10     8   ar
   130    11     9   ar
   131    96    97    1
   132    96    95    1
   133    97    98    2
   134     8     6   ar
   135   161   162    1
   136   165   162    1
   137     1     2    1
   138     9     7   ar
   139   162   163    1
   140     6     7   ar
   141     6     5    1
   142   160   158   ar
   143   153   154    1
   144   157   158    1
   145   157   154    1
   146   158   159   ar
   147    91    90    1
   148    91    92    1
   149     2     5    1
   150     2     3    1
   151    90    87    1
   152   163   164    2
   153   154   155    1
   154    87    88    1
   155    87    86    1
   156    88    89    2
   157     3     4    2
   158    92    94   am
   159    92    93    2
   160   155   156    2
