@<TRIPOS>MOLECULE
tmp/6hf0B01.pdb
 134 127 0 0 0
SMALL
GASTEIGER

@<TRIPOS>ATOM
      1  N        -19.3880  -16.9880    6.9350 N.3   110  PRO110     -0.2102
      2  CA       -20.0090  -18.0590    6.1530 C.3   110  PRO110      0.1504
      3  C        -19.9140  -19.4240    6.8570 C.2   110  PRO110      0.2576
      4  O        -19.2970  -19.5520    7.9220 O.2   110  PRO110     -0.2718
      5  CB       -19.1600  -18.0810    4.8880 C.3   110  PRO110      0.0282
      6  CG       -17.7830  -17.7040    5.3920 C.3   110  PRO110      0.0208
      7  CD       -18.0240  -16.6780    6.4670 C.3   110  PRO110      0.0893
      8  N        -20.5050  -20.4460    6.2480 N.am  111  GLY111     -0.1957
      9  CA       -20.5390  -21.7700    6.8470 C.3   111  GLY111      0.1869
     10  C        -19.2310  -22.5420    6.8250 C.2   111  GLY111      0.2309
     11  O        -19.1650  -23.6560    7.3260 O.2   111  GLY111     -0.2863
     12  N        -22.7190  -13.7170    2.6590 N.3   126  HIS126     -0.1226
     13  CA       -23.6910  -13.5110    3.7220 C.3   126  HIS126      0.1752
     14  C        -23.5220  -14.6140    4.7560 C.2   126  HIS126      0.2597
     15  O        -22.8240  -15.6080    4.5120 O.2   126  HIS126     -0.2718
     16  CB       -25.0910  -13.6110    3.1550 C.3   126  HIS126      0.0759
     17  CG       -25.3520  -14.9140    2.4680 C.ar  126  HIS126      0.0818
     18  ND1      -25.0350  -15.1320    1.1410 N.ar  126  HIS126     -0.2268
     19  CD2      -25.8620  -16.0820    2.9300 C.ar  126  HIS126      0.1154
     20  CE1      -25.3460  -16.3760    0.8150 C.ar  126  HIS126      0.1986
     21  NE2      -25.8560  -16.9720    1.8800 N.ar  126  HIS126     -0.2212
     22  N        -24.1760  -14.4480    5.9040 N.am  127  GLY127     -0.1942
     23  CA       -24.1570  -15.4700    6.9340 C.3   127  GLY127      0.2014
     24  C        -25.4420  -15.4720    7.7290 C.2   127  GLY127      0.2638
     25  O        -26.4140  -14.7990    7.3570 O.2   127  GLY127     -0.2714
     26  N        -25.4330  -16.2010    8.8430 N.am  128  LYS128     -0.1977
     27  CA       -26.6100  -16.3700    9.6950 C.3   128  LYS128      0.1596
     28  C        -27.1500  -15.0560   10.2560 C.2   128  LYS128      0.2287
     29  O        -28.2930  -14.9950   10.7040 O.2   128  LYS128     -0.2864
     30  CB       -26.3100  -17.3520   10.8410 C.3   128  LYS128      0.0298
     31  CG       -26.2710  -18.8290   10.4300 C.3   128  LYS128      0.0038
     32  CD       -25.5990  -19.6900   11.5050 C.3   128  LYS128      0.0206
     33  CE       -25.2590  -21.0970   11.0000 C.3   128  LYS128      0.1093
     34  NZ       -26.4690  -21.9440   10.7870 N.3   128  LYS128     -0.1314
     35  N        -31.0220  -19.0500   11.5550 N.3   222  SER222     -0.1217
     36  CA       -31.0490  -19.9670   10.4170 C.3   222  SER222      0.1889
     37  C        -31.8670  -21.2040   10.7850 C.2   222  SER222      0.2288
     38  O        -32.3600  -21.2920   11.9130 O.2   222  SER222     -0.2866
     39  CB       -29.6380  -20.3570    9.9830 C.3   222  SER222      0.2089
     40  OG       -29.0250  -21.2230   10.9140 O.3   222  SER222     -0.2183
     41  N        -32.5330  -25.7340    9.9090 N.3   224  TRP224     -0.1241
     42  CA       -32.4850  -26.9800    9.1440 C.3   224  TRP224      0.1605
     43  C        -33.8850  -27.1830    8.6580 C.2   224  TRP224      0.2264
     44  O        -34.8340  -26.7950    9.3250 O.2   224  TRP224     -0.2867
     45  CB       -32.0550  -28.1670    9.9890 C.3   224  TRP224      0.0550
     46  CG       -30.6140  -28.1010   10.3700 C.ar  224  TRP224      0.0003
     47  CD1      -30.0900  -28.0380   11.6390 C.ar  224  TRP224      0.0946
     48  CD2      -29.4970  -28.0640    9.4700 C.ar  224  TRP224      0.0152
     49  NE1      -28.7160  -27.9790   11.5750 N.ar  224  TRP224     -0.2442
     50  CE2      -28.3290  -27.9940   10.2620 C.ar  224  TRP224      0.0810
     51  CE3      -29.3750  -28.0970    8.0750 C.ar  224  TRP224      0.0012
     52  CZ2      -27.0520  -27.9520    9.6970 C.ar  224  TRP224      0.0191
     53  CZ3      -28.1030  -28.0530    7.5160 C.ar  224  TRP224      0.0001
     54  CH2      -26.9570  -27.9800    8.3310 C.ar  224  TRP224      0.0015
     55  N        -22.6960  -22.9740   14.9730 N.3   283  TYR283     -0.1241
     56  CA       -22.5430  -23.0680   13.5210 C.3   283  TYR283      0.1605
     57  C        -22.4910  -24.5290   13.0280 C.2   283  TYR283      0.2264
     58  O        -23.5090  -25.0570   12.5530 O.2   283  TYR283     -0.2867
     59  CB       -21.3040  -22.2800   13.0760 C.3   283  TYR283      0.0534
     60  CG       -21.6350  -20.8810   12.6030 C.ar  283  TYR283     -0.0201
     61  CD1      -21.4730  -20.5360   11.2700 C.ar  283  TYR283     -0.0009
     62  CD2      -22.1340  -19.9150   13.4790 C.ar  283  TYR283     -0.0009
     63  CE1      -21.7880  -19.2680   10.8060 C.ar  283  TYR283      0.0417
     64  CE2      -22.4550  -18.6290   13.0240 C.ar  283  TYR283      0.0417
     65  CZ       -22.2760  -18.3160   11.6740 C.ar  283  TYR283      0.1957
     66  OH       -22.5820  -17.0690   11.1550 O.3   283  TYR283     -0.2866
     67  N        -24.7880  -28.3100   -5.4290 N.3   288  GLN288     -0.1245
     68  CA       -25.1920  -27.3010   -4.4600 C.3   288  GLN288      0.1566
     69  C        -26.0530  -26.2820   -5.1770 C.2   288  GLN288      0.2260
     70  O        -25.6460  -25.7360   -6.2070 O.2   288  GLN288     -0.2867
     71  CB       -23.9570  -26.6190   -3.8710 C.3   288  GLN288      0.0367
     72  CG       -24.3590  -25.4650   -2.9350 C.3   288  GLN288      0.0905
     73  CD       -24.8190  -26.0320   -1.6320 C.2   288  GLN288      0.2608
     74  OE1      -24.0550  -26.7750   -0.9930 O.2   288  GLN288     -0.2717
     75  NE2      -26.0740  -25.7160   -1.2600 N.am  288  GLN288     -0.0878
     76  N        -28.7010  -22.8650   -4.5010 N.3   290  GLN290     -0.1245
     77  CA       -29.1830  -21.8750   -3.5380 C.3   290  GLN290      0.1566
     78  C        -29.9120  -20.7590   -4.2670 C.2   290  GLN290      0.2260
     79  O        -29.4830  -20.3170   -5.3360 O.2   290  GLN290     -0.2867
     80  CB       -28.0180  -21.2880   -2.7390 C.3   290  GLN290      0.0367
     81  CG       -28.4340  -20.2160   -1.7370 C.3   290  GLN290      0.0905
     82  CD       -27.2850  -19.7450   -0.8530 C.2   290  GLN290      0.2608
     83  OE1      -26.1730  -20.2760   -0.9130 O.2   290  GLN290     -0.2717
     84  NE2      -27.5520  -18.7370   -0.0390 N.am  290  GLN290     -0.0878
     85  N        -30.6350  -25.6080    4.3520 N.3   319  VAL319     -0.1245
     86  CA       -30.6630  -24.4620    5.2390 C.3   319  VAL319      0.1561
     87  C        -31.6150  -23.4000    4.7100 C.2   319  VAL319      0.2260
     88  O        -31.5500  -23.0140    3.5470 O.2   319  VAL319     -0.2867
     89  CB       -29.2690  -23.8490    5.4410 C.3   319  VAL319      0.0252
     90  CG1      -29.3390  -22.7710    6.4910 C.3   319  VAL319      0.0019
     91  CG2      -28.2770  -24.9220    5.8370 C.3   319  VAL319      0.0019
     92  N        -33.3630  -19.4930    5.6160 N.3   321  LYS321     -0.1245
     93  CA       -33.2130  -18.2420    6.3490 C.3   321  LYS321      0.1561
     94  C        -33.9980  -17.1370    5.6500 C.2   321  LYS321      0.2260
     95  O        -34.2060  -17.1800    4.4260 O.2   321  LYS321     -0.2867
     96  CB       -31.7260  -17.8480    6.4720 C.3   321  LYS321      0.0271
     97  CG       -31.5240  -16.3810    6.7520 C.3   321  LYS321      0.0035
     98  CD       -30.1190  -16.0030    7.0430 C.3   321  LYS321      0.0206
     99  CE       -30.1350  -14.7200    7.8720 C.3   321  LYS321      0.1093
    100  NZ       -31.1020  -14.8550    9.0070 N.3   321  LYS321     -0.1314
    101  N        -33.5230  -13.4970    4.6020 N.3   323  PHE323     -0.1241
    102  CA       -32.5990  -12.3710    4.3880 C.3   323  PHE323      0.1605
    103  C        -33.2480  -11.0420    4.7650 C.2   323  PHE323      0.2264
    104  O        -34.4730  -10.8950    4.7100 O.2   323  PHE323     -0.2867
    105  CB       -32.1830  -12.2680    2.9210 C.3   323  PHE323      0.0534
    106  CG       -31.1530  -13.2660    2.4920 C.ar  323  PHE323     -0.0203
    107  CD1      -30.3280  -13.8850    3.4180 C.ar  323  PHE323     -0.0042
    108  CD2      -30.9930  -13.5650    1.1380 C.ar  323  PHE323     -0.0042
    109  CE1      -29.3630  -14.8070    3.0150 C.ar  323  PHE323     -0.0003
    110  CE2      -30.0220  -14.4800    0.7230 C.ar  323  PHE323     -0.0003
    111  CZ       -29.2000  -15.1070    1.6700 C.ar  323  PHE323     -0.0000
    112  N        -34.5390  -17.3650    1.6730 N.3   339  ASN339     -0.1240
    113  CA       -33.3470  -18.0140    1.1510 C.3   339  ASN339      0.1653
    114  C        -33.3070  -19.4860    1.5200 C.2   339  ASN339      0.2266
    115  O        -33.8010  -19.8890    2.5620 O.2   339  ASN339     -0.2867
    116  CB       -32.0790  -17.3270    1.6440 C.3   339  ASN339      0.1155
    117  CG       -30.8310  -18.1070    1.2830 C.2   339  ASN339      0.2627
    118  OD1      -30.2900  -17.9650    0.1810 O.2   339  ASN339     -0.2716
    119  ND2      -30.3900  -18.9680    2.1940 N.am  339  ASN339     -0.0877
    120  N        -30.7840  -23.2280    0.7930 N.3   341  CYS341     -0.1235
    121  CA       -29.6740  -23.9680    0.1960 C.3   341  CYS341      0.1677
    122  C        -30.0270  -25.4300    0.2000 C.2   341  CYS341      0.2270
    123  O        -30.3430  -25.9700    1.2560 O.2   341  CYS341     -0.2867
    124  CB       -28.4090  -23.8120    1.0220 C.3   341  CYS341      0.0956
    125  SG       -28.0630  -22.1120    1.5220 S.3   341  CYS341     -0.0801
    126  N        -22.1700  -20.4200   -5.7750 N.3   372  LYS372     -0.1245
    127  CA       -22.6420  -21.7980   -5.7120 C.3   372  LYS372      0.1561
    128  C        -22.8890  -22.3460   -7.0970 C.2   372  LYS372      0.2260
    129  O        -23.1270  -23.5430   -7.2510 O.2   372  LYS372     -0.2867
    130  CB       -23.9140  -21.9390   -4.8460 C.3   372  LYS372      0.0271
    131  CG       -23.7690  -21.4250   -3.3950 C.3   372  LYS372      0.0035
    132  CD       -23.6490  -22.5260   -2.3350 C.3   372  LYS372      0.0206
    133  CE       -23.3520  -21.9010   -0.9380 C.3   372  LYS372      0.1093
    134  NZ       -23.2930  -22.8800    0.2110 N.3   372  LYS372     -0.1314
@<TRIPOS>BOND
     1   129   128    2
     2   128   127    1
     3    70    69    2
     4   126   127    1
     5   127   130    1
     6    67    68    1
     7    79    78    2
     8    69    68    1
     9   130   131    1
    10    76    77    1
    11    68    71    1
    12    78    77    1
    13    71    72    1
    14    77    80    1
    15   131   132    1
    16    72    73    1
    17    80    81    1
    18   132   133    1
    19    81    82    1
    20    73    75   am
    21    73    74    2
    22   133   134    1
    23    83    82    2
    24    82    84   am
    25   118   117    2
    26   121   122    1
    27   121   120    1
    28   121   124    1
    29   122   123    2
    30   110   108   ar
    31   110   111   ar
    32    20    18   ar
    33    20    21   ar
    34   124   125    1
    35   108   106   ar
    36    18    17   ar
    37   113   114    1
    38   113   116    1
    39   113   112    1
    40   117   116    1
    41   117   119   am
    42   114   115    2
    43   111   109   ar
    44    21    19   ar
    45    17    19   ar
    46    17    16    1
    47   106   105    1
    48   106   107   ar
    49    12    13    1
    50   105   102    1
    51   109   107   ar
    52    16    13    1
    53    88    87    2
    54    13    14    1
    55    85    86    1
    56   102   101    1
    57   102   103    1
    58    95    94    2
    59    15    14    2
    60   104   103    2
    61    87    86    1
    62    14    22   am
    63     5     6    1
    64     5     2    1
    65    86    89    1
    66     6     7    1
    67    89    91    1
    68    89    90    1
    69    92    93    1
    70    94    93    1
    71    22    23    1
    72     2     3    1
    73     2     1    1
    74     8     9    1
    75     8     3   am
    76    93    96    1
    77     7     1    1
    78    96    97    1
    79    97    98    1
    80    10     9    1
    81    10    11    2
    82     3     4    2
    83    23    24    1
    84    98    99    1
    85    25    24    2
    86    53    51   ar
    87    53    54   ar
    88    24    26   am
    89    99   100    1
    90    51    48   ar
    91    54    52   ar
    92    43    42    1
    93    43    44    2
    94    26    27    1
    95    42    41    1
    96    42    45    1
    97    48    50   ar
    98    48    46   ar
    99    27    28    1
   100    27    30    1
   101    52    50   ar
   102    39    36    1
   103    39    40    1
   104    45    46    1
   105    28    29    2
   106    50    49   ar
   107    46    47   ar
   108    36    37    1
   109    36    35    1
   110    31    30    1
   111    31    32    1
   112    37    38    2
   113    34    33    1
   114    63    61   ar
   115    63    65   ar
   116    33    32    1
   117    66    65    1
   118    61    60   ar
   119    49    47   ar
   120    65    64   ar
   121    58    57    2
   122    60    59    1
   123    60    62   ar
   124    64    62   ar
   125    57    56    1
   126    59    56    1
   127    56    55    1
