@<TRIPOS>MOLECULE
tmp/6hf3A00.pdb
 160 153 0 0 0
SMALL
GASTEIGER

@<TRIPOS>ATOM
      1  N          8.1050  -12.3020   44.9280 N.3    52  TYR52      -0.1241
      2  CA         8.2090  -12.9900   46.2130 C.3    52  TYR52       0.1605
      3  C          8.1800  -12.0320   47.4030 C.2    52  TYR52       0.2264
      4  O          7.7120  -12.3890   48.4830 O.2    52  TYR52      -0.2867
      5  CB         9.4800  -13.8250   46.2730 C.3    52  TYR52       0.0534
      6  CG         9.4540  -15.0810   45.4320 C.ar   52  TYR52      -0.0201
      7  CD1        9.2340  -16.3270   46.0110 C.ar   52  TYR52      -0.0009
      8  CD2        9.6660  -15.0250   44.0560 C.ar   52  TYR52      -0.0009
      9  CE1        9.2250  -17.4870   45.2400 C.ar   52  TYR52       0.0417
     10  CE2        9.6630  -16.1730   43.2790 C.ar   52  TYR52       0.0417
     11  CZ         9.4410  -17.4010   43.8730 C.ar   52  TYR52       0.1957
     12  OH         9.4340  -18.5460   43.0940 O.3    52  TYR52      -0.2866
     13  N          9.8680  -14.3610   31.6690 N.3   108  PRO108     -0.2102
     14  CA        10.4210  -14.8230   32.9380 C.3   108  PRO108      0.1504
     15  C         10.0310  -16.2790   33.1870 C.2   108  PRO108      0.2576
     16  O          9.4190  -16.9120   32.3110 O.2   108  PRO108     -0.2718
     17  CB         9.7350  -13.9110   33.9470 C.3   108  PRO108      0.0282
     18  CG         8.3640  -13.7180   33.3630 C.3   108  PRO108      0.0208
     19  CD         8.5410  -13.7360   31.8410 C.3   108  PRO108      0.0893
     20  N         10.3720  -16.7970   34.3660 N.am  109  GLY109     -0.1957
     21  CA        10.1950  -18.2050   34.6800 C.3   109  GLY109      0.1869
     22  C          8.7600  -18.6840   34.7640 C.2   109  GLY109      0.2309
     23  O          8.5030  -19.8810   34.7670 O.2   109  GLY109     -0.2863
     24  N         13.8720  -10.0750   33.5800 N.3   124  HIS124     -0.1226
     25  CA        14.8740  -10.6530   32.6810 C.3   124  HIS124      0.1752
     26  C         14.4630  -12.0910   32.3900 C.2   124  HIS124      0.2597
     27  O         13.6190  -12.6520   33.0850 O.2   124  HIS124     -0.2718
     28  CB        16.2500  -10.6300   33.3620 C.3   124  HIS124      0.0759
     29  CG        16.2700  -11.3490   34.6740 C.ar  124  HIS124      0.0818
     30  ND1       16.0920  -10.7080   35.8850 N.ar  124  HIS124     -0.2268
     31  CD2       16.4120  -12.6650   34.9690 C.ar  124  HIS124      0.1154
     32  CE1       16.1300  -11.5940   36.8640 C.ar  124  HIS124      0.1986
     33  NE2       16.3280  -12.7890   36.3370 N.ar  124  HIS124     -0.2212
     34  N         15.0730  -12.6950   31.3770 N.am  125  GLY125     -0.1942
     35  CA        14.8210  -14.0940   31.0750 C.3   125  GLY125      0.2014
     36  C         16.0580  -14.7790   30.5290 C.2   125  GLY125      0.2638
     37  O         17.1710  -14.2330   30.6530 O.2   125  GLY125     -0.2714
     38  N         15.8740  -15.9530   29.9240 N.am  126  LYS126     -0.1977
     39  CA        16.9800  -16.7490   29.3940 C.3   126  LYS126      0.1596
     40  C         17.7380  -16.0760   28.2550 C.2   126  LYS126      0.2287
     41  O         18.8070  -16.5360   27.8490 O.2   126  LYS126     -0.2864
     42  CB        16.4890  -18.1220   28.9080 C.3   126  LYS126      0.0298
     43  CG        16.0050  -19.0670   29.9990 C.3   126  LYS126      0.0038
     44  CD        15.5150  -20.3690   29.3600 C.3   126  LYS126      0.0206
     45  CE        14.9920  -21.3800   30.4000 C.3   126  LYS126      0.1093
     46  NZ        13.6450  -20.9770   30.9400 N.3   126  LYS126     -0.1314
     47  N         20.6300  -20.8020   29.7290 N.3   220  SER220     -0.1217
     48  CA        20.5560  -20.8880   31.1890 C.3   220  SER220      0.1889
     49  C         21.0240  -22.2660   31.6370 C.2   220  SER220      0.2288
     50  O         21.2770  -23.1370   30.8000 O.2   220  SER220     -0.2866
     51  CB        19.1440  -20.6330   31.6950 C.3   220  SER220      0.2089
     52  OG        18.3060  -21.7310   31.3780 O.3   220  SER220     -0.2183
     53  N         20.8400  -25.5090   34.9450 N.3   222  TRP222     -0.1241
     54  CA        20.5830  -26.0410   36.2760 C.3   222  TRP222      0.1605
     55  C         21.9290  -26.2800   36.9640 C.2   222  TRP222      0.2264
     56  O         22.8550  -26.7980   36.3480 O.2   222  TRP222     -0.2867
     57  CB        19.7930  -27.3370   36.2090 C.3   222  TRP222      0.0550
     58  CG        18.4210  -27.1740   35.6790 C.ar  222  TRP222      0.0003
     59  CD1       17.9550  -27.5720   34.4480 C.ar  222  TRP222      0.0946
     60  CD2       17.3090  -26.5800   36.3560 C.ar  222  TRP222      0.0152
     61  NE1       16.6220  -27.2540   34.3230 N.ar  222  TRP222     -0.2442
     62  CE2       16.2010  -26.6450   35.4790 C.ar  222  TRP222      0.0810
     63  CE3       17.1410  -26.0010   37.6200 C.ar  222  TRP222      0.0012
     64  CZ2       14.9450  -26.1530   35.8250 C.ar  222  TRP222      0.0191
     65  CZ3       15.8890  -25.5110   37.9610 C.ar  222  TRP222      0.0001
     66  CH2       14.8080  -25.5890   37.0630 C.ar  222  TRP222      0.0015
     67  N         11.5690  -24.0020   28.0430 N.3   291  TYR291     -0.1241
     68  CA        11.5570  -22.8460   28.9450 C.3   291  TYR291      0.1605
     69  C         10.9400  -23.1620   30.2970 C.2   291  TYR291      0.2264
     70  O         11.2490  -22.5120   31.3010 O.2   291  TYR291     -0.2867
     71  CB        10.7630  -21.7040   28.3060 C.3   291  TYR291      0.0534
     72  CG        11.3420  -20.3180   28.4830 C.ar  291  TYR291     -0.0201
     73  CD1       11.0560  -19.5590   29.6080 C.ar  291  TYR291     -0.0009
     74  CD2       12.1510  -19.7590   27.5060 C.ar  291  TYR291     -0.0009
     75  CE1       11.5840  -18.2870   29.7620 C.ar  291  TYR291      0.0417
     76  CE2       12.6780  -18.4960   27.6480 C.ar  291  TYR291      0.0417
     77  CZ        12.3950  -17.7600   28.7750 C.ar  291  TYR291      0.1957
     78  OH        12.9280  -16.4990   28.9180 O.3   291  TYR291     -0.2866
     79  N         10.9810  -26.1070   32.3360 N.3   293  PRO293     -0.2102
     80  CA        11.4630  -27.4070   32.8010 C.3   293  PRO293      0.1504
     81  C         10.7560  -27.8810   34.0850 C.2   293  PRO293      0.2575
     82  O         11.4030  -28.3280   35.0370 O.2   293  PRO293     -0.2718
     83  CB        12.9410  -27.1990   33.0620 C.3   293  PRO293      0.0282
     84  CG        13.3500  -25.8610   32.7120 C.3   293  PRO293      0.0208
     85  CD        12.0930  -25.0670   32.4550 C.3   293  PRO293      0.0893
     86  N          9.4270  -27.7920   34.0900 N.am  294  LEU294     -0.1980
     87  CA         8.6060  -28.1320   35.2460 C.3   294  LEU294      0.1596
     88  C          7.1350  -28.1910   34.8420 C.2   294  LEU294      0.2287
     89  O          6.7030  -27.4930   33.9200 O.2   294  LEU294     -0.2864
     90  CB         8.8110  -27.1140   36.3660 C.3   294  LEU294      0.0297
     91  CG         8.1040  -27.3570   37.6910 C.3   294  LEU294      0.0022
     92  CD1        8.7350  -28.5230   38.4420 C.3   294  LEU294      0.0001
     93  CD2        8.1340  -26.0980   38.5540 C.3   294  LEU294      0.0001
     94  N         18.2690  -14.5000   45.0710 N.3   302  GLN302     -0.1245
     95  CA        18.8820  -14.3120   43.7510 C.3   302  GLN302      0.1566
     96  C         19.8670  -13.1500   43.7710 C.2   302  GLN302      0.2260
     97  O         19.5690  -12.0770   44.2960 O.2   302  GLN302     -0.2867
     98  CB        17.8070  -14.0550   42.6770 C.3   302  GLN302      0.0367
     99  CG        18.3890  -13.8480   41.2710 C.3   302  GLN302      0.0905
    100  CD        17.3090  -13.6650   40.1730 C.2   302  GLN302      0.2608
    101  OE1       16.1120  -13.6870   40.4560 O.2   302  GLN302     -0.2717
    102  NE2       17.7470  -13.4890   38.9260 N.am  302  GLN302     -0.0878
    103  N         17.1240  -26.5500   43.8400 N.3   329  LEU329     -0.1245
    104  CA        16.6550  -25.9200   42.5960 C.3   329  LEU329      0.1561
    105  C         17.3920  -24.6320   42.2540 C.2   329  LEU329      0.2260
    106  O         16.9270  -23.5420   42.5830 O.2   329  LEU329     -0.2867
    107  CB        15.1550  -25.6370   42.6590 C.3   329  LEU329      0.0270
    108  CG        14.2240  -26.8430   42.5400 C.3   329  LEU329      0.0019
    109  CD1       12.8020  -26.3690   42.2540 C.3   329  LEU329      0.0001
    110  CD2       14.7030  -27.8120   41.4650 C.3   329  LEU329      0.0001
    111  N         19.2510  -22.0190   39.4510 N.3   331  VAL331     -0.1245
    112  CA        19.3340  -21.5620   38.0750 C.3   331  VAL331      0.1561
    113  C         20.4780  -20.5660   37.9030 C.2   331  VAL331      0.2260
    114  O         20.5250  -19.5510   38.5830 O.2   331  VAL331     -0.2867
    115  CB        18.0190  -20.8950   37.6450 C.3   331  VAL331      0.0252
    116  CG1       18.1490  -20.3440   36.2490 C.3   331  VAL331      0.0019
    117  CG2       16.8730  -21.8860   37.7470 C.3   331  VAL331      0.0019
    118  N         22.9390  -18.1870   35.1210 N.3   333  LYS333     -0.1245
    119  CA        23.0370  -17.5760   33.8100 C.3   333  LYS333      0.1561
    120  C         24.0980  -16.4710   33.8000 C.2   333  LYS333      0.2260
    121  O         24.3290  -15.8170   34.8180 O.2   333  LYS333     -0.2867
    122  CB        21.6610  -17.0180   33.3830 C.3   333  LYS333      0.0271
    123  CG        21.7520  -15.8950   32.3780 C.3   333  LYS333      0.0035
    124  CD        20.4590  -15.6240   31.6550 C.3   333  LYS333      0.0206
    125  CE        20.7690  -15.0270   30.2860 C.3   333  LYS333      0.1093
    126  NZ        21.5420  -15.9900   29.4580 N.3   333  LYS333     -0.1314
    127  N         24.4990  -12.8620   32.6350 N.3   335  PHE335     -0.1241
    128  CA        23.7860  -11.6770   32.1290 C.3   335  PHE335      0.1605
    129  C         24.6540  -10.9050   31.1500 C.2   335  PHE335      0.2264
    130  O         25.8810  -10.9110   31.2750 O.2   335  PHE335     -0.2867
    131  CB        23.4110  -10.7090   33.2500 C.3   335  PHE335      0.0534
    132  CG        22.2140  -11.1240   34.0540 C.ar  335  PHE335     -0.0203
    133  CD1       21.3210  -12.0600   33.5740 C.ar  335  PHE335     -0.0042
    134  CD2       21.9760  -10.5590   35.3030 C.ar  335  PHE335     -0.0042
    135  CE1       20.2080  -12.4290   34.3160 C.ar  335  PHE335     -0.0003
    136  CE2       20.8630  -10.9210   36.0590 C.ar  335  PHE335     -0.0003
    137  CZ        19.9710  -11.8510   35.5610 C.ar  335  PHE335     -0.0000
    138  N         24.8680  -14.7180   37.4400 N.3   351  ASN351     -0.1240
    139  CA        23.6050  -14.6470   38.1500 C.3   351  ASN351      0.1653
    140  C         23.1690  -16.0300   38.6040 C.2   351  ASN351      0.2266
    141  O         23.4130  -17.0220   37.8960 O.2   351  ASN351     -0.2867
    142  CB        22.5430  -14.0140   37.2310 C.3   351  ASN351      0.1155
    143  CG        21.1370  -14.2160   37.7400 C.2   351  ASN351      0.2627
    144  OD1       20.5850  -13.3810   38.4520 O.2   351  ASN351     -0.2716
    145  ND2       20.5450  -15.3400   37.3750 N.am  351  ASN351     -0.0877
    146  N         19.8790  -18.1570   41.0480 N.3   353  CYS353     -0.1235
    147  CA        18.7150  -18.1750   41.9700 C.3   353  CYS353      0.1677
    148  C         18.8050  -19.4470   42.7380 C.2   353  CYS353      0.2270
    149  O         19.0810  -20.5100   42.1960 O.2   353  CYS353     -0.2867
    150  CB        17.3540  -18.0990   41.2820 C.3   353  CYS353      0.0956
    151  SG        17.4040  -16.9950   39.9090 S.3   353  CYS353     -0.0801
    152  N         12.7150  -10.8080   44.3130 N.3   384  LYS384     -0.1245
    153  CA        12.9860  -12.0310   45.0540 C.3   384  LYS384      0.1561
    154  C         13.2710  -11.7640   46.5440 C.2   384  LYS384      0.2260
    155  O         13.6320  -12.6770   47.2830 O.2   384  LYS384     -0.2867
    156  CB        14.1700  -12.7740   44.4270 C.3   384  LYS384      0.0271
    157  CG        13.9400  -13.2250   42.9880 C.3   384  LYS384      0.0035
    158  CD        12.8200  -14.2390   42.8850 C.3   384  LYS384      0.0206
    159  CE        12.3310  -14.3730   41.4320 C.3   384  LYS384      0.1093
    160  NZ        13.1320  -15.3300   40.5910 N.3   384  LYS384     -0.1314
@<TRIPOS>BOND
     1    74    76   ar
     2    74    72   ar
     3    76    77   ar
     4    41    40    2
     5    67    68    1
     6    40    39    1
     7    71    72    1
     8    71    68    1
     9    72    73   ar
    10    77    78    1
    11    77    75   ar
    12    42    39    1
    13    42    43    1
    14    68    69    1
    15    44    43    1
    16    44    45    1
    17    39    38    1
    18   126   125    1
    19    73    75   ar
    20    47    48    1
    21    38    36   am
    22   125   124    1
    23    69    70    2
    24    45    46    1
    25    36    37    2
    26    36    35    1
    27    50    49    2
    28    35    34    1
    29   129   130    2
    30   129   128    1
    31    48    49    1
    32    48    51    1
    33    34    26   am
    34    52    51    1
    35   124   123    1
    36    13    19    1
    37    13    14    1
    38    19    18    1
    39   128   127    1
    40   128   131    1
    41    16    15    2
    42    79    85    1
    43    79    80    1
    44   123   122    1
    45    26    25    1
    46    26    27    2
    47    85    84    1
    48    25    28    1
    49    25    24    1
    50    84    83    1
    51    80    83    1
    52    80    81    1
    53    14    15    1
    54    14    17    1
    55    15    20   am
    56   131   132    1
    57    28    29    1
    58    18    17    1
    59   122   119    1
    60   133   132   ar
    61   133   135   ar
    62   120   119    1
    63   120   121    2
    64   119   118    1
    65    89    88    2
    66   132   134   ar
    67    81    86   am
    68    81    82    2
    69    86    87    1
    70   135   137   ar
    71    61    59   ar
    72    61    62   ar
    73    20    21    1
    74    59    58   ar
    75    29    31   ar
    76    29    30   ar
    77    21    22    1
    78    22    23    2
    79    88    87    1
    80    53    54    1
    81    31    33   ar
    82    87    90    1
    83   134   136   ar
    84    62    64   ar
    85    62    60   ar
    86   137   136   ar
    87    58    57    1
    88    58    60   ar
    89    64    66   ar
    90    30    32   ar
    91    57    54    1
    92   116   115    1
    93    54    55    1
    94    33    32   ar
    95    56    55    2
    96    60    63   ar
    97    90    91    1
    98    66    65   ar
    99   142   143    1
   100   142   139    1
   101   145   143   am
   102   138   139    1
   103    63    65   ar
   104   115   117    1
   105   115   112    1
   106    91    92    1
   107    91    93    1
   108   143   144    2
   109   141   140    2
   110   113   112    1
   111   113   114    2
   112   112   111    1
   113   139   140    1
   114   102   100   am
   115   151   150    1
   116   100   101    2
   117   100    99    1
   118   160   159    1
   119   146   147    1
   120    99    98    1
   121   150   147    1
   122   159   158    1
   123   110   108    1
   124   147   148    1
   125   149   148    2
   126   109   108    1
   127   105   106    2
   128   105   104    1
   129   108   107    1
   130   104   107    1
   131   104   103    1
   132    98    95    1
   133   158   157    1
   134   157   156    1
   135    12    11    1
   136    10    11   ar
   137    10     8   ar
   138    95    96    1
   139    95    94    1
   140    96    97    2
   141    11     9   ar
   142     8     6   ar
   143   152   153    1
   144   156   153    1
   145     1     2    1
   146   153   154    1
   147     9     7   ar
   148     6     7   ar
   149     6     5    1
   150     2     5    1
   151     2     3    1
   152   154   155    2
   153     3     4    2
