@<TRIPOS>MOLECULE
tmp/6hf3B00.pdb
 137 131 0 0 0
SMALL
GASTEIGER

@<TRIPOS>ATOM
      1  N        -18.1520  -24.8060   -5.1960 N.3    52  TYR52      -0.1241
      2  CA       -18.5320  -25.9840   -5.9710 C.3    52  TYR52       0.1605
      3  C        -18.4730  -25.6800   -7.4570 C.2    52  TYR52       0.2264
      4  O        -18.1450  -26.5480   -8.2640 O.2    52  TYR52      -0.2867
      5  CB       -19.9420  -26.4510   -5.5980 C.3    52  TYR52       0.0534
      6  CG       -20.0640  -26.9820   -4.1900 C.ar   52  TYR52      -0.0201
      7  CD1      -19.6850  -28.2860   -3.8800 C.ar   52  TYR52      -0.0009
      8  CD2      -20.5650  -26.1830   -3.1660 C.ar   52  TYR52      -0.0009
      9  CE1      -19.7990  -28.7800   -2.5820 C.ar   52  TYR52       0.0417
     10  CE2      -20.6860  -26.6630   -1.8710 C.ar   52  TYR52       0.0417
     11  CZ       -20.2980  -27.9600   -1.5820 C.ar   52  TYR52       0.1957
     12  OH       -20.4250  -28.4370   -0.2930 O.3    52  TYR52      -0.2866
     13  N        -19.6210  -18.9290    6.9640 N.3   108  PRO108     -0.2102
     14  CA       -20.3390  -19.9290    6.1750 C.3   108  PRO108      0.1504
     15  C        -20.3140  -21.2760    6.8910 C.2   108  PRO108      0.2576
     16  O        -19.8450  -21.3530    8.0360 O.2   108  PRO108     -0.2718
     17  CB       -19.5130  -20.0050    4.8970 C.3   108  PRO108      0.0282
     18  CG       -18.1310  -19.7000    5.3470 C.3   108  PRO108      0.0208
     19  CD       -18.2640  -18.6890    6.4440 C.3   108  PRO108      0.0893
     20  N        -20.7930  -22.3150    6.2140 N.am  109  GLY109     -0.1957
     21  CA       -20.8950  -23.6380    6.7920 C.3   109  GLY109      0.1869
     22  C        -19.5650  -24.3330    7.0200 C.2   109  GLY109      0.2309
     23  O        -19.4810  -25.2520    7.8250 O.2   109  GLY109     -0.2863
     24  N        -22.7790  -15.6240    2.7230 N.3   124  HIS124     -0.1226
     25  CA       -23.7970  -15.3150    3.7150 C.3   124  HIS124      0.1752
     26  C        -23.7390  -16.4160    4.7580 C.2   124  HIS124      0.2597
     27  O        -23.1390  -17.4660    4.5120 O.2   124  HIS124     -0.2718
     28  CB       -25.1720  -15.3570    3.0640 C.3   124  HIS124      0.0759
     29  CG       -25.4840  -16.6850    2.4470 C.ar  124  HIS124      0.0818
     30  ND1      -25.2780  -16.9500    1.1080 N.ar  124  HIS124     -0.2268
     31  CD2      -25.9550  -17.8340    2.9930 C.ar  124  HIS124      0.1154
     32  CE1      -25.6310  -18.2000    0.8520 C.ar  124  HIS124      0.1986
     33  NE2      -26.0260  -18.7630    1.9820 N.ar  124  HIS124     -0.2212
     34  N        -24.3890  -16.1940    5.8980 N.am  125  GLY125     -0.1942
     35  CA       -24.3890  -17.1640    6.9890 C.3   125  GLY125      0.2014
     36  C        -25.7350  -17.2680    7.6760 C.2   125  GLY125      0.2638
     37  O        -26.7500  -16.7600    7.1590 O.2   125  GLY125     -0.2714
     38  N        -25.7540  -17.9370    8.8270 N.am  126  LYS126     -0.1977
     39  CA       -26.9690  -18.1210    9.6120 C.3   126  LYS126      0.1596
     40  C        -27.4400  -16.7920   10.2030 C.2   126  LYS126      0.2287
     41  O        -28.5270  -16.7020   10.7400 O.2   126  LYS126     -0.2864
     42  CB       -26.7580  -19.1610   10.7340 C.3   126  LYS126      0.0298
     43  CG       -26.3840  -20.5710   10.2660 C.3   126  LYS126      0.0038
     44  CD       -26.0380  -21.4560   11.4750 C.3   126  LYS126      0.0206
     45  CE       -25.7580  -22.9310   11.0920 C.3   126  LYS126      0.1093
     46  NZ       -24.5320  -23.1320   10.2410 N.3   126  LYS126     -0.1314
     47  N        -31.1380  -20.8820   11.5330 N.3   220  SER220     -0.1217
     48  CA       -31.2730  -21.7760   10.3930 C.3   220  SER220      0.1889
     49  C        -32.0820  -22.9990   10.7910 C.2   220  SER220      0.2288
     50  O        -32.4550  -23.1590   11.9550 O.2   220  SER220     -0.2866
     51  CB       -29.9070  -22.1910    9.8300 C.3   220  SER220      0.2089
     52  OG       -29.2110  -23.0430   10.7390 O.3   220  SER220     -0.2183
     53  N        -32.7630  -27.4070    9.7730 N.3   222  TRP222     -0.1241
     54  CA       -32.7770  -28.6150    8.9600 C.3   222  TRP222      0.1605
     55  C        -34.2380  -28.8610    8.6460 C.2   222  TRP222      0.2264
     56  O        -35.0920  -28.6330    9.4950 O.2   222  TRP222     -0.2867
     57  CB       -32.2530  -29.8450    9.7050 C.3   222  TRP222      0.0550
     58  CG       -30.9250  -29.7110   10.3780 C.ar  222  TRP222      0.0003
     59  CD1      -30.6990  -29.6000   11.7220 C.ar  222  TRP222      0.0946
     60  CD2      -29.6300  -29.7110    9.7550 C.ar  222  TRP222      0.0152
     61  NE1      -29.3530  -29.5160   11.9730 N.ar  222  TRP222     -0.2442
     62  CE2      -28.6740  -29.5830   10.7850 C.ar  222  TRP222      0.0810
     63  CE3      -29.1890  -29.7980    8.4290 C.ar  222  TRP222      0.0012
     64  CZ2      -27.3030  -29.5370   10.5310 C.ar  222  TRP222      0.0191
     65  CZ3      -27.8220  -29.7510    8.1800 C.ar  222  TRP222      0.0001
     66  CH2      -26.8980  -29.6210    9.2270 C.ar  222  TRP222      0.0015
     67  N        -23.0120  -24.1010   15.1950 N.3   282  TYR282     -0.1241
     68  CA       -22.8260  -24.0990   13.7560 C.3   282  TYR282      0.1605
     69  C        -22.5870  -25.5300   13.2420 C.2   282  TYR282      0.2264
     70  O        -23.5220  -26.3160   13.0340 O.2   282  TYR282     -0.2867
     71  CB       -21.6320  -23.1960   13.4130 C.3   282  TYR282      0.0534
     72  CG       -21.9860  -21.9460   12.6400 C.ar  282  TYR282     -0.0201
     73  CD1      -21.8630  -21.9140   11.2590 C.ar  282  TYR282     -0.0009
     74  CD2      -22.4380  -20.7990   13.2840 C.ar  282  TYR282     -0.0009
     75  CE1      -22.1850  -20.7880   10.5360 C.ar  282  TYR282      0.0417
     76  CE2      -22.7670  -19.6550   12.5610 C.ar  282  TYR282      0.0417
     77  CZ       -22.6370  -19.6570   11.1820 C.ar  282  TYR282      0.1957
     78  OH       -22.9540  -18.5430   10.4230 O.3   282  TYR282     -0.2866
     79  N        -28.7190  -24.8620   -4.4630 N.3   289  GLN289     -0.1245
     80  CA       -29.1960  -23.8100   -3.5790 C.3   289  GLN289      0.1566
     81  C        -29.9370  -22.7540   -4.3700 C.2   289  GLN289      0.2260
     82  O        -29.4900  -22.3390   -5.4440 O.2   289  GLN289     -0.2867
     83  CB       -28.0420  -23.1490   -2.8320 C.3   289  GLN289      0.0367
     84  CG       -28.5080  -22.1400   -1.8040 C.3   289  GLN289      0.0905
     85  CD       -27.3740  -21.6150   -0.9270 C.2   289  GLN289      0.2608
     86  OE1      -26.2250  -22.0540   -1.0370 O.2   289  GLN289     -0.2717
     87  NE2      -27.6970  -20.6790   -0.0470 N.am  289  GLN289     -0.0878
     88  N        -30.9010  -27.4330    4.3970 N.3   318  VAL318     -0.1245
     89  CA       -30.8450  -26.2880    5.2870 C.3   318  VAL318      0.1561
     90  C        -31.8140  -25.2180    4.8110 C.2   318  VAL318      0.2260
     91  O        -31.8920  -24.9160    3.6240 O.2   318  VAL318     -0.2867
     92  CB       -29.4070  -25.7360    5.4160 C.3   318  VAL318      0.0252
     93  CG1      -29.3670  -24.5620    6.3740 C.3   318  VAL318      0.0019
     94  CG2      -28.4770  -26.8300    5.8960 C.3   318  VAL318      0.0019
     95  N        -33.5090  -21.2840    5.5230 N.3   320  LYS320     -0.1245
     96  CA       -33.2730  -19.9890    6.1290 C.3   320  LYS320      0.1561
     97  C        -34.0930  -18.9210    5.4230 C.2   320  LYS320      0.2260
     98  O        -34.3240  -19.0010    4.2190 O.2   320  LYS320     -0.2867
     99  CB       -31.7800  -19.6430    6.0440 C.3   320  LYS320      0.0271
    100  CG       -31.4470  -18.1630    6.1810 C.3   320  LYS320      0.0035
    101  CD       -30.2790  -17.9540    7.1460 C.3   320  LYS320      0.0206
    102  CE       -30.3690  -16.5980    7.8510 C.3   320  LYS320      0.1093
    103  NZ       -31.4130  -16.6140    8.9110 N.3   320  LYS320     -0.1314
    104  N        -33.6610  -15.2210    4.3980 N.3   322  PHE322     -0.1241
    105  CA       -32.7130  -14.1230    4.1900 C.3   322  PHE322      0.1605
    106  C        -33.3500  -12.7790    4.5330 C.2   322  PHE322      0.2264
    107  O        -34.5650  -12.5990    4.3820 O.2   322  PHE322     -0.2867
    108  CB       -32.2900  -14.0640    2.7090 C.3   322  PHE322      0.0534
    109  CG       -31.2210  -15.0580    2.3210 C.ar  322  PHE322     -0.0203
    110  CD1      -30.4250  -15.6730    3.2870 C.ar  322  PHE322     -0.0042
    111  CD2      -30.9940  -15.3580    0.9850 C.ar  322  PHE322     -0.0042
    112  CE1      -29.4290  -16.5750    2.9160 C.ar  322  PHE322     -0.0003
    113  CE2      -30.0100  -16.2500    0.6000 C.ar  322  PHE322     -0.0003
    114  CZ       -29.2140  -16.8670    1.5730 C.ar  322  PHE322     -0.0000
    115  N        -34.6760  -19.3410    1.4090 N.3   338  ASN338     -0.1240
    116  CA       -33.4480  -19.9600    0.9150 C.3   338  ASN338      0.1653
    117  C        -33.2800  -21.3980    1.3710 C.2   338  ASN338      0.2266
    118  O        -33.4480  -21.7010    2.5600 O.2   338  ASN338     -0.2867
    119  CB       -32.2220  -19.1620    1.3410 C.3   338  ASN338      0.1155
    120  CG       -30.9190  -19.8850    1.0340 C.2   338  ASN338      0.2627
    121  OD1      -30.3710  -19.7730   -0.0660 O.2   338  ASN338     -0.2716
    122  ND2      -30.4150  -20.6300    2.0090 N.am  338  ASN338     -0.0877
    123  N        -30.7720  -25.0250    0.8150 N.3   340  CYS340     -0.1235
    124  CA       -29.6740  -25.8620    0.2660 C.3   340  CYS340      0.1677
    125  C        -30.1010  -27.2930    0.3450 C.2   340  CYS340      0.2270
    126  O        -30.5370  -27.7540    1.3960 O.2   340  CYS340     -0.2867
    127  CB       -28.3770  -25.6790    1.0390 C.3   340  CYS340      0.0956
    128  SG       -28.1150  -23.9530    1.2450 S.3   340  CYS340     -0.0801
    129  N        -22.3340  -22.5660   -5.8220 N.3   371  LYS371     -0.1245
    130  CA       -22.8470  -23.9360   -5.8350 C.3   371  LYS371      0.1561
    131  C        -23.0100  -24.4840   -7.2560 C.2   371  LYS371      0.2260
    132  O        -22.9140  -25.6950   -7.4660 O.2   371  LYS371     -0.2867
    133  CB       -24.1920  -24.0170   -5.0950 C.3   371  LYS371      0.0271
    134  CG       -24.1650  -23.5280   -3.6410 C.3   371  LYS371      0.0035
    135  CD       -23.4410  -24.5050   -2.7320 C.3   371  LYS371      0.0206
    136  CE       -22.6060  -23.7860   -1.6460 C.3   371  LYS371      0.1093
    137  NZ       -23.3750  -23.4290   -0.4150 N.3   371  LYS371     -0.1314
@<TRIPOS>BOND
     1     4     3    2
     2   132   131    2
     3     3     2    1
     4   131   130    1
     5     2     5    1
     6     2     1    1
     7   130   129    1
     8   130   133    1
     9     5     6    1
    10    82    81    2
    11   133   134    1
    12    79    80    1
    13    81    80    1
    14     6     7   ar
    15     6     8   ar
    16     7     9   ar
    17   134   135    1
    18    80    83    1
    19     8    10   ar
    20    83    84    1
    21   135   136    1
    22     9    11   ar
    23    10    11   ar
    24    84    85    1
    25   136   137    1
    26    11    12    1
    27    86    85    2
    28    85    87   am
    29   121   120    2
    30   124   125    1
    31   124   123    1
    32   124   127    1
    33   125   126    2
    34   113   111   ar
    35   113   114   ar
    36    32    30   ar
    37    32    33   ar
    38   116   119    1
    39   116   117    1
    40   116   115    1
    41   111   109   ar
    42   120   119    1
    43   120   122   am
    44   127   128    1
    45    30    29   ar
    46   117   118    2
    47   114   112   ar
    48    33    31   ar
    49   109   108    1
    50   109   110   ar
    51    29    31   ar
    52    29    28    1
    53   108   105    1
    54    24    25    1
    55   112   110   ar
    56    28    25    1
    57    91    90    2
    58    25    26    1
    59   105   104    1
    60   105   106    1
    61    98    97    2
    62   107   106    2
    63    88    89    1
    64    27    26    2
    65    26    34   am
    66    90    89    1
    67    17    18    1
    68    17    14    1
    69    89    92    1
    70    18    19    1
    71    92    94    1
    72    92    93    1
    73    97    96    1
    74    95    96    1
    75    34    35    1
    76    99    96    1
    77    99   100    1
    78    14    15    1
    79    14    13    1
    80   100   101    1
    81    20    21    1
    82    20    15   am
    83    19    13    1
    84    21    22    1
    85    15    16    2
    86    35    36    1
    87    22    23    2
    88   101   102    1
    89    37    36    2
    90    36    38   am
    91   102   103    1
    92    65    63   ar
    93    65    66   ar
    94    63    60   ar
    95    55    54    1
    96    55    56    2
    97    38    39    1
    98    54    57    1
    99    54    53    1
   100    66    64   ar
   101    39    40    1
   102    39    42    1
   103    57    58    1
   104    60    58   ar
   105    60    62   ar
   106    51    48    1
   107    51    52    1
   108    40    41    2
   109    46    45    1
   110    43    42    1
   111    43    44    1
   112    58    59   ar
   113    48    49    1
   114    48    47    1
   115    78    77    1
   116    64    62   ar
   117    75    77   ar
   118    75    73   ar
   119    62    61   ar
   120    49    50    2
   121    45    44    1
   122    77    76   ar
   123    73    72   ar
   124    59    61   ar
   125    76    74   ar
   126    72    74   ar
   127    72    71    1
   128    70    69    2
   129    69    68    1
   130    71    68    1
   131    68    67    1
