@<TRIPOS>MOLECULE
tmp/6hf5A00.pdb
 136 133 0 0 0
SMALL
GASTEIGER

@<TRIPOS>ATOM
      1  N         -2.1980   16.1430    6.3150 N.3    31  PHE31      -0.1227
      2  CA        -2.2670   17.5600    6.5400 C.3    31  PHE31       0.1736
      3  C         -3.0780   18.2110    5.3980 C.2    31  PHE31       0.2595
      4  O         -2.6500   18.1570    4.2180 O.2    31  PHE31      -0.2718
      5  CB        -0.8330   18.0830    6.5690 C.3    31  PHE31       0.0547
      6  CG        -0.7160   19.5080    7.0180 C.ar   31  PHE31      -0.0202
      7  CD1       -0.9210   20.5490    6.1210 C.ar   31  PHE31      -0.0042
      8  CD2       -0.4070   19.8100    8.3460 C.ar   31  PHE31      -0.0042
      9  CE1       -0.8220   21.8690    6.5350 C.ar   31  PHE31      -0.0003
     10  CE2       -0.3020   21.1230    8.7710 C.ar   31  PHE31      -0.0003
     11  CZ        -0.5090   22.1580    7.8620 C.ar   31  PHE31      -0.0000
     12  N         -4.2400   18.7980    5.7300 N.am   32  ASP32      -0.1974
     13  CA        -5.0940   19.5310    4.7360 C.3    32  ASP32       0.1709
     14  C         -5.6220   18.6770    3.5910 C.2    32  ASP32       0.2293
     15  O         -5.7120   19.1350    2.4480 O.2    32  ASP32      -0.2864
     16  CB        -4.3150   20.7140    4.1340 C.3    32  ASP32       0.1436
     17  CG        -4.7910   22.0190    4.6260 C.2    32  ASP32       0.3671
     18  OD1       -5.2240   22.0850    5.7720 O.co2  32  ASP32      -0.2456
     19  OD2       -4.7310   22.9820    3.8620 O.co2  32  ASP32      -0.2456
     20  N         -3.9150   16.2840    2.2590 N.3    34  ALA34      -0.1231
     21  CA        -2.7960   15.7090    1.5310 C.3    34  ALA34       0.1694
     22  C         -1.9420   14.8870    2.4820 C.2    34  ALA34       0.2592
     23  O         -2.1300   14.9430    3.6860 O.2    34  ALA34      -0.2718
     24  CB        -1.9680   16.7330    0.8600 C.3    34  ALA34       0.0304
     25  N         -1.1020   14.0570    1.9020 N.am   35  VAL35      -0.1966
     26  CA        -0.2120   13.2340    2.6800 C.3    35  VAL35       0.1727
     27  C          1.1580   13.6440    2.2850 C.2    35  VAL35       0.2616
     28  O          1.4750   13.8250    1.1040 O.2    35  VAL35      -0.2715
     29  CB        -0.4560   11.7240    2.4830 C.3    35  VAL35       0.0290
     30  CG1        0.7100   10.9130    3.0420 C.3    35  VAL35       0.0023
     31  CG2       -1.7430   11.3250    3.2280 C.3    35  VAL35       0.0023
     32  N          1.9780   13.8330    3.3270 N.am   36  TYR36      -0.1974
     33  CA         3.2640   14.4800    3.1550 C.3    36  TYR36       0.1639
     34  C          4.2870   13.6780    4.0020 C.2    36  TYR36       0.2290
     35  O          3.9750   13.4320    5.1690 O.2    36  TYR36      -0.2864
     36  CB         3.0950   15.9440    3.6400 C.3    36  TYR36       0.0560
     37  CG         4.1740   16.8630    3.1950 C.ar   36  TYR36      -0.0198
     38  CD1        4.5710   16.9120    1.8400 C.ar   36  TYR36      -0.0009
     39  CD2        4.8130   17.7450    4.1170 C.ar   36  TYR36      -0.0009
     40  CE1        5.5890   17.7880    1.4070 C.ar   36  TYR36       0.0417
     41  CE2        5.8250   18.6250    3.6890 C.ar   36  TYR36       0.0417
     42  CZ         6.2090   18.6290    2.3310 C.ar   36  TYR36       0.1957
     43  OH         7.2060   19.4360    1.8810 O.3    36  TYR36      -0.2866
     44  N          7.0360   13.4350   13.9080 N.3    56  TRP56      -0.1241
     45  CA         5.8580   14.2240   13.6570 C.3    56  TRP56       0.1605
     46  C          4.6300   13.5990   14.3140 C.2    56  TRP56       0.2264
     47  O          3.7140   13.1090   13.6180 O.2    56  TRP56      -0.2867
     48  CB         5.6600   14.3870   12.1270 C.3    56  TRP56       0.0550
     49  CG         4.7300   15.5000   11.7440 C.ar   56  TRP56       0.0003
     50  CD1        3.9140   16.2530   12.5890 C.ar   56  TRP56       0.0946
     51  CD2        4.4680   15.9640   10.4090 C.ar   56  TRP56       0.0152
     52  NE1        3.2350   17.1670   11.8480 N.ar   56  TRP56      -0.2442
     53  CE2        3.5290   17.0150   10.5160 C.ar   56  TRP56       0.0810
     54  CE3        4.9660   15.6130    9.1330 C.ar   56  TRP56       0.0012
     55  CZ2        3.0170   17.6970    9.3820 C.ar   56  TRP56       0.0191
     56  CZ3        4.4820   16.3090    7.9780 C.ar   56  TRP56       0.0001
     57  CH2        3.5110   17.3370    8.1170 C.ar   56  TRP56       0.0015
     58  N          8.4360   23.6720   15.5640 N.3    85  HIS85      -0.1241
     59  CA         7.2060   23.1950   15.0010 C.3    85  HIS85       0.1621
     60  C          6.9330   21.7210   15.3570 C.2    85  HIS85       0.2264
     61  O          7.8220   20.9900   15.7420 O.2    85  HIS85      -0.2867
     62  CB         7.1350   23.3860   13.5000 C.3    85  HIS85       0.0745
     63  CG         6.9690   24.7910   13.0630 C.ar   85  HIS85       0.0817
     64  ND1        7.4300   25.2660   11.8460 N.ar   85  HIS85      -0.2268
     65  CD2        6.4330   25.8460   13.6960 C.ar   85  HIS85       0.1154
     66  CE1        7.1090   26.5350   11.7280 C.ar   85  HIS85       0.1986
     67  NE2        6.5100   26.9150   12.8370 N.ar   85  HIS85      -0.2212
     68  N          6.3330   18.9680   13.6830 N.3    87  ASP87      -0.1239
     69  CA         6.9990   17.9110   12.9870 C.3    87  ASP87       0.1674
     70  C          8.4430   17.6840   13.4510 C.2    87  ASP87       0.2266
     71  O          9.1370   16.8190   12.9640 O.2    87  ASP87      -0.2867
     72  CB         6.9100   18.0940   11.4800 C.3    87  ASP87       0.1410
     73  CG         7.3870   19.4200   11.0000 C.2    87  ASP87       0.3668
     74  OD1        7.3130   20.3970   11.7060 O.co2  87  ASP87      -0.2456
     75  OD2        7.8300   19.4520    9.8800 O.co2  87  ASP87      -0.2456
     76  N         13.2240   29.1460    7.3750 N.3   148  HIS148     -0.1241
     77  CA        11.9470   28.5550    7.5710 C.3   148  HIS148      0.1621
     78  C         11.3430   28.9800    8.9370 C.2   148  HIS148      0.2264
     79  O         10.1590   29.2120    9.0450 O.2   148  HIS148     -0.2867
     80  CB        12.1120   26.9820    7.5240 C.3   148  HIS148      0.0745
     81  CG        10.8860   26.2600    7.9430 C.ar  148  HIS148      0.0817
     82  ND1        9.8420   26.0410    7.0840 N.ar  148  HIS148     -0.2268
     83  CD2       10.4740   25.8180    9.1560 C.ar  148  HIS148      0.1154
     84  CE1        8.8390   25.4910    7.7400 C.ar  148  HIS148      0.1986
     85  NE2        9.2110   25.3140    8.9840 N.ar  148  HIS148     -0.2212
     86  N         13.7460   21.7690    7.8190 N.3   167  CYS167     -0.1235
     87  CA        12.7830   22.4580    6.9730 C.3   167  CYS167      0.1677
     88  C         13.3080   23.7370    6.2760 C.2   167  CYS167      0.2270
     89  O         12.6150   24.2950    5.4560 O.2   167  CYS167     -0.2867
     90  CB        11.4640   22.6990    7.7030 C.3   167  CYS167      0.0956
     91  SG        10.7280   21.1470    8.4450 S.3   167  CYS167     -0.0801
     92  N         14.4730   22.7060    1.0300 N.3   170  TYR170     -0.1241
     93  CA        13.4230   22.0570    0.2760 C.3   170  TYR170      0.1605
     94  C         13.9370   20.9610   -0.6580 C.2   170  TYR170      0.2264
     95  O         15.0580   21.1420   -1.1950 O.2   170  TYR170     -0.2867
     96  CB        12.7650   23.1340   -0.6030 C.3   170  TYR170      0.0534
     97  CG        11.8660   24.0590    0.1180 C.ar  170  TYR170     -0.0201
     98  CD1       11.5610   23.9140    1.4920 C.ar  170  TYR170     -0.0009
     99  CD2       11.2880   25.1060   -0.5560 C.ar  170  TYR170     -0.0009
    100  CE1       10.6640   24.7710    2.1220 C.ar  170  TYR170      0.0417
    101  CE2       10.3710   25.9080    0.0760 C.ar  170  TYR170      0.0417
    102  CZ        10.0770   25.7430    1.4220 C.ar  170  TYR170      0.1957
    103  OH         9.1610   26.6070    2.0460 O.3   170  TYR170     -0.2866
    104  N          9.7120   20.2280   -4.7140 N.3   174  ARG174     -0.1245
    105  CA         8.9090   21.2690   -4.0960 C.3   174  ARG174      0.1563
    106  C          9.2480   22.5620   -4.7900 C.2   174  ARG174      0.2260
    107  O         10.3410   23.0780   -4.6420 O.2   174  ARG174     -0.2867
    108  CB         9.1430   21.3270   -2.6170 C.3   174  ARG174      0.0307
    109  CG         8.2080   22.3020   -1.9380 C.3   174  ARG174      0.0489
    110  CD         8.4810   22.1780   -0.4870 C.3   174  ARG174      0.2205
    111  NE         7.3640   22.4390    0.3790 N.pl3 174  ARG174     -0.0865
    112  CZ         7.4950   22.5700    1.7070 C.cat 174  ARG174      0.5346
    113  NH1        6.4360   22.7940    2.4560 N.pl3 174  ARG174      0.1354
    114  NH2        8.6690   22.4200    2.3160 N.pl3 174  ARG174      0.1354
    115  N          6.5270   26.3720    1.1480 N.3   178  GLY178     -0.1210
    116  CA         5.6440   25.6600    2.0350 C.3   178  GLY178      0.1956
    117  C          4.8530   26.5270    3.0130 C.2   178  GLY178      0.2611
    118  O          4.0550   27.3880    2.6360 O.2   178  GLY178     -0.2717
    119  N          5.0930   26.2190    4.2850 N.am  179  ASN179     -0.1974
    120  CA         4.4680   26.8580    5.3990 C.3   179  ASN179      0.1688
    121  C          5.4380   27.9590    5.7020 C.2   179  ASN179      0.2292
    122  O          6.5210   27.6940    6.3010 O.2   179  ASN179     -0.2864
    123  CB         4.3470   25.8840    6.5920 C.3   179  ASN179      0.1181
    124  CG         4.0950   26.6000    7.9210 C.2   179  ASN179      0.2629
    125  OD1        3.3650   27.6040    7.9880 O.2   179  ASN179     -0.2716
    126  ND2        4.7240   26.1000    8.9800 N.am  179  ASN179     -0.0877
    127  N         11.5750   17.4310    4.1770 N.3   209  HIS209     -0.1241
    128  CA        10.5580   16.6450    3.5760 C.3   209  HIS209      0.1621
    129  C         11.0400   16.2220    2.2020 C.2   209  HIS209      0.2264
    130  O         11.5090   17.0480    1.4010 O.2   209  HIS209     -0.2867
    131  CB         9.2500   17.4320    3.4710 C.3   209  HIS209      0.0745
    132  CG         8.8370   18.0230    4.7770 C.ar  209  HIS209      0.0817
    133  ND1        8.0300   17.3650    5.6590 N.ar  209  HIS209     -0.2268
    134  CD2        9.2190   19.1600    5.4090 C.ar  209  HIS209      0.1154
    135  CE1        7.8740   18.0850    6.7460 C.ar  209  HIS209      0.1986
    136  NE2        8.5780   19.1770    6.6150 N.ar  209  HIS209     -0.2212
@<TRIPOS>BOND
     1   106   107    2
     2   106   105    1
     3   104   105    1
     4   105   108    1
     5   108   109    1
     6   109   110    1
     7    95    94    2
     8    94    93    1
     9    96    97    1
    10    96    93    1
    11    99   101   ar
    12    99    97   ar
    13   110   111    1
    14   101   102   ar
    15    97    98   ar
    16    93    92    1
    17   111   112    2
    18    24    21    1
    19    28    27    2
    20   115   116    1
    21   130   129    2
    22    40    38   ar
    23    40    42   ar
    24   102   103    1
    25   102   100   ar
    26    98   100   ar
    27    21    20    1
    28    21    22    1
    29   112   114    1
    30   112   113    1
    31    38    37   ar
    32    43    42    1
    33    25    22   am
    34    25    26    1
    35   116   117    1
    36   129   128    1
    37    27    26    1
    38    27    32   am
    39    42    41   ar
    40    15    14    2
    41    22    23    2
    42    29    26    1
    43    29    30    1
    44    29    31    1
    45   118   117    2
    46   117   119   am
    47    33    32    1
    48    33    36    1
    49    33    34    1
    50    37    36    1
    51    37    39   ar
    52   131   128    1
    53   131   132    1
    54   128   127    1
    55    14    13    1
    56    41    39   ar
    57    19    17   ar
    58    34    35    2
    59    16    17    1
    60    16    13    1
    61     4     3    2
    62   119   120    1
    63    17    18   ar
    64    13    12    1
    65   132   134   ar
    66   132   133   ar
    67     3    12   am
    68     3     2    1
    69   120   121    1
    70   120   123    1
    71   134   136   ar
    72    89    88    2
    73   133   135   ar
    74   121   122    2
    75     7     9   ar
    76     7     6   ar
    77    88    87    1
    78     1     2    1
    79     9    11   ar
    80     2     5    1
    81     5     6    1
    82   123   124    1
    83   136   135   ar
    84    87    90    1
    85    87    86    1
    86     6     8   ar
    87    82    84   ar
    88    82    81   ar
    89    76    77    1
    90    80    77    1
    91    80    81    1
    92    77    78    1
    93    90    91    1
    94    84    85   ar
    95    11    10   ar
    96   124   125    2
    97   124   126   am
    98    81    83   ar
    99    56    57   ar
   100    56    54   ar
   101    57    55   ar
   102     8    10   ar
   103    78    79    2
   104    85    83   ar
   105    54    51   ar
   106    55    53   ar
   107    75    73   ar
   108    51    53   ar
   109    51    49   ar
   110    53    52   ar
   111    73    72    1
   112    73    74   ar
   113    72    69    1
   114    66    64   ar
   115    66    67   ar
   116    49    48    1
   117    49    50   ar
   118    64    63   ar
   119    52    50   ar
   120    48    45    1
   121    67    65   ar
   122    71    70    2
   123    69    70    1
   124    69    68    1
   125    63    62    1
   126    63    65   ar
   127    62    59    1
   128    47    46    2
   129    45    44    1
   130    45    46    1
   131    59    60    1
   132    59    58    1
   133    60    61    2
