@<TRIPOS>MOLECULE
tmp/6hfwA01.pdb
 192 184 0 0 0
SMALL
GASTEIGER

@<TRIPOS>ATOM
      1  N          8.3060  -13.3330   45.0970 N.3    52  TYR52      -0.1241
      2  CA         8.4030  -14.0540   46.3780 C.3    52  TYR52       0.1605
      3  C          8.3360  -13.1250   47.5900 C.2    52  TYR52       0.2264
      4  O          7.8720  -13.5280   48.6580 O.2    52  TYR52      -0.2867
      5  CB         9.6780  -14.8680   46.4420 C.3    52  TYR52       0.0534
      6  CG         9.6250  -16.1190   45.6000 C.ar   52  TYR52      -0.0201
      7  CD1        9.8100  -16.0650   44.2230 C.ar   52  TYR52      -0.0009
      8  CD2        9.3980  -17.3620   46.1840 C.ar   52  TYR52      -0.0009
      9  CE1        9.7730  -17.2200   43.4530 C.ar   52  TYR52       0.0417
     10  CE2        9.3600  -18.5200   45.4250 C.ar   52  TYR52       0.0417
     11  CZ         9.5510  -18.4470   44.0650 C.ar   52  TYR52       0.1957
     12  OH         9.5060  -19.5980   43.3190 O.3    52  TYR52      -0.2866
     13  N         10.7040  -17.9800   34.1120 N.3   109  GLY109     -0.1225
     14  CA        10.4680  -19.4140   34.3490 C.3   109  GLY109      0.1811
     15  C          9.0570  -19.8550   34.7300 C.2   109  GLY109      0.2280
     16  O          8.8440  -21.0220   35.0210 O.2   109  GLY109     -0.2866
     17  N         14.0150  -11.1100   33.6450 N.3   124  HIS124     -0.1226
     18  CA        14.9780  -11.6710   32.6890 C.3   124  HIS124      0.1752
     19  C         14.6460  -13.1080   32.4060 C.2   124  HIS124      0.2597
     20  O         13.8260  -13.7080   33.1030 O.2   124  HIS124     -0.2718
     21  CB        16.3770  -11.5900   33.2570 C.3   124  HIS124      0.0759
     22  CG        16.5110  -12.2540   34.6070 C.ar  124  HIS124      0.0818
     23  ND1       16.2580  -11.6070   35.7580 N.ar  124  HIS124     -0.2268
     24  CD2       16.8480  -13.5570   34.9560 C.ar  124  HIS124      0.1154
     25  CE1       16.4520  -12.4490   36.7950 C.ar  124  HIS124      0.1986
     26  NE2       16.8120  -13.6400   36.3040 N.ar  124  HIS124     -0.2212
     27  N         15.3070  -13.6820   31.4040 N.am  125  GLY125     -0.1942
     28  CA        15.0880  -15.0740   31.0270 C.3   125  GLY125      0.2014
     29  C         16.3420  -15.7320   30.4860 C.2   125  GLY125      0.2638
     30  O         17.4380  -15.1590   30.5570 O.2   125  GLY125     -0.2714
     31  N         16.1780  -16.9400   29.9480 N.am  126  LYS126     -0.1977
     32  CA        17.3050  -17.7200   29.4110 C.3   126  LYS126      0.1596
     33  C         18.0470  -17.0050   28.2840 C.2   126  LYS126      0.2287
     34  O         19.1850  -17.3280   27.9950 O.2   126  LYS126     -0.2864
     35  CB        16.8260  -19.0870   28.8910 C.3   126  LYS126      0.0298
     36  CG        16.4440  -20.0780   29.9750 C.3   126  LYS126      0.0038
     37  CD        15.4530  -21.1090   29.4680 C.3   126  LYS126      0.0206
     38  CE        15.3430  -22.3140   30.3980 C.3   126  LYS126      0.1093
     39  NZ        15.1280  -21.9310   31.8170 N.3   126  LYS126     -0.1314
     40  N         20.9230  -21.7390   29.8240 N.3   220  SER220     -0.1217
     41  CA        20.8240  -21.8370   31.2950 C.3   220  SER220      0.1889
     42  C         21.2780  -23.2380   31.7200 C.2   220  SER220      0.2288
     43  O         21.3860  -24.1210   30.8750 O.2   220  SER220     -0.2866
     44  CB        19.3960  -21.5860   31.7940 C.3   220  SER220      0.2089
     45  OG        18.4860  -22.5210   31.2330 O.3   220  SER220     -0.2183
     46  N         21.2210  -26.4420   34.9820 N.3   222  TRP222     -0.1241
     47  CA        20.9700  -26.9780   36.3220 C.3   222  TRP222      0.1605
     48  C         22.2830  -27.2250   36.9820 C.2   222  TRP222      0.2264
     49  O         23.2110  -27.6850   36.3370 O.2   222  TRP222     -0.2867
     50  CB        20.2060  -28.2770   36.2640 C.3   222  TRP222      0.0550
     51  CG        18.7890  -28.1050   35.8150 C.ar  222  TRP222      0.0003
     52  CD1       18.2210  -28.5270   34.6170 C.ar  222  TRP222      0.0946
     53  CD2       17.7010  -27.4540   36.5520 C.ar  222  TRP222      0.0152
     54  NE1       16.8900  -28.1970   34.5670 N.ar  222  TRP222     -0.2442
     55  CE2       16.5140  -27.5490   35.6960 C.ar  222  TRP222      0.0810
     56  CE3       17.5910  -26.8370   37.7910 C.ar  222  TRP222      0.0012
     57  CZ2       15.2870  -27.0380   36.0830 C.ar  222  TRP222      0.0191
     58  CZ3       16.3460  -26.3240   38.1720 C.ar  222  TRP222      0.0001
     59  CH2       15.2240  -26.4210   37.3330 C.ar  222  TRP222      0.0015
     60  N         11.8860  -24.8660   27.9860 N.3   292  TYR292     -0.1227
     61  CA        11.8770  -23.6680   28.8480 C.3   292  TYR292      0.1736
     62  C         11.3640  -23.9200   30.2490 C.2   292  TYR292      0.2595
     63  O         11.7640  -23.2260   31.1760 O.2   292  TYR292     -0.2718
     64  CB        11.0450  -22.5430   28.2230 C.3   292  TYR292      0.0548
     65  CG        11.6240  -21.1780   28.4830 C.ar  292  TYR292     -0.0200
     66  CD1       11.3260  -20.4770   29.6440 C.ar  292  TYR292     -0.0009
     67  CD2       12.4870  -20.5990   27.5680 C.ar  292  TYR292     -0.0009
     68  CE1       11.8710  -19.2220   29.8740 C.ar  292  TYR292      0.0417
     69  CE2       13.0330  -19.3550   27.7840 C.ar  292  TYR292      0.0417
     70  CZ        12.7280  -18.6690   28.9340 C.ar  292  TYR292      0.1957
     71  OH        13.3010  -17.4390   29.1230 O.3   292  TYR292     -0.2866
     72  N         10.4670  -24.8930   30.3950 N.am  293  HIS293     -0.1962
     73  CA         9.9080  -25.2490   31.6980 C.3   293  HIS293      0.1772
     74  C         10.0650  -26.7320   31.9820 C.2   293  HIS293      0.2462
     75  O          9.0780  -27.4280   32.2050 O.2   293  HIS293     -0.2730
     76  CB         8.4350  -24.8370   31.7630 C.3   293  HIS293      0.0785
     77  CG         8.1750  -23.3890   31.3730 C.ar  293  HIS293      0.0821
     78  ND1        8.4830  -22.3490   32.1760 N.ar  293  HIS293     -0.2267
     79  CD2        7.5880  -22.8370   30.2250 C.ar  293  HIS293      0.1154
     80  CE1        8.1240  -21.1910   31.5700 C.ar  293  HIS293      0.1986
     81  NE2        7.5770  -21.4920   30.3790 N.ar  293  HIS293     -0.2212
     82  N         11.3170  -27.2400   32.0010 N.am  294  PRO294     -0.2716
     83  CA        11.5110  -28.6900   32.1790 C.3   294  PRO294      0.1536
     84  C         11.0140  -29.2470   33.5250 C.2   294  PRO294      0.2598
     85  O         10.8420  -30.4610   33.6590 O.2   294  PRO294     -0.2715
     86  CB        13.0350  -28.8740   32.0530 C.3   294  PRO294      0.0310
     87  CG        13.5710  -27.5750   31.5460 C.3   294  PRO294      0.0237
     88  CD        12.6040  -26.5210   31.9840 C.3   294  PRO294      0.0939
     89  N         10.7950  -28.3680   34.5030 N.am  295  LEU295     -0.1978
     90  CA        10.1950  -28.7520   35.7830 C.3   295  LEU295      0.1596
     91  C          8.7550  -29.2570   35.6110 C.2   295  LEU295      0.2287
     92  O          8.2870  -30.0680   36.4100 O.2   295  LEU295     -0.2864
     93  CB        10.2140  -27.5710   36.7650 C.3   295  LEU295      0.0297
     94  CG        10.1570  -27.9390   38.2540 C.3   295  LEU295      0.0022
     95  CD1       11.5440  -28.3330   38.7420 C.3   295  LEU295      0.0001
     96  CD2        9.6000  -26.7940   39.0920 C.3   295  LEU295      0.0001
     97  N         13.8900  -18.7120   48.7570 N.3   302  GLN302     -0.1245
     98  CA        14.4460  -18.4920   47.4370 C.3   302  GLN302      0.1566
     99  C         15.5010  -17.3910   47.5270 C.2   302  GLN302      0.2260
    100  O         15.2710  -16.3510   48.1280 O.2   302  GLN302     -0.2867
    101  CB        13.3300  -18.0830   46.4790 C.3   302  GLN302      0.0367
    102  CG        13.6650  -18.2860   45.0120 C.3   302  GLN302      0.0905
    103  CD        13.8470  -19.7470   44.6340 C.2   302  GLN302      0.2608
    104  OE1       13.0320  -20.5970   44.9930 O.2   302  GLN302     -0.2717
    105  NE2       14.9210  -20.0440   43.9000 N.am  302  GLN302     -0.0878
    106  N         18.4750  -15.4380   45.0350 N.3   304  GLN304     -0.1245
    107  CA        19.1060  -15.2130   43.7400 C.3   304  GLN304      0.1566
    108  C         20.0470  -14.0100   43.7730 C.2   304  GLN304      0.2260
    109  O         19.6680  -12.9380   44.2240 O.2   304  GLN304     -0.2867
    110  CB        18.0350  -14.9770   42.6910 C.3   304  GLN304      0.0367
    111  CG        18.5910  -14.6020   41.3360 C.3   304  GLN304      0.0905
    112  CD        17.5570  -14.6870   40.2360 C.2   304  GLN304      0.2608
    113  OE1       16.3670  -14.7850   40.5120 O.2   304  GLN304     -0.2717
    114  NE2       18.0090  -14.6520   38.9780 N.am  304  GLN304     -0.0878
    115  N         17.5380  -27.6750   43.7120 N.3   331  LEU331     -0.1245
    116  CA        17.1150  -27.0580   42.4530 C.3   331  LEU331      0.1561
    117  C         17.8180  -25.7240   42.2090 C.2   331  LEU331      0.2260
    118  O         17.3530  -24.6870   42.6680 O.2   331  LEU331     -0.2867
    119  CB        15.5950  -26.8380   42.4700 C.3   331  LEU331      0.0270
    120  CG        14.7350  -28.1110   42.4260 C.3   331  LEU331      0.0019
    121  CD1       13.2600  -27.7740   42.5870 C.3   331  LEU331      0.0001
    122  CD2       14.9700  -28.8860   41.1340 C.3   331  LEU331      0.0001
    123  N         19.5510  -22.9510   39.4250 N.3   333  VAL333     -0.1245
    124  CA        19.6870  -22.4700   38.0540 C.3   333  VAL333      0.1561
    125  C         20.8910  -21.5410   37.9290 C.2   333  VAL333      0.2260
    126  O         21.0350  -20.6230   38.6940 O.2   333  VAL333     -0.2867
    127  CB        18.4210  -21.7240   37.5930 C.3   333  VAL333      0.0252
    128  CG1       18.4920  -21.4510   36.0950 C.3   333  VAL333      0.0019
    129  CG2       17.1730  -22.5360   37.9320 C.3   333  VAL333      0.0019
    130  N         23.2990  -19.1260   35.1750 N.3   335  LYS335     -0.1245
    131  CA        23.3610  -18.4550   33.8890 C.3   335  LYS335      0.1561
    132  C         24.4290  -17.3560   33.8730 C.2   335  LYS335      0.2260
    133  O         24.6610  -16.7010   34.8810 O.2   335  LYS335     -0.2867
    134  CB        21.9840  -17.8690   33.5510 C.3   335  LYS335      0.0271
    135  CG        22.0320  -16.7610   32.5190 C.3   335  LYS335      0.0035
    136  CD        20.7280  -16.5640   31.7840 C.3   335  LYS335      0.0206
    137  CE        21.0020  -15.9360   30.4240 C.3   335  LYS335      0.1093
    138  NZ        21.7920  -16.8500   29.5440 N.3   335  LYS335     -0.1314
    139  N         24.7710  -13.7730   32.5990 N.3   337  PHE337     -0.1241
    140  CA        24.0490  -12.6180   32.0880 C.3   337  PHE337      0.1605
    141  C         24.9180  -11.8020   31.1520 C.2   337  PHE337      0.2264
    142  O         26.1270  -11.7540   31.3510 O.2   337  PHE337     -0.2867
    143  CB        23.6790  -11.6760   33.2270 C.3   337  PHE337      0.0534
    144  CG        22.4920  -12.1020   34.0300 C.ar  337  PHE337     -0.0203
    145  CD1       21.5420  -12.9860   33.5270 C.ar  337  PHE337     -0.0042
    146  CD2       22.2760  -11.5330   35.2670 C.ar  337  PHE337     -0.0042
    147  CE1       20.4450  -13.3440   34.2830 C.ar  337  PHE337     -0.0003
    148  CE2       21.1850  -11.8940   36.0270 C.ar  337  PHE337     -0.0003
    149  CZ        20.2640  -12.7970   35.5310 C.ar  337  PHE337     -0.0000
    150  N         25.0230  -15.4780   37.3180 N.3   353  ASN353     -0.1240
    151  CA        23.7400  -15.4460   38.0280 C.3   353  ASN353      0.1653
    152  C         23.4360  -16.8220   38.5640 C.2   353  ASN353      0.2266
    153  O         23.5800  -17.8110   37.8390 O.2   353  ASN353     -0.2867
    154  CB        22.6160  -15.0220   37.0860 C.3   353  ASN353      0.1155
    155  CG        21.2330  -15.1570   37.7190 C.2   353  ASN353      0.2627
    156  OD1       20.7640  -14.2680   38.4450 O.2   353  ASN353     -0.2716
    157  ND2       20.5700  -16.2690   37.4370 N.am  353  ASN353     -0.0877
    158  N         20.4010  -18.9920   41.1080 N.3   355  CYS355     -0.1235
    159  CA        19.2360  -19.0620   42.0020 C.3   355  CYS355      0.1677
    160  C         19.3300  -20.3540   42.8000 C.2   355  CYS355      0.2270
    161  O         19.6160  -21.4010   42.2430 O.2   355  CYS355     -0.2867
    162  CB        17.9000  -19.0410   41.2400 C.3   355  CYS355      0.0956
    163  SG        17.8160  -17.8830   39.8470 S.3   355  CYS355     -0.0801
    164  N         17.5390  -22.4860   46.4360 N.3   357  ASP357     -0.1239
    165  CA        16.2710  -22.6920   47.1150 C.3   357  ASP357      0.1674
    166  C         16.5480  -23.4970   48.3890 C.2   357  ASP357      0.2266
    167  O         16.8130  -24.7010   48.3370 O.2   357  ASP357     -0.2867
    168  CB        15.3190  -23.4300   46.1610 C.3   357  ASP357      0.1410
    169  CG        13.8590  -23.3730   46.6020 C.2   357  ASP357      0.3668
    170  OD1       13.4580  -22.3900   47.2680 O.co2 357  ASP357     -0.2456
    171  OD2       13.1070  -24.3180   46.2600 O.co2 357  ASP357     -0.2456
    172  N         18.2040   -9.9180   43.9850 N.3   383  TYR383     -0.1241
    173  CA        17.0350   -9.6000   43.1790 C.3   383  TYR383      0.1605
    174  C         15.8360   -9.3470   44.0790 C.2   383  TYR383      0.2264
    175  O         15.4640  -10.2220   44.8670 O.2   383  TYR383     -0.2867
    176  CB        16.7420  -10.8020   42.2700 C.3   383  TYR383      0.0534
    177  CG        15.7310  -10.6140   41.1500 C.ar  383  TYR383     -0.0201
    178  CD1       15.3310   -9.3590   40.7170 C.ar  383  TYR383     -0.0009
    179  CD2       15.2010  -11.7230   40.4980 C.ar  383  TYR383     -0.0009
    180  CE1       14.4180   -9.2160   39.6840 C.ar  383  TYR383      0.0417
    181  CE2       14.2920  -11.5880   39.4640 C.ar  383  TYR383      0.0417
    182  CZ        13.9120  -10.3360   39.0600 C.ar  383  TYR383      0.1957
    183  OH        13.0290  -10.2090   38.0250 O.3   383  TYR383     -0.2866
    184  N         12.9010  -11.7550   44.4980 N.3   386  LYS386     -0.1245
    185  CA        13.1330  -13.0030   45.2430 C.3   386  LYS386      0.1561
    186  C         13.4940  -12.7700   46.7060 C.2   386  LYS386      0.2260
    187  O         13.9790  -13.6830   47.3590 O.2   386  LYS386     -0.2867
    188  CB        14.2490  -13.8260   44.5690 C.3   386  LYS386      0.0271
    189  CG        13.9970  -14.1260   43.0960 C.3   386  LYS386      0.0035
    190  CD        13.3700  -15.4880   42.8700 C.3   386  LYS386      0.0206
    191  CE        13.1780  -15.7790   41.3850 C.3   386  LYS386      0.1093
    192  NZ        13.3260  -17.2240   41.0370 N.3   386  LYS386     -0.1314
@<TRIPOS>BOND
     1    67    69   ar
     2    67    65   ar
     3    69    70   ar
     4    60    61    1
     5    34    33    2
     6    64    65    1
     7    64    61    1
     8    33    32    1
     9    65    66   ar
    10    61    62    1
    11    35    32    1
    12    35    36    1
    13    70    71    1
    14    70    68   ar
    15    32    31    1
    16    37    36    1
    17    37    38    1
    18   138   137    1
    19    66    68   ar
    20    40    41    1
    21    31    29   am
    22    79    81   ar
    23    79    77   ar
    24    62    72   am
    25    62    63    2
    26    81    80   ar
    27    72    73    1
    28    38    39    1
    29   137   136    1
    30    29    30    2
    31    29    28    1
    32    43    42    2
    33    28    27    1
    34   141   142    2
    35   141   140    1
    36    45    44    1
    37    41    42    1
    38    41    44    1
    39    77    76    1
    40    77    78   ar
    41    27    19   am
    42    87    88    1
    43    87    86    1
    44    80    78   ar
    45    73    76    1
    46    73    74    1
    47   136   135    1
    48    74    82   am
    49    74    75    2
    50    88    82    1
    51    82    83    1
    52    86    83    1
    53   140   139    1
    54   140   143    1
    55    83    84    1
    56    19    18    1
    57    19    20    2
    58   135   134    1
    59    18    21    1
    60    18    17    1
    61   143   144    1
    62    21    22    1
    63    84    85    2
    64    84    89   am
    65   145   144   ar
    66   145   147   ar
    67   134   131    1
    68   132   131    1
    69   132   133    2
    70   131   130    1
    71   144   146   ar
    72    13    14    1
    73   147   149   ar
    74    14    15    1
    75    89    90    1
    76    54    52   ar
    77    54    55   ar
    78    22    24   ar
    79    22    23   ar
    80    52    51   ar
    81    15    16    2
    82    24    26   ar
    83    46    47    1
    84   146   148   ar
    85   149   148   ar
    86    91    90    1
    87    91    92    2
    88    55    57   ar
    89    55    53   ar
    90    23    25   ar
    91    90    93    1
    92    51    50    1
    93    51    53   ar
    94    57    59   ar
    95   128   127    1
    96    50    47    1
    97    26    25   ar
    98    47    48    1
    99    49    48    2
   100    53    56   ar
   101    93    94    1
   102   154   155    1
   103   154   151    1
   104   150   151    1
   105    59    58   ar
   106   157   155   am
   107   127   129    1
   108   127   124    1
   109   155   156    2
   110    56    58   ar
   111   153   152    2
   112   125   124    1
   113   125   126    2
   114   183   182    1
   115   151   152    1
   116   124   123    1
   117    94    95    1
   118    94    96    1
   119   114   112   am
   120   182   181   ar
   121   182   180   ar
   122   181   179   ar
   123   180   178   ar
   124   163   162    1
   125   112   113    2
   126   112   111    1
   127   179   177   ar
   128   178   177   ar
   129   192   191    1
   130   158   159    1
   131   122   120    1
   132   177   176    1
   133   162   159    1
   134   111   110    1
   135   191   190    1
   136   159   160    1
   137   117   116    1
   138   117   118    2
   139   161   160    2
   140   176   173    1
   141   120   119    1
   142   120   121    1
   143   116   119    1
   144   116   115    1
   145   110   107    1
   146   190   189    1
   147   189   188    1
   148   173   172    1
   149   173   174    1
   150    12    11    1
   151     9    11   ar
   152     9     7   ar
   153   107   108    1
   154   107   106    1
   155   108   109    2
   156   105   103   am
   157    11    10   ar
   158   174   175    2
   159     7     6   ar
   160   184   185    1
   161   188   185    1
   162   103   104    2
   163   103   102    1
   164   102   101    1
   165     1     2    1
   166   185   186    1
   167    10     8   ar
   168     6     8   ar
   169     6     5    1
   170   168   169    1
   171   168   165    1
   172   171   169   ar
   173     2     5    1
   174     2     3    1
   175   164   165    1
   176   101    98    1
   177   169   170   ar
   178   186   187    2
   179   165   166    1
   180    98    99    1
   181    98    97    1
   182    99   100    2
   183     3     4    2
   184   167   166    2
