@<TRIPOS>MOLECULE
tmp/6hfyD06.pdb
 163 153 0 0 0
SMALL
GASTEIGER

@<TRIPOS>ATOM
      1  N         24.6530    1.7090   99.5550 N.3    37  ARG37      -0.1231
      2  CA        25.1600    1.5440  100.9190 C.3    37  ARG37       0.1694
      3  C         25.0480    0.0620  101.2270 C.2    37  ARG37       0.2591
      4  O         24.5200   -0.7320  100.4090 O.2    37  ARG37      -0.2718
      5  CB        24.5180    2.4620  101.9640 C.3    37  ARG37       0.0321
      6  CG        25.2970    3.7240  102.3600 C.3    37  ARG37       0.0489
      7  CD        25.0710    4.1910  103.8130 C.3    37  ARG37       0.2205
      8  NE        25.6140    3.1560  104.6950 N.pl3  37  ARG37      -0.0865
      9  CZ        25.1600    2.8570  105.9210 C.cat  37  ARG37       0.5346
     10  NH1       25.7470    1.8800  106.5870 N.pl3  37  ARG37       0.1354
     11  NH2       24.1460    3.5200  106.4460 N.pl3  37  ARG37       0.1354
     12  N         25.4890   -0.3020  102.4340 N.am   38  GLU38      -0.1979
     13  CA        25.4670   -1.7160  102.8770 C.3    38  GLU38       0.1602
     14  C         26.1190   -2.6400  101.8360 C.2    38  GLU38       0.2287
     15  O         25.5500   -3.6840  101.4500 O.2    38  GLU38      -0.2864
     16  CB        24.0450   -2.1120  103.2470 C.3    38  GLU38       0.0415
     17  CG        23.4080   -1.2630  104.3130 C.3    38  GLU38       0.1163
     18  CD        22.8180    0.0520  103.8420 C.2    38  GLU38       0.3649
     19  OE1       22.8310    0.9850  104.6720 O.co2  38  GLU38      -0.2457
     20  OE2       22.3360    0.1590  102.6920 O.co2  38  GLU38      -0.2457
     21  N         17.0810    4.8760  104.5960 N.3    70  ASP70      -0.1225
     22  CA        17.4950    3.5050  104.4760 C.3    70  ASP70       0.1805
     23  C         16.5890    2.6320  103.6140 C.2    70  ASP70       0.2597
     24  O         17.0830    1.6100  103.0810 O.2    70  ASP70      -0.2718
     25  CB        17.5720    2.8450  105.8460 C.3    70  ASP70       0.1424
     26  CG        18.6040    3.5140  106.7260 C.2    70  ASP70       0.3668
     27  OD1       19.6810    3.8570  106.2150 O.co2  70  ASP70      -0.2456
     28  OD2       18.3460    3.6520  107.9360 O.co2  70  ASP70      -0.2456
     29  N         15.2930    2.9560  103.5530 N.am   71  ARG71      -0.1979
     30  CA        14.3700    2.0020  102.9980 C.3    71  ARG71       0.1597
     31  C         13.4730    2.7150  101.9900 C.2    71  ARG71       0.2287
     32  O         12.8210    3.7100  102.3100 O.2    71  ARG71      -0.2864
     33  CB        13.5580    1.3330  104.1070 C.3    71  ARG71       0.0334
     34  CG        14.3960    0.4750  105.0460 C.3    71  ARG71       0.0492
     35  CD        13.6270   -0.2030  106.1580 C.3    71  ARG71       0.2205
     36  NE        12.8350    0.7540  106.8850 N.pl3  71  ARG71      -0.0865
     37  CZ        13.3400    1.6470  107.7410 C.cat  71  ARG71       0.5346
     38  NH1       14.6300    1.5970  108.0640 N.pl3  71  ARG71       0.1354
     39  NH2       12.5350    2.5460  108.2890 N.pl3  71  ARG71       0.1354
     40  N         15.2160    0.5410   96.1110 N.3    75  ARG75      -0.1245
     41  CA        16.4640   -0.0840   96.4580 C.3    75  ARG75       0.1563
     42  C         16.4320   -1.5250   95.9530 C.2    75  ARG75       0.2260
     43  O         15.3820   -2.0960   95.8190 O.2    75  ARG75      -0.2867
     44  CB        16.7280   -0.0680   97.9660 C.3    75  ARG75       0.0307
     45  CG        16.7860    1.3290   98.5500 C.3    75  ARG75       0.0489
     46  CD        17.5970    1.3770   99.8470 C.3    75  ARG75       0.2205
     47  NE        19.0530    1.2750   99.6570 N.pl3  75  ARG75      -0.0865
     48  CZ        19.9600    1.3990  100.6230 C.cat  75  ARG75       0.5346
     49  NH1       19.5680    1.5100  101.9000 N.pl3  75  ARG75       0.1354
     50  NH2       21.2540    1.3750  100.3080 N.pl3  75  ARG75       0.1354
     51  N         15.7150   -3.6110  100.6180 N.3    98  TRP98      -0.1227
     52  CA        16.4680   -2.6680  101.3650 C.3    98  TRP98       0.1737
     53  C         17.1970   -3.3350  102.5570 C.2    98  TRP98       0.2596
     54  O         17.7230   -2.6690  103.3870 O.2    98  TRP98      -0.2718
     55  CB        15.5410   -1.5130  101.7530 C.3    98  TRP98       0.0564
     56  CG        14.1890   -1.9070  102.2520 C.ar   98  TRP98       0.0003
     57  CD1       13.0130   -1.5070  101.6980 C.ar   98  TRP98       0.0946
     58  CD2       13.8390   -2.6730  103.4300 C.ar   98  TRP98       0.0152
     59  NE1       11.9480   -1.9490  102.4310 N.ar   98  TRP98      -0.2442
     60  CE2       12.4200   -2.7080  103.4910 C.ar   98  TRP98       0.0810
     61  CE3       14.5580   -3.3050  104.4500 C.ar   98  TRP98       0.0012
     62  CZ2       11.7190   -3.3950  104.4820 C.ar   98  TRP98       0.0191
     63  CZ3       13.8660   -4.0250  105.4050 C.ar   98  TRP98       0.0001
     64  CH2       12.4590   -4.0600  105.4330 C.ar   98  TRP98       0.0015
     65  N         17.3580   -4.6700  102.5170 N.am   99  SER99      -0.1952
     66  CA        18.1770   -5.4460  103.4580 C.3    99  SER99       0.1924
     67  C         18.5000   -6.7790  102.7610 C.2    99  SER99       0.2314
     68  O         17.6130   -7.3820  102.1070 O.2    99  SER99      -0.2863
     69  CB        17.5050   -5.7080  104.8150 C.3    99  SER99       0.2116
     70  OG        18.4090   -6.3290  105.7460 O.3    99  SER99      -0.2180
     71  N         10.2440   -4.1120  110.5150 N.3   142  ILE142     -0.1245
     72  CA        11.4130   -4.0710  109.6900 C.3   142  ILE142      0.1561
     73  C         12.1580   -5.4020  109.7300 C.2   142  ILE142      0.2260
     74  O         13.2980   -5.4750  110.1510 O.2   142  ILE142     -0.2867
     75  CB        12.2910   -2.8440  110.0220 C.3   142  ILE142      0.0252
     76  CG1       11.4750   -1.5640  110.1700 C.3   142  ILE142      0.0019
     77  CG2       13.3350   -2.6920  108.9360 C.3   142  ILE142      0.0019
     78  CD1       12.2170   -0.3350  110.6120 C.3   142  ILE142      0.0001
     79  N         14.6680   -7.8950  108.5840 N.3   144  ARG144     -0.1245
     80  CA        15.9580   -7.4510  108.1110 C.3   144  ARG144      0.1563
     81  C         16.9830   -8.5530  108.3710 C.2   144  ARG144      0.2260
     82  O         16.7330   -9.4720  109.1640 O.2   144  ARG144     -0.2867
     83  CB        16.3150   -6.0950  108.7380 C.3   144  ARG144      0.0307
     84  CG        16.3540   -6.1280  110.2650 C.3   144  ARG144      0.0489
     85  CD        16.3000   -4.7520  110.7990 C.3   144  ARG144      0.2205
     86  NE        16.4520   -4.7580  112.2550 N.pl3 144  ARG144     -0.0865
     87  CZ        15.4820   -4.7700  113.1320 C.cat 144  ARG144      0.5346
     88  NH1       14.2160   -4.9800  112.7550 N.pl3 144  ARG144      0.1354
     89  NH2       15.8170   -4.6280  114.4290 N.pl3 144  ARG144      0.1354
     90  N         23.3450   -7.9770  105.7440 N.3   147  GLU147     -0.1245
     91  CA        24.0530   -7.0050  104.9680 C.3   147  GLU147      0.1567
     92  C         25.5110   -7.4210  104.7290 C.2   147  GLU147      0.2260
     93  O         26.3450   -6.5790  104.4520 O.2   147  GLU147     -0.2867
     94  CB        23.9870   -5.6110  105.5970 C.3   147  GLU147      0.0388
     95  CG        22.6750   -5.2770  106.2680 C.3   147  GLU147      0.1160
     96  CD        21.4620   -5.1380  105.3970 C.2   147  GLU147      0.3649
     97  OE1       20.3980   -4.7060  105.9430 O.co2 147  GLU147     -0.2457
     98  OE2       21.5660   -5.4370  104.1700 O.co2 147  GLU147     -0.2457
     99  N         14.6200   -1.7710  116.9760 N.3   166  ALA166     -0.1245
    100  CA        16.0440   -1.5090  116.9160 C.3   166  ALA166      0.1562
    101  C         16.6050   -1.2490  118.3130 C.2   166  ALA166      0.2260
    102  O         17.7950   -1.3270  118.5110 O.2   166  ALA166     -0.2867
    103  CB        16.2770   -0.2850  116.0540 C.3   166  ALA166      0.0290
    104  N         21.6320   -7.9300  115.2420 N.3   196  GLU196     -0.1231
    105  CA        21.4940   -7.3740  113.8850 C.3   196  GLU196      0.1699
    106  C         22.7440   -7.6180  113.0570 C.2   196  GLU196      0.2592
    107  O         23.8430   -7.6580  113.5820 O.2   196  GLU196     -0.2718
    108  CB        21.2840   -5.8700  113.9620 C.3   196  GLU196      0.0402
    109  CG        19.9790   -5.5510  114.6320 C.3   196  GLU196      0.1161
    110  CD        19.6290   -4.0920  114.6640 C.2   196  GLU196      0.3649
    111  OE1       20.5860   -3.2300  114.5770 O.co2 196  GLU196     -0.2457
    112  OE2       18.4090   -3.8250  114.6520 O.co2 196  GLU196     -0.2457
    113  N         22.5510   -7.6490  111.7280 N.am  197  GLU197     -0.1979
    114  CA        23.6270   -7.4150  110.7750 C.3   197  GLU197      0.1602
    115  C         24.8100   -8.3160  111.0320 C.2   197  GLU197      0.2287
    116  O         25.9320   -7.8650  111.0420 O.2   197  GLU197     -0.2864
    117  CB        24.0710   -5.9520  110.7630 C.3   197  GLU197      0.0415
    118  CG        22.9700   -5.0600  110.2240 C.3   197  GLU197      0.1163
    119  CD        23.2430   -3.5760  110.2660 C.2   197  GLU197      0.3649
    120  OE1       24.1200   -3.2010  111.0480 O.co2 197  GLU197     -0.2457
    121  OE2       22.5660   -2.7890  109.4980 O.co2 197  GLU197     -0.2457
    122  N         25.7610   -7.1790  115.6270 N.3   212  ARG212     -0.1245
    123  CA        25.5650   -5.8380  116.1650 C.3   212  ARG212      0.1563
    124  C         24.4230   -5.8830  117.1830 C.2   212  ARG212      0.2260
    125  O         23.3120   -6.2380  116.8330 O.2   212  ARG212     -0.2867
    126  CB        25.2080   -4.9100  115.0160 C.3   212  ARG212      0.0307
    127  CG        24.6920   -3.5250  115.4090 C.3   212  ARG212      0.0489
    128  CD        24.1630   -2.7350  114.2060 C.3   212  ARG212      0.2205
    129  NE        23.5870   -1.4130  114.4310 N.pl3 212  ARG212     -0.0865
    130  CZ        23.3690   -0.4870  113.4780 C.cat 212  ARG212      0.5346
    131  NH1       23.7820   -0.7140  112.2190 N.pl3 212  ARG212      0.1354
    132  NH2       22.7820    0.6520  113.8310 N.pl3 212  ARG212      0.1354
    133  N         22.1740   -3.5860  118.9150 N.3   214  ASN214     -0.1240
    134  CA        21.7890   -2.2040  118.7620 C.3   214  ASN214      0.1653
    135  C         21.0640   -1.6820  119.9950 C.2   214  ASN214      0.2266
    136  O         20.7590   -0.5030  120.0370 O.2   214  ASN214     -0.2867
    137  CB        20.9640   -1.9960  117.4910 C.3   214  ASN214      0.1155
    138  CG        21.1070   -0.5870  116.9570 C.2   214  ASN214      0.2627
    139  OD1       22.2080   -0.1910  116.5410 O.2   214  ASN214     -0.2716
    140  ND2       20.0020    0.1470  116.9700 N.am  214  ASN214     -0.0877
    141  N         31.6720    6.7420  112.9930 N.3   291  ARG291     -0.1245
    142  CA        32.1410    5.8340  111.9990 C.3   291  ARG291      0.1563
    143  C         33.3050    6.4840  111.2160 C.2   291  ARG291      0.2260
    144  O         33.1940    6.8350  110.0070 O.2   291  ARG291     -0.2867
    145  CB        30.9680    5.4560  111.0980 C.3   291  ARG291      0.0307
    146  CG        29.8600    4.7070  111.8370 C.3   291  ARG291      0.0489
    147  CD        28.5570    4.6920  111.0680 C.3   291  ARG291      0.2205
    148  NE        27.5060    3.9750  111.8210 N.pl3 291  ARG291     -0.0865
    149  CZ        26.3840    3.5330  111.2890 C.cat 291  ARG291      0.5346
    150  NH1       26.1010    3.8120  110.0120 N.pl3 291  ARG291      0.1354
    151  NH2       25.5990    2.7630  112.0300 N.pl3 291  ARG291      0.1354
    152  N         30.1700    0.4550  107.6920 N.3   325  TYR325     -0.1241
    153  CA        29.9940   -0.9340  107.9190 C.3   325  TYR325      0.1605
    154  C         31.2670   -1.7030  107.5660 C.2   325  TYR325      0.2264
    155  O         32.1110   -1.2460  106.7720 O.2   325  TYR325     -0.2867
    156  CB        28.8060   -1.4410  107.1150 C.3   325  TYR325      0.0534
    157  CG        27.4350   -1.1660  107.6910 C.ar  325  TYR325     -0.0201
    158  CD1       27.2290   -0.2380  108.7080 C.ar  325  TYR325     -0.0009
    159  CD2       26.3330   -1.8890  107.2390 C.ar  325  TYR325     -0.0009
    160  CE1       25.9660   -0.0360  109.2530 C.ar  325  TYR325      0.0417
    161  CE2       25.0780   -1.7420  107.8210 C.ar  325  TYR325      0.0417
    162  CZ        24.8970   -0.8020  108.8220 C.ar  325  TYR325      0.1957
    163  OH        23.6760   -0.6040  109.3830 O.3   325  TYR325     -0.2866
@<TRIPOS>BOND
     1    43    42    2
     2    42    41    1
     3    40    41    1
     4    41    44    1
     5    44    45    1
     6    45    46    1
     7     1     2    1
     8    47    46    1
     9    47    48    2
    10    50    48    1
    11     4     3    2
    12    51    52    1
    13    48    49    1
    14     2     3    1
    15     2     5    1
    16     3    12   am
    17    52    55    1
    18    52    53    1
    19    15    14    2
    20    57    56   ar
    21    57    59   ar
    22    55    56    1
    23    14    13    1
    24     5     6    1
    25    31    32    2
    26    31    30    1
    27    68    67    2
    28    56    58   ar
    29     6     7    1
    30    59    60   ar
    31    12    13    1
    32    65    53   am
    33    65    66    1
    34    53    54    2
    35    20    18   ar
    36    67    66    1
    37    13    16    1
    38    30    29    1
    39    30    33    1
    40    24    23    2
    41    16    17    1
    42    58    60   ar
    43    58    61   ar
    44    66    69    1
    45    60    62   ar
    46    29    23   am
    47    23    22    1
    48     7     8    1
    49    18    17    1
    50    18    19   ar
    51    33    34    1
    52    98    96   ar
    53    61    63   ar
    54    93    92    2
    55    22    21    1
    56    22    25    1
    57    62    64   ar
    58     8     9    2
    59    92    91    1
    60    69    70    1
    61    91    94    1
    62    91    90    1
    63    34    35    1
    64    96    97   ar
    65    96    95    1
    66    63    64   ar
    67    94    95    1
    68    25    26    1
    69     9    11    1
    70     9    10    1
    71    35    36    1
    72    27    26   ar
    73    26    28   ar
    74   155   154    2
    75    36    37    2
    76   156   157    1
    77   156   153    1
    78   159   157   ar
    79   159   161   ar
    80   154   153    1
    81   157   158   ar
    82   152   153    1
    83    37    38    1
    84    37    39    1
    85   161   162   ar
    86    80    81    1
    87    80    79    1
    88    80    83    1
    89    81    82    2
    90   158   160   ar
    91    83    84    1
    92   162   160   ar
    93   162   163    1
    94    77    75    1
    95   121   119   ar
    96    72    73    1
    97    72    75    1
    98    72    71    1
    99    73    74    2
   100   144   143    2
   101   150   149    1
   102    75    76    1
   103    76    78    1
   104   118   119    1
   105   118   117    1
   106    84    85    1
   107   119   120   ar
   108   117   114    1
   109   114   115    1
   110   114   113    1
   111    85    86    1
   112   115   116    2
   113   147   148    1
   114   147   146    1
   115   145   146    1
   116   145   142    1
   117   143   142    1
   118   149   148    2
   119   149   151    1
   120   113   106   am
   121   142   141    1
   122   131   130    1
   123    86    87    2
   124    88    87    1
   125   106   107    2
   126   106   105    1
   127    87    89    1
   128   130   132    1
   129   130   129    2
   130   105   108    1
   131   105   104    1
   132   108   109    1
   133   128   129    1
   134   128   127    1
   135   111   110   ar
   136   109   110    1
   137   112   110   ar
   138   126   127    1
   139   126   123    1
   140   122   123    1
   141   103   100    1
   142   123   124    1
   143   139   138    2
   144   125   124    2
   145   100    99    1
   146   100   101    1
   147   138   140   am
   148   138   137    1
   149   137   134    1
   150   101   102    2
   151   134   133    1
   152   134   135    1
   153   135   136    2
