@<TRIPOS>MOLECULE
tmp/6hg5D07.pdb
 163 153 0 0 0
SMALL
GASTEIGER

@<TRIPOS>ATOM
      1  N         24.6670    1.6740  100.0360 N.3    37  ARG37      -0.1231
      2  CA        25.1770    1.5040  101.3630 C.3    37  ARG37       0.1694
      3  C         25.0740    0.0120  101.6770 C.2    37  ARG37       0.2591
      4  O         24.5800   -0.7690  100.8660 O.2    37  ARG37      -0.2718
      5  CB        24.4830    2.3740  102.4090 C.3    37  ARG37       0.0321
      6  CG        25.2700    3.5960  102.8720 C.3    37  ARG37       0.0489
      7  CD        25.0120    4.0300  104.3240 C.3    37  ARG37       0.2205
      8  NE        25.5460    3.0070  105.2130 N.pl3  37  ARG37      -0.0865
      9  CZ        25.1440    2.7160  106.4470 C.cat  37  ARG37       0.5346
     10  NH1       25.7930    1.7530  107.1180 N.pl3  37  ARG37       0.1354
     11  NH2       24.1580    3.4010  107.0180 N.pl3  37  ARG37       0.1354
     12  N         25.5420   -0.3910  102.8550 N.am   38  GLU38      -0.1979
     13  CA        25.4890   -1.7740  103.3220 C.3    38  GLU38       0.1602
     14  C         26.1520   -2.7310  102.3120 C.2    38  GLU38       0.2287
     15  O         25.5600   -3.7470  101.9060 O.2    38  GLU38      -0.2864
     16  CB        24.0600   -2.2100  103.6620 C.3    38  GLU38       0.0415
     17  CG        23.3120   -1.3230  104.6140 C.3    38  GLU38       0.1163
     18  CD        22.7300   -0.0370  104.0960 C.2    38  GLU38       0.3649
     19  OE1       22.5090    0.9040  104.9690 O.co2  38  GLU38      -0.2457
     20  OE2       22.3730    0.0390  102.9130 O.co2  38  GLU38      -0.2457
     21  N         16.7200    4.9240  104.9030 N.3    70  ASP70      -0.1225
     22  CA        17.1520    3.5480  104.8500 C.3    70  ASP70       0.1805
     23  C         16.2810    2.6680  103.9280 C.2    70  ASP70       0.2597
     24  O         16.7930    1.7180  103.3470 O.2    70  ASP70      -0.2718
     25  CB        17.1620    2.8940  106.2280 C.3    70  ASP70       0.1424
     26  CG        18.3600    3.3350  107.0440 C.2    70  ASP70       0.3668
     27  OD1       19.5340    3.0420  106.5960 O.co2  70  ASP70      -0.2456
     28  OD2       18.0980    3.8810  108.0710 O.co2  70  ASP70      -0.2456
     29  N         14.9610    2.8720  103.9450 N.am   71  ARG71      -0.1979
     30  CA        14.1040    1.8560  103.4060 C.3    71  ARG71       0.1597
     31  C         13.1410    2.5220  102.4130 C.2    71  ARG71       0.2287
     32  O         12.3250    3.3400  102.8150 O.2    71  ARG71      -0.2864
     33  CB        13.3380    1.1630  104.5410 C.3    71  ARG71       0.0334
     34  CG        14.2070    0.3390  105.4760 C.3    71  ARG71       0.0492
     35  CD        13.4770   -0.3130  106.6310 C.3    71  ARG71       0.2205
     36  NE        12.7850    0.6390  107.4540 N.pl3  71  ARG71      -0.0865
     37  CZ        13.3740    1.4730  108.3090 C.cat  71  ARG71       0.5346
     38  NH1       14.6560    1.3440  108.6150 N.pl3  71  ARG71       0.1354
     39  NH2       12.6040    2.3490  108.9740 N.pl3  71  ARG71       0.1354
     40  N         15.2030    0.4340   96.3980 N.3    75  ARG75      -0.1245
     41  CA        16.4170   -0.1990   96.7270 C.3    75  ARG75       0.1563
     42  C         16.3940   -1.6590   96.2640 C.2    75  ARG75       0.2260
     43  O         15.3450   -2.2740   96.1220 O.2    75  ARG75      -0.2867
     44  CB        16.6790   -0.1810   98.2360 C.3    75  ARG75       0.0307
     45  CG        16.7170    1.2280   98.8130 C.3    75  ARG75       0.0489
     46  CD        17.4810    1.2970  100.1090 C.3    75  ARG75       0.2205
     47  NE        18.9320    1.1870   99.8930 N.pl3  75  ARG75      -0.0865
     48  CZ        19.8220    1.3790  100.8780 C.cat  75  ARG75       0.5346
     49  NH1       19.3940    1.6090  102.1220 N.pl3  75  ARG75       0.1354
     50  NH2       21.1410    1.3570  100.6130 N.pl3  75  ARG75       0.1354
     51  N         15.7040   -3.7420  101.0220 N.3    98  TRP98      -0.1227
     52  CA        16.4450   -2.7790  101.7880 C.3    98  TRP98       0.1737
     53  C         17.1940   -3.4140  102.9700 C.2    98  TRP98       0.2596
     54  O         17.7140   -2.7100  103.8270 O.2    98  TRP98      -0.2718
     55  CB        15.5380   -1.6370  102.2430 C.3    98  TRP98       0.0564
     56  CG        14.1810   -2.0060  102.7360 C.ar   98  TRP98       0.0003
     57  CD1       13.0050   -1.6480  102.1340 C.ar   98  TRP98       0.0946
     58  CD2       13.8130   -2.8030  103.8870 C.ar   98  TRP98       0.0152
     59  NE1       11.9480   -2.1070  102.8650 N.ar   98  TRP98      -0.2442
     60  CE2       12.4150   -2.9150  103.8910 C.ar   98  TRP98       0.0810
     61  CE3       14.5460   -3.5040  104.8380 C.ar   98  TRP98       0.0012
     62  CZ2       11.7170   -3.6060  104.8750 C.ar   98  TRP98       0.0191
     63  CZ3       13.8760   -4.2360  105.7890 C.ar   98  TRP98       0.0001
     64  CH2       12.4900   -4.2680  105.8280 C.ar   98  TRP98       0.0015
     65  N         17.3290   -4.7450  102.9250 N.am   99  SER99      -0.1952
     66  CA        18.1950   -5.5510  103.8520 C.3    99  SER99       0.1924
     67  C         18.5120   -6.8530  103.1280 C.2    99  SER99       0.2314
     68  O         17.5970   -7.4220  102.4850 O.2    99  SER99      -0.2863
     69  CB        17.5050   -5.8500  105.1910 C.3    99  SER99       0.2116
     70  OG        18.4100   -6.4610  106.1170 O.3    99  SER99      -0.2180
     71  N         10.1190   -4.3350  110.8750 N.3   142  ILE142     -0.1245
     72  CA        11.3020   -4.2780  110.0340 C.3   142  ILE142      0.1561
     73  C         12.0670   -5.6130  110.0770 C.2   142  ILE142      0.2260
     74  O         13.2180   -5.6630  110.4770 O.2   142  ILE142     -0.2867
     75  CB        12.1770   -3.0540  110.3930 C.3   142  ILE142      0.0252
     76  CG1       11.3600   -1.7680  110.5330 C.3   142  ILE142      0.0019
     77  CG2       13.2550   -2.8970  109.3360 C.3   142  ILE142      0.0019
     78  CD1       12.1310   -0.5880  111.0690 C.3   142  ILE142      0.0001
     79  N         14.5460   -8.0960  108.9630 N.3   144  ARG144     -0.1245
     80  CA        15.8490   -7.6760  108.4560 C.3   144  ARG144      0.1563
     81  C         16.9080   -8.7630  108.7130 C.2   144  ARG144      0.2260
     82  O         16.7190   -9.6840  109.5150 O.2   144  ARG144     -0.2867
     83  CB        16.2420   -6.3490  109.0820 C.3   144  ARG144      0.0307
     84  CG        16.2400   -6.3940  110.6080 C.3   144  ARG144      0.0489
     85  CD        16.3260   -5.0260  111.2040 C.3   144  ARG144      0.2205
     86  NE        16.4030   -5.0310  112.6330 N.pl3 144  ARG144     -0.0865
     87  CZ        15.3490   -4.8890  113.4590 C.cat 144  ARG144      0.5346
     88  NH1       14.0960   -4.9310  112.9740 N.pl3 144  ARG144      0.1354
     89  NH2       15.5610   -4.7300  114.7770 N.pl3 144  ARG144      0.1354
     90  N         23.2910   -8.1290  106.1880 N.3   147  GLU147     -0.1245
     91  CA        24.0360   -7.1340  105.4310 C.3   147  GLU147      0.1567
     92  C         25.5020   -7.5440  105.2150 C.2   147  GLU147      0.2260
     93  O         26.3120   -6.7120  104.9060 O.2   147  GLU147     -0.2867
     94  CB        24.0170   -5.7660  106.0730 C.3   147  GLU147      0.0388
     95  CG        22.6990   -5.3650  106.7090 C.3   147  GLU147      0.1160
     96  CD        21.5150   -5.2170  105.8170 C.2   147  GLU147      0.3649
     97  OE1       20.4560   -4.7400  106.3780 O.co2 147  GLU147     -0.2457
     98  OE2       21.6150   -5.5340  104.6070 O.co2 147  GLU147     -0.2457
     99  N         14.6940   -1.9810  117.4000 N.3   166  ALA166     -0.1245
    100  CA        16.1320   -1.8530  117.3000 C.3   166  ALA166      0.1562
    101  C         16.7300   -1.4200  118.6250 C.2   166  ALA166      0.2260
    102  O         17.9400   -1.4500  118.8200 O.2   166  ALA166     -0.2867
    103  CB        16.4550   -0.8610  116.2090 C.3   166  ALA166      0.0290
    104  N         21.7080   -7.8530  115.8000 N.3   196  GLU196     -0.1231
    105  CA        21.5520   -7.2100  114.5020 C.3   196  GLU196      0.1699
    106  C         22.7680   -7.5490  113.6310 C.2   196  GLU196      0.2592
    107  O         23.8800   -7.6940  114.1200 O.2   196  GLU196     -0.2718
    108  CB        21.5270   -5.6860  114.6050 C.3   196  GLU196      0.0402
    109  CG        20.4570   -5.1190  115.5120 C.3   196  GLU196      0.1161
    110  CD        19.0460   -5.0970  114.9460 C.2   196  GLU196      0.3649
    111  OE1       18.2110   -4.4400  115.5860 O.co2 196  GLU196     -0.2457
    112  OE2       18.7870   -5.6180  113.8180 O.co2 196  GLU196     -0.2457
    113  N         22.5310   -7.6410  112.3250 N.am  197  GLU197     -0.1979
    114  CA        23.5790   -7.5040  111.3070 C.3   197  GLU197      0.1602
    115  C         24.7730   -8.4110  111.5460 C.2   197  GLU197      0.2287
    116  O         25.9080   -7.9100  111.5680 O.2   197  GLU197     -0.2864
    117  CB        24.0010   -6.0380  111.2470 C.3   197  GLU197      0.0415
    118  CG        22.8750   -5.1440  110.7800 C.3   197  GLU197      0.1163
    119  CD        23.1540   -3.6690  110.8160 C.2   197  GLU197      0.3649
    120  OE1       24.1050   -3.2900  111.5550 O.co2 197  GLU197     -0.2457
    121  OE2       22.5280   -2.8840  110.0490 O.co2 197  GLU197     -0.2457
    122  N         25.8470   -7.2690  116.2080 N.3   212  ARG212     -0.1245
    123  CA        25.6590   -5.8920  116.7350 C.3   212  ARG212      0.1563
    124  C         24.4970   -5.8800  117.7330 C.2   212  ARG212      0.2260
    125  O         23.3750   -6.2230  117.3770 O.2   212  ARG212     -0.2867
    126  CB        25.3500   -4.9460  115.5960 C.3   212  ARG212      0.0307
    127  CG        24.8610   -3.5430  115.9910 C.3   212  ARG212      0.0489
    128  CD        24.4170   -2.8050  114.7260 C.3   212  ARG212      0.2205
    129  NE        23.7590   -1.5290  114.9720 N.pl3 212  ARG212     -0.0865
    130  CZ        23.5100   -0.5730  114.0320 C.cat 212  ARG212      0.5346
    131  NH1       23.9540   -0.7180  112.7730 N.pl3 212  ARG212      0.1354
    132  NH2       22.8820    0.5320  114.4020 N.pl3 212  ARG212      0.1354
    133  N         22.2650   -3.6780  119.4690 N.3   214  ASN214     -0.1240
    134  CA        21.9140   -2.2800  119.2980 C.3   214  ASN214      0.1653
    135  C         21.1420   -1.7760  120.5140 C.2   214  ASN214      0.2266
    136  O         20.7590   -0.5820  120.5300 O.2   214  ASN214     -0.2867
    137  CB        21.0510   -2.0970  118.0440 C.3   214  ASN214      0.1155
    138  CG        21.2020   -0.7280  117.4240 C.2   214  ASN214      0.2627
    139  OD1       22.3250   -0.3200  117.0830 O.2   214  ASN214     -0.2716
    140  ND2       20.0820   -0.0080  117.3310 N.am  214  ASN214     -0.0877
    141  N         31.7950    6.7040  113.5020 N.3   291  ARG291     -0.1245
    142  CA        32.2250    5.7900  112.4980 C.3   291  ARG291      0.1563
    143  C         33.4140    6.4050  111.7250 C.2   291  ARG291      0.2260
    144  O         33.3290    6.7490  110.5220 O.2   291  ARG291     -0.2867
    145  CB        31.0590    5.3930  111.5880 C.3   291  ARG291      0.0307
    146  CG        29.9670    4.6540  112.3710 C.3   291  ARG291      0.0489
    147  CD        28.6840    4.6180  111.5560 C.3   291  ARG291      0.2205
    148  NE        27.6820    3.8740  112.3340 N.pl3 291  ARG291     -0.0865
    149  CZ        26.5480    3.4310  111.8320 C.cat 291  ARG291      0.5346
    150  NH1       26.1800    3.7850  110.5850 N.pl3 291  ARG291      0.1354
    151  NH2       25.8060    2.6240  112.5710 N.pl3 291  ARG291      0.1354
    152  N         30.1690    0.3700  108.2200 N.3   325  TYR325     -0.1241
    153  CA        30.0260   -1.0630  108.4480 C.3   325  TYR325      0.1605
    154  C         31.2990   -1.8030  108.0890 C.2   325  TYR325      0.2264
    155  O         32.1190   -1.3660  107.2450 O.2   325  TYR325     -0.2867
    156  CB        28.8660   -1.6190  107.6140 C.3   325  TYR325      0.0534
    157  CG        27.4780   -1.3390  108.1680 C.ar  325  TYR325     -0.0201
    158  CD1       27.2760   -0.3730  109.1670 C.ar  325  TYR325     -0.0009
    159  CD2       26.3720   -2.0000  107.6960 C.ar  325  TYR325     -0.0009
    160  CE1       26.0310   -0.1750  109.7480 C.ar  325  TYR325      0.0417
    161  CE2       25.1160   -1.8130  108.2640 C.ar  325  TYR325      0.0417
    162  CZ        24.9480   -0.8840  109.2620 C.ar  325  TYR325      0.1957
    163  OH        23.7360   -0.7090  109.8490 O.3   325  TYR325     -0.2866
@<TRIPOS>BOND
     1    43    42    2
     2    42    41    1
     3    40    41    1
     4    41    44    1
     5    44    45    1
     6    45    46    1
     7    47    46    1
     8    47    48    2
     9     1     2    1
    10    50    48    1
    11     4     3    2
    12    48    49    1
    13    51    52    1
    14     2     3    1
    15     2     5    1
    16     3    12   am
    17    52    55    1
    18    52    53    1
    19    15    14    2
    20    57    56   ar
    21    57    59   ar
    22    55    56    1
    23    14    13    1
    24     5     6    1
    25    31    32    2
    26    31    30    1
    27    68    67    2
    28    56    58   ar
    29    12    13    1
    30    59    60   ar
    31     6     7    1
    32    20    18   ar
    33    65    53   am
    34    65    66    1
    35    53    54    2
    36    67    66    1
    37    13    16    1
    38    24    23    2
    39    30    29    1
    40    30    33    1
    41    16    17    1
    42    66    69    1
    43    58    60   ar
    44    58    61   ar
    45    60    62   ar
    46    23    29   am
    47    23    22    1
    48    18    17    1
    49    18    19   ar
    50     7     8    1
    51    33    34    1
    52    98    96   ar
    53    61    63   ar
    54    22    21    1
    55    22    25    1
    56    62    64   ar
    57    93    92    2
    58    69    70    1
    59     8     9    2
    60    92    91    1
    61    91    94    1
    62    91    90    1
    63    34    35    1
    64    63    64   ar
    65    96    97   ar
    66    96    95    1
    67    94    95    1
    68    25    26    1
    69     9    11    1
    70     9    10    1
    71    27    26   ar
    72    35    36    1
    73    26    28   ar
    74   155   154    2
    75    36    37    2
    76   156   157    1
    77   156   153    1
    78   159   157   ar
    79   159   161   ar
    80   154   153    1
    81   157   158   ar
    82   152   153    1
    83   161   162   ar
    84    37    38    1
    85    37    39    1
    86    80    81    1
    87    80    79    1
    88    80    83    1
    89    81    82    2
    90    83    84    1
    91   158   160   ar
    92   162   160   ar
    93   162   163    1
    94    77    75    1
    95    72    73    1
    96    72    75    1
    97    72    71    1
    98   121   119   ar
    99    73    74    2
   100    75    76    1
   101   144   143    2
   102    76    78    1
   103   150   149    1
   104    84    85    1
   105   118   119    1
   106   118   117    1
   107   119   120   ar
   108    85    86    1
   109   117   114    1
   110   114   115    1
   111   114   113    1
   112   115   116    2
   113   147   148    1
   114   147   146    1
   115   145   146    1
   116   145   142    1
   117   143   142    1
   118   149   148    2
   119   149   151    1
   120   113   106   am
   121   142   141    1
   122    86    87    2
   123   131   130    1
   124    88    87    1
   125    87    89    1
   126   106   107    2
   127   106   105    1
   128   112   110   ar
   129   130   132    1
   130   130   129    2
   131   105   108    1
   132   105   104    1
   133   108   109    1
   134   128   129    1
   135   128   127    1
   136   110   109    1
   137   110   111   ar
   138   126   127    1
   139   126   123    1
   140   122   123    1
   141   103   100    1
   142   123   124    1
   143   139   138    2
   144   100    99    1
   145   100   101    1
   146   140   138   am
   147   125   124    2
   148   138   137    1
   149   137   134    1
   150   101   102    2
   151   134   133    1
   152   134   135    1
   153   135   136    2
