@<TRIPOS>MOLECULE
tmp/6hgbC00.pdb
 87 80 0 0 0
SMALL
GASTEIGER

@<TRIPOS>ATOM
      1  N         54.3910   -2.5510   62.1260 N.3    17  HIS17      -0.1241
      2  CA        53.0100   -2.2660   61.7090 C.3    17  HIS17       0.1621
      3  C         52.1890   -1.8860   62.9370 C.2    17  HIS17       0.2264
      4  O         52.4600   -2.3350   64.0710 O.2    17  HIS17      -0.2867
      5  CB        52.4170   -3.5050   60.9870 C.3    17  HIS17       0.0745
      6  CG        52.0040   -4.6440   61.8600 C.ar   17  HIS17       0.0817
      7  ND1       50.7820   -4.6260   62.5390 N.ar   17  HIS17      -0.2268
      8  CD2       52.5800   -5.8170   62.1900 C.ar   17  HIS17       0.1154
      9  CE1       50.6490   -5.7410   63.2080 C.ar   17  HIS17       0.1986
     10  NE2       51.7290   -6.4800   63.0570 N.ar   17  HIS17      -0.2212
     11  N         49.3930   -2.0950   65.6030 N.3    19  LEU19      -0.1245
     12  CA        48.6340   -3.1670   66.2660 C.3    19  LEU19       0.1561
     13  C         47.3700   -2.5760   66.9080 C.2    19  LEU19       0.2260
     14  O         46.2720   -3.0670   66.6620 O.2    19  LEU19      -0.2867
     15  CB        49.4850   -3.8700   67.3240 C.3    19  LEU19       0.0270
     16  CG        48.7550   -5.0240   68.0230 C.3    19  LEU19       0.0019
     17  CD1       48.7280   -6.2310   67.1000 C.3    19  LEU19       0.0001
     18  CD2       49.3870   -5.3840   69.3480 C.3    19  LEU19       0.0001
     19  N         44.9930  -10.3450   73.2440 N.3    48  CYS48      -0.1235
     20  CA        45.8280   -9.4250   73.9800 C.3    48  CYS48       0.1677
     21  C         44.9600   -8.3660   74.6650 C.2    48  CYS48       0.2270
     22  O         43.8890   -8.0010   74.1990 O.2    48  CYS48      -0.2867
     23  CB        46.8270   -8.7440   73.0570 C.3    48  CYS48       0.0956
     24  SG        47.9390   -9.9180   72.2250 S.3    48  CYS48      -0.0801
     25  N         56.2900   -6.5010   74.5830 N.3   329  PHE329     -0.1241
     26  CA        55.4230   -7.6640   74.7870 C.3   329  PHE329      0.1605
     27  C         55.4420   -8.5050   73.5240 C.2   329  PHE329      0.2264
     28  O         55.7970   -7.9920   72.4850 O.2   329  PHE329     -0.2867
     29  CB        54.0020   -7.2780   75.1680 C.3   329  PHE329      0.0534
     30  CG        53.2480   -6.5770   74.0820 C.ar  329  PHE329     -0.0203
     31  CD1       53.4900   -5.2450   73.8150 C.ar  329  PHE329     -0.0042
     32  CD2       52.2210   -7.2230   73.4000 C.ar  329  PHE329     -0.0042
     33  CE1       52.7420   -4.5730   72.8640 C.ar  329  PHE329     -0.0003
     34  CE2       51.5330   -6.5640   72.4030 C.ar  329  PHE329     -0.0003
     35  CZ        51.7890   -5.2450   72.1400 C.ar  329  PHE329     -0.0000
     36  N         52.9100  -11.6700   71.5190 N.3   331  ASP331     -0.1239
     37  CA        51.8250  -12.6210   71.5290 C.3   331  ASP331      0.1674
     38  C         52.4390  -14.0170   71.3500 C.2   331  ASP331      0.2266
     39  O         52.5870  -14.5480   70.2180 O.2   331  ASP331     -0.2867
     40  CB        50.7980  -12.3260   70.4360 C.3   331  ASP331      0.1410
     41  CG        49.6540  -13.3200   70.4240 C.2   331  ASP331      0.3668
     42  OD1       49.5940  -14.2230   71.3360 O.co2 331  ASP331     -0.2456
     43  OD2       48.8770  -13.2560   69.4330 O.co2 331  ASP331     -0.2456
     44  N         50.5520  -16.7480   69.1530 N.3   334  ALA334     -0.1245
     45  CA        50.2520  -16.5670   67.7410 C.3   334  ALA334      0.1562
     46  C         50.5370  -17.8690   66.9790 C.2   334  ALA334      0.2260
     47  O         51.3340  -18.6900   67.3940 O.2   334  ALA334     -0.2867
     48  CB        51.0350  -15.3960   67.1940 C.3   334  ALA334      0.0290
     49  N         52.3640  -18.8350   64.4950 N.3   336  LYS336     -0.1245
     50  CA        53.5790  -18.5270   63.7540 C.3   336  LYS336      0.1561
     51  C         54.7040  -19.3990   64.3050 C.2   336  LYS336      0.2260
     52  O         54.6640  -19.8050   65.4590 O.2   336  LYS336     -0.2867
     53  CB        54.0870  -17.0990   63.9570 C.3   336  LYS336      0.0271
     54  CG        53.3540  -15.9520   63.2900 C.3   336  LYS336      0.0035
     55  CD        54.1760  -14.6700   63.4280 C.3   336  LYS336      0.0206
     56  CE        53.5730  -13.4610   62.7550 C.3   336  LYS336      0.1093
     57  NZ        52.1310  -13.3250   63.0950 N.3   336  LYS336     -0.1314
     58  N         56.9340  -12.8830   67.4830 N.3   340  ASN340     -0.1240
     59  CA        57.0730  -11.6200   66.7900 C.3   340  ASN340      0.1653
     60  C         57.1560  -10.4770   67.8070 C.2   340  ASN340      0.2266
     61  O         56.2040  -10.2550   68.5730 O.2   340  ASN340     -0.2867
     62  CB        55.9050  -11.3580   65.8380 C.3   340  ASN340      0.1155
     63  CG        56.1870  -10.2170   64.8780 C.2   340  ASN340      0.2627
     64  OD1       57.3380   -9.9920   64.4940 O.2   340  ASN340     -0.2716
     65  ND2       55.1560   -9.4650   64.5340 N.am  340  ASN340     -0.0877
     66  N         56.6760   -7.1410   69.7580 N.3   342  CYS342     -0.1235
     67  CA        55.7710   -6.0030   69.8140 C.3   342  CYS342      0.1677
     68  C         56.2410   -5.0280   70.8780 C.2   342  CYS342      0.2270
     69  O         56.9780   -5.4180   71.8140 O.2   342  CYS342     -0.2867
     70  CB        54.3270   -6.3990   70.1580 C.3   342  CYS342      0.0956
     71  SG        53.5980   -7.6310   69.0470 S.3   342  CYS342     -0.0801
     72  N         53.8290   -4.0230   66.1610 N.3   368  CYS368     -0.1221
     73  CA        54.5180   -5.2510   66.1160 C.3   368  CYS368      0.1808
     74  C         55.3680   -5.3200   64.8430 C.2   368  CYS368      0.2602
     75  O         55.2110   -4.5260   63.9190 O.2   368  CYS368     -0.2717
     76  CB        53.5740   -6.4470   66.1210 C.3   368  CYS368      0.0970
     77  SG        52.5270   -6.5480   67.6000 S.3   368  CYS368     -0.0800
     78  N         56.2930   -6.2690   64.8300 N.am  369  GLY369     -0.1942
     79  CA        57.2180   -6.3580   63.7240 C.3   369  GLY369      0.2014
     80  C         56.5350   -6.8550   62.4540 C.2   369  GLY369      0.2639
     81  O         55.5590   -7.6020   62.4950 O.2   369  GLY369     -0.2714
     82  N         57.0930   -6.3990   61.3290 N.am  370  SER370     -0.1949
     83  CA        56.8510   -6.9450   59.9940 C.3   370  SER370      0.1924
     84  C         58.1900   -7.3040   59.3510 C.2   370  SER370      0.2314
     85  O         59.1680   -6.5620   59.5150 O.2   370  SER370     -0.2863
     86  CB        56.1050   -5.9260   59.1650 C.3   370  SER370      0.2116
     87  OG        55.8880   -6.3900   57.8310 O.3   370  SER370     -0.2180
@<TRIPOS>BOND
     1    87    86    1
     2    86    83    1
     3    84    85    2
     4    84    83    1
     5    83    82    1
     6     5     2    1
     7     5     6    1
     8    82    80   am
     9     2     1    1
    10     2     3    1
    11     6     8   ar
    12     6     7   ar
    13     8    10   ar
    14    80    81    2
    15    80    79    1
    16     7     9   ar
    17    56    57    1
    18    56    55    1
    19     3     4    2
    20    10     9   ar
    21    54    55    1
    22    54    53    1
    23    79    78    1
    24    50    53    1
    25    50    51    1
    26    50    49    1
    27    75    74    2
    28    51    52    2
    29    64    63    2
    30    65    63   am
    31    78    74   am
    32    74    73    1
    33    63    62    1
    34    11    12    1
    35    62    59    1
    36    73    76    1
    37    73    72    1
    38    76    77    1
    39    12    13    1
    40    12    15    1
    41    14    13    2
    42    59    58    1
    43    59    60    1
    44    46    47    2
    45    46    45    1
    46    17    16    1
    47    48    45    1
    48    15    16    1
    49    77    71    1
    50    45    44    1
    51    60    61    2
    52    16    18    1
    53    71    70    1
    54    43    41   ar
    55    66    67    1
    56    67    70    1
    57    67    68    1
    58    39    38    2
    59    41    40    1
    60    41    42   ar
    61    40    37    1
    62    68    69    2
    63    38    37    1
    64    36    37    1
    65    35    34   ar
    66    35    33   ar
    67    24    23    1
    68    34    32   ar
    69    28    27    2
    70    33    31   ar
    71    23    20    1
    72    19    20    1
    73    32    30   ar
    74    27    26    1
    75    31    30   ar
    76    20    21    1
    77    30    29    1
    78    22    21    2
    79    25    26    1
    80    26    29    1
