@<TRIPOS>MOLECULE
tmp/6hgbC02.pdb
 81 82 0 0 0
SMALL
GASTEIGER

@<TRIPOS>ATOM
      1  N         70.3560    5.8410   88.1890 N.3   215  TRP215     -0.1227
      2  CA        71.4490    6.3720   89.0270 C.3   215  TRP215      0.1737
      3  C         72.5080    7.0570   88.1640 C.2   215  TRP215      0.2595
      4  O         72.8270    8.2110   88.3890 O.2   215  TRP215     -0.2718
      5  CB        72.0240    5.2520   89.8910 C.3   215  TRP215      0.0564
      6  CG        73.1580    5.6260   90.8160 C.ar  215  TRP215      0.0003
      7  CD1       73.4970    6.8660   91.2730 C.ar  215  TRP215      0.0946
      8  CD2       74.0340    4.6960   91.4720 C.ar  215  TRP215      0.0152
      9  NE1       74.5720    6.7650   92.1370 N.ar  215  TRP215     -0.2442
     10  CE2       74.8950    5.4410   92.3040 C.ar  215  TRP215      0.0810
     11  CE3       74.1860    3.3080   91.4340 C.ar  215  TRP215      0.0012
     12  CZ2       75.9080    4.8300   93.0510 C.ar  215  TRP215      0.0191
     13  CZ3       75.1770    2.7050   92.1890 C.ar  215  TRP215      0.0001
     14  CH2       76.0140    3.4630   93.0110 C.ar  215  TRP215      0.0015
     15  N         73.0840    6.3350   87.2060 N.am  216  LYS216     -0.1966
     16  CA        74.2550    6.8350   86.4530 C.3   216  LYS216      0.1728
     17  C         74.0250    6.8100   84.9330 C.2   216  LYS216      0.2617
     18  O         74.3120    7.7540   84.2420 O.2   216  LYS216     -0.2715
     19  CB        75.4510    5.9570   86.7990 C.3   216  LYS216      0.0311
     20  CG        75.9870    6.1650   88.2250 C.3   216  LYS216      0.0038
     21  CD        76.9720    5.0710   88.5770 C.3   216  LYS216      0.0206
     22  CE        77.5720    5.2200   89.9540 C.3   216  LYS216      0.1093
     23  NZ        78.6700    4.2420   90.1530 N.3   216  LYS216     -0.1314
     24  N         73.5460    5.6840   84.4210 N.am  217  GLY217     -0.1940
     25  CA        73.6980    5.3600   83.0280 C.3   217  GLY217      0.2014
     26  C         72.6010    5.9110   82.1350 C.2   217  GLY217      0.2638
     27  O         71.4240    5.8430   82.4360 O.2   217  GLY217     -0.2714
     28  N         73.0310    6.3880   80.9640 N.am  218  ALA218     -0.1977
     29  CA        72.1460    6.7120   79.8290 C.3   218  ALA218      0.1597
     30  C         72.0890    5.5470   78.8470 C.2   218  ALA218      0.2287
     31  O         71.2330    5.5470   77.9360 O.2   218  ALA218     -0.2864
     32  CB        72.6540    7.9780   79.1460 C.3   218  ALA218      0.0319
     33  N         67.0550   11.2950   80.3410 N.3   246  SER246     -0.1217
     34  CA        67.8730   12.1090   79.4450 C.3   246  SER246      0.1889
     35  C         69.1750   11.4000   79.1180 C.2   246  SER246      0.2288
     36  O         69.6530   10.5670   79.8990 O.2   246  SER246     -0.2866
     37  CB        68.1750   13.4670   80.0870 C.3   246  SER246      0.2089
     38  OG        66.9970   14.1350   80.4970 O.3   246  SER246     -0.2183
     39  N         77.5420    8.2040   81.7260 N.3   261  THR261     -0.1203
     40  CA        76.8810    9.3080   82.3990 C.3   261  THR261      0.1994
     41  C         76.3490   10.3600   81.4110 C.2   261  THR261      0.2618
     42  O         76.6250   10.3480   80.2420 O.2   261  THR261     -0.2717
     43  CB        77.8790    9.9690   83.3540 C.3   261  THR261      0.1784
     44  OG1       78.4040    8.9120   84.1600 O.3   261  THR261     -0.2211
     45  CG2       77.2650   11.0650   84.1970 C.3   261  THR261      0.0376
     46  N         75.6090   11.3260   81.9520 N.am  262  GLY262     -0.1942
     47  CA        75.2940   12.5910   81.2930 C.3   262  GLY262      0.2014
     48  C         73.8270   12.6100   80.9160 C.2   262  GLY262      0.2639
     49  O         73.1210   11.6240   81.1860 O.2   262  GLY262     -0.2714
     50  N         73.4040   13.6910   80.2610 N.am  263  GLY263     -0.1939
     51  CA        72.0100   13.9480   79.9990 C.3   263  GLY263      0.2014
     52  C         71.4350   14.8940   81.0310 C.2   263  GLY263      0.2640
     53  O         71.8800   14.9020   82.1820 O.2   263  GLY263     -0.2714
     54  N         70.4460   15.6920   80.6250 N.am  264  SER264     -0.1936
     55  CA        69.7460   16.5870   81.4870 C.3   264  SER264      0.2040
     56  C         68.4130   16.9360   80.8150 C.2   264  SER264      0.2485
     57  O         68.3280   17.0210   79.5920 O.2   264  SER264     -0.2729
     58  CB        70.6460   17.8040   81.7940 C.3   264  SER264      0.2129
     59  OG        69.9580   19.0530   81.7690 O.3   264  SER264     -0.2179
     60  N         67.3200   17.1490   81.5660 N.am  265  PRO265     -0.2715
     61  CA        67.3610   17.0820   83.0330 C.3   265  PRO265      0.1536
     62  C         66.8280   15.8680   83.8110 C.2   265  PRO265      0.2599
     63  O         66.6650   15.9670   85.0100 O.2   265  PRO265     -0.2715
     64  CB        66.3950   18.2550   83.2080 C.3   265  PRO265      0.0310
     65  CG        65.2690   17.9770   82.2650 C.3   265  PRO265      0.0237
     66  CD        66.0080   17.5310   81.0430 C.3   265  PRO265      0.0939
     67  N         66.5220   14.7620   83.1100 N.am  266  ASP266     -0.1959
     68  CA        65.7330   13.6020   83.6290 C.3   266  ASP266      0.1825
     69  C         66.7180   12.4620   83.8820 C.2   266  ASP266      0.2464
     70  O         67.5600   12.1790   83.0200 O.2   266  ASP266     -0.2730
     71  CB        64.6880   13.1070   82.6050 C.3   266  ASP266      0.1450
     72  CG        63.5550   14.0090   82.1110 C.2   266  ASP266      0.3671
     73  OD1       63.3490   15.1110   82.7060 O.co2 266  ASP266     -0.2456
     74  OD2       62.8290   13.6010   81.1070 O.co2 266  ASP266     -0.2456
     75  N         66.6700   11.7590   85.0340 N.am  267  PRO267     -0.2727
     76  CA        67.5150   10.5900   85.2680 C.3   267  PRO267      0.1402
     77  C         67.2230    9.2890   84.5160 C.2   267  PRO267      0.2269
     78  O         68.0780    8.4190   84.4500 O.2   267  PRO267     -0.2865
     79  CB        67.3900   10.3650   86.7930 C.3   267  PRO267      0.0296
     80  CG        66.0390   10.8890   87.1140 C.3   267  PRO267      0.0237
     81  CD        65.8310   12.0950   86.2060 C.3   267  PRO267      0.0939
@<TRIPOS>BOND
     1    31    30    2
     2    30    29    1
     3    35    34    1
     4    35    36    2
     5    32    29    1
     6    34    37    1
     7    34    33    1
     8    57    56    2
     9    29    28    1
    10    51    50    1
    11    51    52    1
    12    37    38    1
    13    42    41    2
    14    50    48   am
    15    54    52   am
    16    54    55    1
    17    56    55    1
    18    56    60   am
    19    48    49    2
    20    48    47    1
    21    28    26   am
    22    52    53    2
    23    66    60    1
    24    66    65    1
    25    74    72   ar
    26    47    46    1
    27    41    46   am
    28    41    40    1
    29    55    58    1
    30    60    61    1
    31    39    40    1
    32    59    58    1
    33    72    71    1
    34    72    73   ar
    35    26    27    2
    36    26    25    1
    37    65    64    1
    38    40    43    1
    39    71    68    1
    40    70    69    2
    41    25    24    1
    42    61    64    1
    43    61    62    1
    44    67    68    1
    45    67    62   am
    46    43    44    1
    47    43    45    1
    48    68    69    1
    49    62    63    2
    50    69    75   am
    51    18    17    2
    52    24    17   am
    53    78    77    2
    54    77    76    1
    55    17    16    1
    56    75    76    1
    57    75    81    1
    58    76    79    1
    59    81    80    1
    60    16    19    1
    61    16    15    1
    62    79    80    1
    63    19    20    1
    64    15     3   am
    65     3     4    2
    66     3     2    1
    67     1     2    1
    68    20    21    1
    69    21    22    1
    70     2     5    1
    71     5     6    1
    72    22    23    1
    73     6     7   ar
    74     6     8   ar
    75     7     9   ar
    76    11     8   ar
    77    11    13   ar
    78     8    10   ar
    79     9    10   ar
    80    13    14   ar
    81    10    12   ar
    82    14    12   ar
