@<TRIPOS>MOLECULE
tmp/6hh4A00.pdb
 216 207 0 0 0
SMALL
GASTEIGER

@<TRIPOS>ATOM
      1  N         -2.3790   -5.3810    8.5680 N.3    24  GLU24      -0.1245
      2  CA        -3.5390   -4.6120    8.0690 C.3    24  GLU24       0.1567
      3  C         -3.0260   -3.3090    7.4580 C.2    24  GLU24       0.2260
      4  O         -2.1870   -2.6250    8.0400 O.2    24  GLU24      -0.2867
      5  CB        -4.5890   -4.3090    9.1700 C.3    24  GLU24       0.0388
      6  CG        -5.8860   -3.6010    8.7090 C.3    24  GLU24       0.1160
      7  CD        -6.6840   -2.8780    9.8260 C.2    24  GLU24       0.3649
      8  OE1       -6.0420   -2.3460   10.7940 O.co2  24  GLU24      -0.2457
      9  OE2       -7.9630   -2.8720    9.7910 O.co2  24  GLU24      -0.2457
     10  N        -10.1930   -3.8520   17.2240 N.3    54  ASP54      -0.1225
     11  CA       -11.5740   -3.4290   17.3200 C.3    54  ASP54       0.1805
     12  C        -12.5330   -4.4910   16.7860 C.2    54  ASP54       0.2597
     13  O        -13.6670   -4.5490   17.2420 O.2    54  ASP54      -0.2718
     14  CB       -11.8070   -2.1030   16.5840 C.3    54  ASP54       0.1424
     15  CG       -11.4210   -2.1920   15.1130 C.2    54  ASP54       0.3668
     16  OD1      -10.2530   -2.6170   14.7900 O.co2  54  ASP54      -0.2456
     17  OD2      -12.2480   -1.8020   14.2950 O.co2  54  ASP54      -0.2456
     18  N        -12.1430   -5.2530   15.7590 N.am   55  ASP55      -0.1974
     19  CA       -12.9700   -6.3100   15.1800 C.3    55  ASP55       0.1709
     20  C        -13.5010   -7.2440   16.2950 C.2    55  ASP55       0.2293
     21  O        -14.7050   -7.4890   16.4150 O.2    55  ASP55      -0.2864
     22  CB       -12.1970   -7.0860   14.1180 C.3    55  ASP55       0.1436
     23  CG       -11.7150   -6.2430   12.9410 C.2    55  ASP55       0.3671
     24  OD1      -10.9510   -5.2470   13.1490 O.co2  55  ASP55      -0.2456
     25  OD2      -12.1220   -6.6120   11.8100 O.co2  55  ASP55      -0.2456
     26  N        -15.5390   -5.3660   19.3130 N.3    58  MET58      -0.1245
     27  CA       -16.9540   -5.1140   19.0160 C.3    58  MET58       0.1570
     28  C        -17.7270   -6.4380   18.9940 C.2    58  MET58       0.2261
     29  O        -18.8570   -6.5050   19.4720 O.2    58  MET58      -0.2867
     30  CB       -17.1170   -4.3320   17.7170 C.3    58  MET58       0.0387
     31  CG       -16.5540   -2.9020   17.8040 C.3    58  MET58       0.0595
     32  SD       -17.3640   -1.8270   16.5840 S.3    58  MET58      -0.1393
     33  CE       -18.8760   -1.4780   17.4690 C.3    58  MET58       0.0692
     34  N         -8.0280    2.5120   21.8790 N.3    90  THR90      -0.1218
     35  CA        -6.8800    2.3410   20.9720 C.3    90  THR90       0.1862
     36  C         -6.9050    0.9870   20.2470 C.2    90  THR90       0.2287
     37  O         -5.9080    0.6190   19.6230 O.2    90  THR90      -0.2866
     38  CB        -5.5600    2.4850   21.7480 C.3    90  THR90       0.1770
     39  OG1       -5.5220    1.4700   22.7380 O.3    90  THR90      -0.2211
     40  CG2       -5.4050    3.7910   22.4910 C.3    90  THR90       0.0375
     41  N         -8.2160    0.0960   17.5070 N.3    92  GLY92      -0.1210
     42  CA        -8.0320    0.1770   16.0320 C.3    92  GLY92       0.1956
     43  C         -9.2900    0.5530   15.2450 C.2    92  GLY92       0.2612
     44  O         -9.3960    0.1990   14.0690 O.2    92  GLY92      -0.2717
     45  N        -10.1760    1.3590   15.8440 N.am   93  TYR93      -0.1962
     46  CA       -11.4590    1.7490   15.2540 C.3    93  TYR93       0.1771
     47  C        -11.2920    2.6690   14.0470 C.2    93  TYR93       0.2620
     48  O        -10.3720    3.4840   14.0000 O.2    93  TYR93      -0.2715
     49  CB       -12.3100    2.5100   16.2730 C.3    93  TYR93       0.0574
     50  CG       -12.7720    1.6590   17.4210 C.ar   93  TYR93      -0.0198
     51  CD1      -13.8860    0.8510   17.2880 C.ar   93  TYR93      -0.0009
     52  CD2      -12.0770    1.6290   18.6220 C.ar   93  TYR93      -0.0009
     53  CE1      -14.3310    0.0580   18.3260 C.ar   93  TYR93       0.0417
     54  CE2      -12.4760    0.7910   19.6490 C.ar   93  TYR93       0.0417
     55  CZ       -13.6320    0.0420   19.5120 C.ar   93  TYR93       0.1957
     56  OH       -14.0960   -0.7460   20.5340 O.3    93  TYR93      -0.2866
     57  N        -12.2230    2.5340   13.0910 N.am   94  GLY94      -0.1940
     58  CA       -12.2840    3.4280   11.9330 C.3    94  GLY94       0.2014
     59  C        -12.3590    4.8890   12.3610 C.2    94  GLY94       0.2639
     60  O        -12.9250    5.1920   13.4020 O.2    94  GLY94      -0.2714
     61  N        -11.7650    5.7810   11.5630 N.am   95  ALA95      -0.1963
     62  CA       -11.7120    7.2030   11.8550 C.3    95  ALA95       0.1728
     63  C        -13.1210    7.8080   11.9450 C.2    95  ALA95       0.2617
     64  O        -13.3400    8.6610   12.7610 O.2    95  ALA95      -0.2715
     65  CB       -10.8810    7.9310   10.8280 C.3    95  ALA95       0.0334
     66  N        -14.0690    7.2970   11.1410 N.am   96  GLY96      -0.1940
     67  CA       -15.4490    7.8090   11.1410 C.3    96  GLY96       0.2014
     68  C        -16.2560    7.3540   12.3540 C.2    96  GLY96       0.2638
     69  O        -16.8870    8.1630   13.0370 O.2    96  GLY96      -0.2714
     70  N        -16.2150    6.0480   12.6280 N.am   97  VAL97      -0.1977
     71  CA       -17.1090    5.4260   13.5760 C.3    97  VAL97       0.1596
     72  C        -16.9090    5.9700   14.9980 C.2    97  VAL97       0.2287
     73  O        -17.8290    5.9490   15.7970 O.2    97  VAL97      -0.2864
     74  CB       -17.0350    3.8860   13.5420 C.3    97  VAL97       0.0276
     75  CG1      -15.7750    3.3150   14.2080 C.3    97  VAL97       0.0022
     76  CG2      -18.2670    3.3100   14.2080 C.3    97  VAL97       0.0022
     77  N        -23.5190   10.2290    9.7870 N.3   119  GLN119     -0.1231
     78  CA       -22.1540    9.9980    9.2910 C.3   119  GLN119      0.1698
     79  C        -22.0820   10.3560    7.7990 C.2   119  GLN119      0.2592
     80  O        -23.0460   10.1200    7.0420 O.2   119  GLN119     -0.2718
     81  CB       -21.8010    8.5240    9.5060 C.3   119  GLN119      0.0381
     82  CG       -21.6840    8.1390   10.9710 C.3   119  GLN119      0.0905
     83  CD       -20.3920    8.6790   11.5330 C.2   119  GLN119      0.2608
     84  OE1      -20.3000    9.8530   11.8860 O.2   119  GLN119     -0.2717
     85  NE2      -19.3960    7.8080   11.5980 N.am  119  GLN119     -0.0878
     86  N        -20.9390   10.9270    7.3810 N.am  120  PHE120     -0.1976
     87  CA       -20.6040   11.1630    5.9740 C.3   120  PHE120      0.1639
     88  C        -21.7360   11.9280    5.2870 C.2   120  PHE120      0.2290
     89  O        -22.2870   11.4870    4.2680 O.2   120  PHE120     -0.2864
     90  CB       -20.2580    9.8460    5.2710 C.3   120  PHE120      0.0560
     91  CG       -19.0800    9.1680    5.9140 C.ar  120  PHE120     -0.0200
     92  CD1      -17.7960    9.6450    5.6760 C.ar  120  PHE120     -0.0042
     93  CD2      -19.2550    8.1220    6.8050 C.ar  120  PHE120     -0.0042
     94  CE1      -16.7120    9.0520    6.2990 C.ar  120  PHE120     -0.0003
     95  CE2      -18.1760    7.5550    7.4510 C.ar  120  PHE120     -0.0003
     96  CZ       -16.9000    8.0050    7.1790 C.ar  120  PHE120     -0.0000
     97  N        -25.0900   10.2660    4.5540 N.3   123  LYS123     -0.1231
     98  CA       -25.1240    9.1190    3.6440 C.3   123  LYS123      0.1693
     99  C        -24.8700    7.8280    4.4310 C.2   123  LYS123      0.2593
    100  O        -25.2710    6.7670    3.9920 O.2   123  LYS123     -0.2718
    101  CB       -24.1180    9.2870    2.5010 C.3   123  LYS123      0.0285
    102  CG       -24.4990   10.3530    1.4800 C.3   123  LYS123      0.0035
    103  CD       -23.4430   10.5770    0.4150 C.3   123  LYS123      0.0206
    104  CE       -23.9180   11.4930   -0.6970 C.3   123  LYS123      0.1093
    105  NZ       -22.9470   12.5800   -0.9440 N.3   123  LYS123     -0.1314
    106  N        -24.2270    7.9430    5.6020 N.am  124  GLY124     -0.1942
    107  CA       -23.8980    6.7770    6.4290 C.3   124  GLY124      0.2014
    108  C        -22.6490    6.0590    5.9430 C.2   124  GLY124      0.2640
    109  O        -22.2140    6.2380    4.8210 O.2   124  GLY124     -0.2714
    110  N        -22.0550    5.2640    6.8390 N.am  125  SER125     -0.1935
    111  CA       -20.8340    4.5430    6.5440 C.3   125  SER125      0.2055
    112  C        -21.1140    3.3230    5.6580 C.2   125  SER125      0.2643
    113  O        -22.0320    2.5410    5.9320 O.2   125  SER125     -0.2714
    114  CB       -20.1350    4.1280    7.7880 C.3   125  SER125      0.2130
    115  OG       -18.9220    3.4610    7.4450 O.3   125  SER125     -0.2179
    116  N        -20.2480    3.1430    4.6450 N.am  126  TYR126     -0.1959
    117  CA       -20.2240    1.9040    3.8620 C.3   126  TYR126      0.1771
    118  C        -19.0260    1.0130    4.2510 C.2   126  TYR126      0.2620
    119  O        -18.7070    0.0590    3.5340 O.2   126  TYR126     -0.2715
    120  CB       -20.2570    2.2070    2.3630 C.3   126  TYR126      0.0574
    121  CG       -19.1520    3.0810    1.8530 C.ar  126  TYR126     -0.0198
    122  CD1      -17.8220    2.7650    2.0620 C.ar  126  TYR126     -0.0009
    123  CD2      -19.4490    4.2280    1.1200 C.ar  126  TYR126     -0.0009
    124  CE1      -16.8040    3.5750    1.5850 C.ar  126  TYR126      0.0417
    125  CE2      -18.4470    5.0450    0.6370 C.ar  126  TYR126      0.0417
    126  CZ       -17.1260    4.7190    0.8790 C.ar  126  TYR126      0.1957
    127  OH       -16.1460    5.5320    0.4010 O.3   126  TYR126     -0.2866
    128  N        -18.3850    1.3100    5.3830 N.am  127  GLY127     -0.1940
    129  CA       -17.3100    0.4810    5.9150 C.3   127  GLY127      0.2014
    130  C        -17.7630   -0.9030    6.3270 C.2   127  GLY127      0.2639
    131  O        -18.9710   -1.1930    6.4580 O.2   127  GLY127     -0.2714
    132  N        -16.7730   -1.7760    6.5890 N.am  128  ASN128     -0.1958
    133  CA       -17.0280   -3.1750    6.9130 C.3   128  ASN128      0.1819
    134  C        -17.1550   -3.4140    8.4300 C.2   128  ASN128      0.2621
    135  O        -17.2210   -4.5660    8.8480 O.2   128  ASN128     -0.2715
    136  CB       -15.9490   -4.0800    6.3040 C.3   128  ASN128      0.1195
    137  CG       -14.5380   -3.7480    6.7410 C.2   128  ASN128      0.2630
    138  OD1      -14.3100   -3.1130    7.7810 O.2   128  ASN128     -0.2716
    139  ND2      -13.5580   -4.1760    5.9430 N.am  128  ASN128     -0.0877
    140  N        -17.2070   -2.3470    9.2310 N.am  129  GLY129     -0.1954
    141  CA       -17.3010   -2.4190   10.7130 C.3   129  GLY129      0.1869
    142  C        -18.5980   -3.0790   11.1810 C.2   129  GLY129      0.2309
    143  O        -18.6320   -3.7730   12.2120 O.2   129  GLY129     -0.2863
    144  N        -17.7810   -6.9010   10.4190 N.3   132  MET132     -0.1230
    145  CA       -16.6570   -7.5070   11.0980 C.3   132  MET132      0.1702
    146  C        -17.0550   -8.1640   12.4380 C.2   132  MET132      0.2592
    147  O        -16.3420   -9.0310   12.9180 O.2   132  MET132     -0.2718
    148  CB       -15.5390   -6.4980   11.3590 C.3   132  MET132      0.0401
    149  CG       -15.7960   -5.5580   12.5450 C.3   132  MET132      0.0596
    150  SD       -14.5480   -4.2560   12.6530 S.3   132  MET132     -0.1393
    151  CE       -15.2790   -3.2890   13.9710 C.3   132  MET132      0.0692
    152  N        -18.1810   -7.7130   13.0070 N.am  133  ARG133     -0.1980
    153  CA       -18.6340   -8.0820   14.3480 C.3   133  ARG133      0.1597
    154  C        -19.9300   -8.8990   14.3390 C.2   133  ARG133      0.2287
    155  O        -20.4820   -9.2050   15.4110 O.2   133  ARG133     -0.2864
    156  CB       -18.8590   -6.8170   15.1700 C.3   133  ARG133      0.0334
    157  CG       -19.9810   -5.9270   14.6680 C.3   133  ARG133      0.0492
    158  CD       -20.0410   -4.5900   15.3340 C.3   133  ARG133      0.2205
    159  NE       -21.2130   -3.8690   14.8340 N.pl3 133  ARG133     -0.0865
    160  CZ       -21.2210   -2.6210   14.4140 C.cat 133  ARG133      0.5346
    161  NH1      -20.0860   -1.9410   14.2590 N.pl3 133  ARG133      0.1354
    162  NH2      -22.3840   -2.0520   14.1250 N.pl3 133  ARG133      0.1354
    163  N        -24.0290    1.6890   13.6410 N.3   158  THR158     -0.1203
    164  CA       -22.8240    2.4230   13.2010 C.3   158  THR158      0.1994
    165  C        -22.8240    2.7020   11.6900 C.2   158  THR158      0.2617
    166  O        -22.1420    3.6450   11.2540 O.2   158  THR158     -0.2717
    167  CB       -21.5350    1.6720   13.5950 C.3   158  THR158      0.1784
    168  OG1      -21.5500    0.3510   13.0830 O.3   158  THR158     -0.2211
    169  CG2      -21.3280    1.5730   15.0930 C.3   158  THR158      0.0376
    170  N        -23.5350    1.8730   10.9070 N.am  159  HIS159     -0.1975
    171  CA       -23.4670    1.8290    9.4410 C.3   159  HIS159      0.1656
    172  C        -24.8630    1.9890    8.8410 C.2   159  HIS159      0.2291
    173  O        -25.5960    1.0080    8.7150 O.2   159  HIS159     -0.2864
    174  CB       -22.7840    0.5250    8.9810 C.3   159  HIS159      0.0771
    175  CG       -21.3380    0.5060    9.3400 C.ar  159  HIS159      0.0820
    176  ND1      -20.8930    0.4330   10.6710 N.ar  159  HIS159     -0.2267
    177  CD2      -20.2460    0.6470    8.5490 C.ar  159  HIS159      0.1154
    178  CE1      -19.5720    0.5250   10.6530 C.ar  159  HIS159      0.1986
    179  NE2      -19.1490    0.6440    9.3600 N.ar  159  HIS159     -0.2212
    180  N        -25.5230    3.3290    5.7100 N.3   161  SER161     -0.1217
    181  CA       -25.5870    3.1680    4.2730 C.3   161  SER161      0.1889
    182  C        -26.0320    1.7380    3.9670 C.2   161  SER161      0.2288
    183  O        -25.5320    0.8040    4.5990 O.2   161  SER161     -0.2866
    184  CB       -24.2400    3.4380    3.6630 C.3   161  SER161      0.2089
    185  OG       -24.1380    2.8310    2.3790 O.3   161  SER161     -0.2183
    186  N        -11.4430   -1.4570    3.1040 N.3   233  ILE233     -0.1245
    187  CA       -12.2290   -1.1320    4.2930 C.3   233  ILE233      0.1561
    188  C        -13.7360   -1.0760    3.9770 C.2   233  ILE233      0.2260
    189  O        -14.5630   -1.2160    4.8570 O.2   233  ILE233     -0.2867
    190  CB       -11.7260    0.2030    4.8630 C.3   233  ILE233      0.0252
    191  CG1      -12.0210    0.3220    6.3530 C.3   233  ILE233      0.0019
    192  CG2      -12.2980    1.3710    4.0640 C.3   233  ILE233      0.0019
    193  CD1      -11.2290    1.4190    7.0160 C.3   233  ILE233      0.0001
    194  N         -7.1170   -4.9140    3.9840 N.3   276  ASP276     -0.1239
    195  CA        -7.7590   -4.9630    5.2660 C.3   276  ASP276      0.1674
    196  C         -7.7240   -6.4000    5.7900 C.2   276  ASP276      0.2266
    197  O         -8.7530   -7.0910    5.8570 O.2   276  ASP276     -0.2867
    198  CB        -9.1820   -4.3920    5.1600 C.3   276  ASP276      0.1410
    199  CG        -9.7940   -4.1340    6.5260 C.2   276  ASP276      0.3668
    200  OD1       -9.1270   -4.4990    7.4570 O.co2 276  ASP276     -0.2456
    201  OD2      -10.8930   -3.5860    6.6280 O.co2 276  ASP276     -0.2456
    202  N         -6.9390   -7.8980    8.8480 N.3   278  ASP278     -0.1225
    203  CA        -7.5400   -8.4050   10.0740 C.3   278  ASP278      0.1805
    204  C         -9.0480   -8.6140    9.8310 C.2   278  ASP278      0.2598
    205  O         -9.6040   -9.5810   10.3200 O.2   278  ASP278     -0.2718
    206  CB        -7.2560   -7.5610   11.3300 C.3   278  ASP278      0.1424
    207  CG        -7.6870   -6.1170   11.2050 C.2   278  ASP278      0.3668
    208  OD1       -8.0630   -5.7570   10.1100 O.co2 278  ASP278     -0.2456
    209  OD2       -7.6180   -5.3660   12.2040 O.co2 278  ASP278     -0.2456
    210  N         -9.7000   -7.7610    9.0630 N.am  279  THR279     -0.1953
    211  CA       -11.1770   -7.8350    8.9240 C.3   279  THR279      0.1897
    212  C        -11.5800   -8.8900    7.8830 C.2   279  THR279      0.2313
    213  O        -12.5340   -9.6550    8.1010 O.2   279  THR279     -0.2863
    214  CB       -11.7200   -6.4520    8.5620 C.3   279  THR279      0.1794
    215  OG1      -11.2620   -5.5610    9.5780 O.3   279  THR279     -0.2208
    216  CG2      -13.2170   -6.3940    8.4340 C.3   279  THR279      0.0378
@<TRIPOS>BOND
     1   105   104    1
     2   104   103    1
     3   127   126    1
     4   103   102    1
     5   125   126   ar
     6   125   123   ar
     7   126   124   ar
     8   123   121   ar
     9   102   101    1
    10   124   122   ar
    11   121   122   ar
    12   121   120    1
    13   120   117    1
    14   185   184    1
    15   101    98    1
    16   186   187    1
    17   119   118    2
    18    98    99    1
    19    98    97    1
    20   184   181    1
    21   117   118    1
    22   117   116    1
    23   182   181    1
    24   182   183    2
    25   188   187    1
    26   188   189    2
    27   194   195    1
    28   100    99    2
    29   192   190    1
    30   118   128   am
    31    89    88    2
    32   181   180    1
    33   187   190    1
    34    99   106   am
    35   116   112   am
    36   109   108    2
    37   190   191    1
    38   198   195    1
    39   198   199    1
    40   195   196    1
    41    90    91    1
    42    90    87    1
    43    88    87    1
    44   128   129    1
    45   106   107    1
    46   112   113    2
    47   112   111    1
    48    92    91   ar
    49    92    94   ar
    50   196   197    2
    51    91    93   ar
    52   129   130    1
    53   139   137   am
    54   108   107    1
    55   108   110   am
    56    87    86    1
    57    94    96   ar
    58   136   137    1
    59   136   133    1
    60   130   131    2
    61   130   132   am
    62   191   193    1
    63   199   201   ar
    64   199   200   ar
    65   111   110    1
    66   111   114    1
    67   132   133    1
    68   137   138    2
    69    93    95   ar
    70   133   134    1
    71    80    79    2
    72    96    95   ar
    73    86    79   am
    74   115   114    1
    75     3     4    2
    76     3     2    1
    77    79    78    1
    78   212   213    2
    79   212   211    1
    80     2     1    1
    81     2     5    1
    82   134   135    2
    83   134   140   am
    84   216   214    1
    85   177   175   ar
    86   177   179   ar
    87   214   211    1
    88   214   215    1
    89     6     5    1
    90     6     7    1
    91   173   172    2
    92   172   171    1
    93   202   203    1
    94   211   210    1
    95   174   175    1
    96   174   171    1
    97   210   204   am
    98   140   141    1
    99    78    81    1
   100    78    77    1
   101   175   176   ar
   102   179   178   ar
   103   171   170    1
   104    81    82    1
   105     9     7   ar
   106     7     8   ar
   107   204   203    1
   108   204   205    2
   109   203   206    1
   110   208   207   ar
   111   144   145    1
   112   178   176   ar
   113   141   142    1
   114    65    62    1
   115   170   165   am
   116    82    83    1
   117   145   148    1
   118   145   146    1
   119    66    67    1
   120    66    63   am
   121    67    68    1
   122   142   143    2
   123   207   206    1
   124   207   209   ar
   125   166   165    2
   126   148   149    1
   127    83    85   am
   128    83    84    2
   129    61    62    1
   130    61    59   am
   131   165   164    1
   132    25    23   ar
   133    62    63    1
   134    58    59    1
   135    58    57    1
   136    63    64    2
   137    68    70   am
   138    68    69    2
   139    59    60    2
   140   146   147    2
   141   146   152   am
   142   149   150    1
   143    70    71    1
   144   150   151    1
   145    23    24   ar
   146    23    22    1
   147   152   153    1
   148   168   167    1
   149    57    47   am
   150   164   167    1
   151   164   163    1
   152    74    71    1
   153    74    76    1
   154    74    75    1
   155    71    72    1
   156   167   169    1
   157    48    47    2
   158    47    46    1
   159    44    43    2
   160    22    19    1
   161   162   160    1
   162   161   160    1
   163    17    15   ar
   164   154   153    1
   165   154   155    2
   166   153   156    1
   167   160   159    2
   168   157   156    1
   169   157   158    1
   170    16    15   ar
   171   159   158    1
   172    72    73    2
   173    15    14    1
   174    19    18    1
   175    19    20    1
   176    43    45   am
   177    43    42    1
   178    46    45    1
   179    46    49    1
   180    18    12   am
   181    42    41    1
   182    49    50    1
   183    20    21    2
   184    32    33    1
   185    32    31    1
   186    14    11    1
   187    12    13    2
   188    12    11    1
   189    10    11    1
   190    51    50   ar
   191    51    53   ar
   192    50    52   ar
   193    30    31    1
   194    30    27    1
   195    53    55   ar
   196    52    54   ar
   197    28    27    1
   198    28    29    2
   199    27    26    1
   200    55    54   ar
   201    55    56    1
   202    37    36    2
   203    36    35    1
   204    35    38    1
   205    35    34    1
   206    38    40    1
   207    38    39    1
