@<TRIPOS>MOLECULE
tmp/6hh4A01.pdb
 80 77 0 0 0
SMALL
GASTEIGER

@<TRIPOS>ATOM
      1  N         -3.9310   -8.8150   12.1470 N.3    21  ALA21      -0.1231
      2  CA        -3.7670   -7.4470   12.6580 C.3    21  ALA21       0.1694
      3  C         -2.4150   -6.8580   12.2350 C.2    21  ALA21       0.2592
      4  O         -2.3390   -5.6850   11.8860 O.2    21  ALA21      -0.2718
      5  CB        -3.8730   -7.4160   14.1670 C.3    21  ALA21       0.0304
      6  N         -1.3430   -7.6440   12.3430 N.am   22  GLU22      -0.1966
      7  CA        -0.0160   -7.0680   12.0960 C.3    22  GLU22       0.1733
      8  C          0.1850   -6.7390   10.6050 C.2    22  GLU22       0.2616
      9  O          1.1080   -5.9990   10.3130 O.2    22  GLU22      -0.2715
     10  CB         1.0970   -7.9770   12.6170 C.3    22  GLU22       0.0429
     11  CG         1.2660   -7.9330   14.1310 C.3    22  GLU22       0.1163
     12  CD         2.3390   -8.9150   14.5730 C.2    22  GLU22       0.3649
     13  OE1        3.2650   -9.1530   13.7530 O.co2  22  GLU22      -0.2457
     14  OE2        2.2120   -9.5180   15.6700 O.co2  22  GLU22      -0.2457
     15  N         -0.6400   -7.2500    9.6880 N.am   23  PHE23      -0.1960
     16  CA        -0.4820   -6.9620    8.2930 C.3    23  PHE23       0.1771
     17  C         -1.4700   -5.9080    7.7440 C.2    23  PHE23       0.2619
     18  O         -1.4280   -5.6220    6.5560 O.2    23  PHE23      -0.2715
     19  CB        -0.6170   -8.2710    7.5250 C.3    23  PHE23       0.0574
     20  CG         0.3860   -9.3050    7.9550 C.ar   23  PHE23      -0.0200
     21  CD1        1.6880   -9.2590    7.4850 C.ar   23  PHE23      -0.0042
     22  CD2        0.0400  -10.2780    8.8910 C.ar   23  PHE23      -0.0042
     23  CE1        2.6100  -10.2380    7.8600 C.ar   23  PHE23      -0.0003
     24  CE2        0.9830  -11.2150    9.3130 C.ar   23  PHE23      -0.0003
     25  CZ         2.2470  -11.2120    8.7730 C.ar   23  PHE23      -0.0000
     26  N         -2.3790   -5.3810    8.5680 N.am   24  GLU24      -0.1963
     27  CA        -3.5390   -4.6120    8.0690 C.3    24  GLU24       0.1733
     28  C         -3.0260   -3.3090    7.4580 C.2    24  GLU24       0.2617
     29  O         -2.1870   -2.6250    8.0400 O.2    24  GLU24      -0.2715
     30  CB        -4.5890   -4.3090    9.1700 C.3    24  GLU24       0.0429
     31  CG        -5.8860   -3.6010    8.7090 C.3    24  GLU24       0.1163
     32  CD        -6.6840   -2.8780    9.8260 C.2    24  GLU24       0.3649
     33  OE1       -6.0420   -2.3460   10.7940 O.co2  24  GLU24      -0.2457
     34  OE2       -7.9630   -2.8720    9.7910 O.co2  24  GLU24      -0.2457
     35  N         -3.5320   -3.0020    6.2530 N.am   25  GLY25      -0.1940
     36  CA        -3.1670   -1.8210    5.5350 C.3    25  GLY25       0.2014
     37  C         -1.8300   -1.9690    4.8310 C.2    25  GLY25       0.2639
     38  O         -1.3810   -1.0510    4.1900 O.2    25  GLY25      -0.2714
     39  N         -1.1750   -3.1350    4.9780 N.am   26  SER26      -0.1949
     40  CA         0.1430   -3.3500    4.3790 C.3    26  SER26       0.1924
     41  C          0.0030   -3.4040    2.8580 C.2    26  SER26       0.2314
     42  O         -0.8480   -4.1320    2.3440 O.2    26  SER26      -0.2863
     43  CB         0.8200   -4.6160    4.8710 C.3    26  SER26       0.2116
     44  OG         2.0190   -4.8610    4.1200 O.3    26  SER26      -0.2180
     45  N          2.8430   -4.2020    1.3020 N.3    28  ALA28      -0.1231
     46  CA         4.0100   -5.0610    1.0250 C.3    28  ALA28       0.1694
     47  C          3.7380   -6.5510    1.3260 C.2    28  ALA28       0.2592
     48  O          4.5080   -7.4150    0.8960 O.2    28  ALA28      -0.2718
     49  CB         5.1920   -4.5520    1.8170 C.3    28  ALA28       0.0304
     50  N          2.6890   -6.8700    2.0910 N.am   29  VAL29      -0.1966
     51  CA         2.4500   -8.2520    2.5200 C.3    29  VAL29       0.1727
     52  C          2.1660   -9.1640    1.3100 C.2    29  VAL29       0.2616
     53  O          1.3630   -8.8530    0.4390 O.2    29  VAL29      -0.2715
     54  CB         1.3340   -8.3940    3.5850 C.3    29  VAL29       0.0290
     55  CG1       -0.0340   -7.9580    3.0800 C.3    29  VAL29       0.0023
     56  CG2        1.2540   -9.8390    4.0960 C.3    29  VAL29       0.0023
     57  N          2.8780  -10.3020    1.3420 N.am   30  GLU30      -0.1977
     58  CA         2.7770  -11.4290    0.4350 C.3    30  GLU30       0.1602
     59  C          2.8110  -12.7340    1.2570 C.2    30  GLU30       0.2287
     60  O          3.2830  -12.7560    2.4030 O.2    30  GLU30      -0.2864
     61  CB         3.9290  -11.3950   -0.5750 C.3    30  GLU30       0.0415
     62  CG         5.3070  -11.0710    0.0250 C.3    30  GLU30       0.1163
     63  CD         6.4150  -10.7100   -0.9560 C.2    30  GLU30       0.3649
     64  OE1        6.1890  -10.8250   -2.1810 O.co2  30  GLU30      -0.2457
     65  OE2        7.5120  -10.3100   -0.4970 O.co2  30  GLU30      -0.2457
     66  N          5.6110  -13.8080    3.7530 N.3    33  ASP33      -0.1239
     67  CA         5.5810  -13.1340    5.0380 C.3    33  ASP33       0.1674
     68  C          4.6250  -13.8930    5.9740 C.2    33  ASP33       0.2266
     69  O          4.9070  -14.0510    7.1410 O.2    33  ASP33      -0.2867
     70  CB         5.1320  -11.6710    4.9330 C.3    33  ASP33       0.1410
     71  CG         5.9910  -10.7760    4.0680 C.2    33  ASP33       0.3668
     72  OD1        7.2110  -10.7040    4.3310 O.co2  33  ASP33      -0.2456
     73  OD2        5.4230  -10.1670    3.1240 O.co2  33  ASP33      -0.2456
     74  N         -8.0820   -6.7240   18.0120 N.3    53  THR53      -0.1218
     75  CA        -8.3020   -5.3430   17.6130 C.3    53  THR53       0.1862
     76  C         -9.7760   -4.9800   17.8030 C.2    53  THR53       0.2287
     77  O        -10.5120   -5.6720   18.5210 O.2    53  THR53      -0.2866
     78  CB        -7.8130   -5.0780   16.1730 C.3    53  THR53       0.1770
     79  OG1       -8.7900   -5.4710   15.2000 O.3    53  THR53      -0.2211
     80  CG2       -6.4610   -5.7080   15.9060 C.3    53  THR53       0.0375
@<TRIPOS>BOND
     1    64    63   ar
     2    63    65   ar
     3    63    62    1
     4    61    62    1
     5    61    58    1
     6    58    59    1
     7    58    57    1
     8    53    52    2
     9    48    47    2
    10    46    45    1
    11    46    47    1
    12    46    49    1
    13    59    60    2
    14    52    57   am
    15    52    51    1
    16    47    50   am
    17    50    51    1
    18    42    41    2
    19    51    54    1
    20    41    40    1
    21    55    54    1
    22    73    71   ar
    23    54    56    1
    24    66    67    1
    25    71    72   ar
    26    71    70    1
    27    44    43    1
    28    38    37    2
    29    40    43    1
    30    40    39    1
    31    37    39   am
    32    37    36    1
    33    70    67    1
    34    67    68    1
    35    36    35    1
    36    68    69    2
    37    35    28   am
    38    18    17    2
    39    28    29    2
    40    28    27    1
    41    21    23   ar
    42    21    20   ar
    43    19    20    1
    44    19    16    1
    45    17    16    1
    46    17    26   am
    47    23    25   ar
    48    20    22   ar
    49    27    26    1
    50    27    30    1
    51    16    15    1
    52    31    30    1
    53    31    32    1
    54    25    24   ar
    55    22    24   ar
    56    15     8   am
    57    34    32   ar
    58    32    33   ar
    59     9     8    2
    60     8     7    1
    61     4     3    2
    62     7     6    1
    63     7    10    1
    64     1     2    1
    65     3     6   am
    66     3     2    1
    67    10    11    1
    68     2     5    1
    69    13    12   ar
    70    11    12    1
    71    12    14   ar
    72    79    78    1
    73    80    78    1
    74    78    75    1
    75    75    76    1
    76    75    74    1
    77    76    77    2
