@<TRIPOS>MOLECULE
tmp/6hh5A00.pdb
 192 185 0 0 0
SMALL
GASTEIGER

@<TRIPOS>ATOM
      1  N         -1.4760   -5.6080    9.5930 N.3    25  GLU25      -0.1245
      2  CA        -2.5830   -4.6220    9.3450 C.3    25  GLU25       0.1567
      3  C         -2.0560   -3.4120    8.5480 C.2    25  GLU25       0.2260
      4  O         -0.9670   -2.9040    8.8490 O.2    25  GLU25      -0.2867
      5  CB        -3.2350   -4.1660   10.6550 C.3    25  GLU25       0.0388
      6  CG        -4.2640   -3.0450   10.5010 C.3    25  GLU25       0.1160
      7  CD        -5.5930   -3.4360    9.8490 C.2    25  GLU25       0.3649
      8  OE1       -6.5990   -2.7110   10.0310 O.co2  25  GLU25      -0.2457
      9  OE2       -5.6240   -4.4650    9.1440 O.co2  25  GLU25      -0.2457
     10  N         -9.9470   -4.4060   17.6090 N.3    55  ASP55      -0.1225
     11  CA       -11.3000   -3.9140   17.6650 C.3    55  ASP55       0.1805
     12  C        -12.2680   -5.0130   17.2080 C.2    55  ASP55       0.2597
     13  O        -13.3750   -5.0960   17.7180 O.2    55  ASP55      -0.2718
     14  CB       -11.4510   -2.6480   16.8150 C.3    55  ASP55       0.1424
     15  CG       -11.1230   -2.8510   15.3420 C.2    55  ASP55       0.3668
     16  OD1      -10.1260   -3.6010   15.0020 O.co2  55  ASP55      -0.2456
     17  OD2      -11.8920   -2.3010   14.5410 O.co2  55  ASP55      -0.2456
     18  N        -11.8170   -5.8590   16.2670 N.am   56  ASP56      -0.1974
     19  CA       -12.6370   -6.9090   15.6910 C.3    56  ASP56       0.1709
     20  C        -13.1680   -7.8330   16.8000 C.2    56  ASP56       0.2293
     21  O        -14.4130   -8.1090   16.8700 O.2    56  ASP56      -0.2864
     22  CB       -11.8610   -7.7260   14.6660 C.3    56  ASP56       0.1436
     23  CG       -11.5030   -6.9600   13.4070 C.2    56  ASP56       0.3671
     24  OD1      -10.6180   -6.0660   13.4900 O.co2  56  ASP56      -0.2456
     25  OD2      -12.1420   -7.2340   12.3560 O.co2  56  ASP56      -0.2456
     26  N        -15.2820   -5.9780   19.8360 N.3    59  MET59      -0.1245
     27  CA       -16.6800   -5.7300   19.4770 C.3    59  MET59       0.1570
     28  C        -17.4430   -7.0580   19.4410 C.2    59  MET59       0.2261
     29  O        -18.5790   -7.1130   19.8660 O.2    59  MET59      -0.2867
     30  CB       -16.7710   -4.9940   18.1390 C.3    59  MET59       0.0387
     31  CG       -16.2000   -3.5700   18.2010 C.3    59  MET59       0.0595
     32  SD       -17.0710   -2.3390   17.1330 S.3    59  MET59      -0.1393
     33  CE       -18.5780   -2.1060   18.0710 C.3    59  MET59       0.0692
     34  N         -7.6760   -0.4390   18.3560 N.3    93  GLY93      -0.1210
     35  CA        -7.5340   -0.3060   16.8860 C.3    93  GLY93       0.1956
     36  C         -8.8410   -0.0030   16.1590 C.2    93  GLY93       0.2612
     37  O         -9.0520   -0.4790   15.0420 O.2    93  GLY93      -0.2717
     38  N         -9.6950    0.8230   16.7710 N.am   94  TYR94      -0.1962
     39  CA       -10.9810    1.2000   16.2360 C.3    94  TYR94       0.1771
     40  C        -10.8360    2.1300   15.0170 C.2    94  TYR94       0.2620
     41  O         -9.8770    2.9090   14.9230 O.2    94  TYR94      -0.2715
     42  CB       -11.7950    1.8990   17.3350 C.3    94  TYR94       0.0574
     43  CG       -12.3410    0.9540   18.3760 C.ar   94  TYR94      -0.0198
     44  CD1      -13.4780    0.2010   18.1150 C.ar   94  TYR94      -0.0009
     45  CD2      -11.7180    0.7870   19.6040 C.ar   94  TYR94      -0.0009
     46  CE1      -14.0010   -0.6750   19.0530 C.ar   94  TYR94       0.0417
     47  CE2      -12.2130   -0.1050   20.5470 C.ar   94  TYR94       0.0417
     48  CZ       -13.3630   -0.8320   20.2720 C.ar   94  TYR94       0.1957
     49  OH       -13.8930   -1.7110   21.1720 O.3    94  TYR94      -0.2866
     50  N        -11.8590    2.1020   14.1440 N.am   95  GLY95      -0.1940
     51  CA       -12.0560    3.0980   13.0870 C.3    95  GLY95       0.2014
     52  C        -12.0780    4.5170   13.6360 C.2    95  GLY95       0.2639
     53  O        -12.5130    4.7510   14.7570 O.2    95  GLY95      -0.2714
     54  N        -11.5860    5.4710   12.8360 N.am   96  ALA96      -0.1963
     55  CA       -11.4810    6.8560   13.2280 C.3    96  ALA96       0.1728
     56  C        -12.8800    7.4760   13.3400 C.2    96  ALA96       0.2617
     57  O        -13.1330    8.3220   14.1870 O.2    96  ALA96      -0.2715
     58  CB       -10.6320    7.5810   12.2220 C.3    96  ALA96       0.0334
     59  N        -13.8000    7.0530   12.4710 N.am   97  GLY97      -0.1940
     60  CA       -15.1750    7.5590   12.4960 C.3    97  GLY97       0.2014
     61  C        -15.9330    7.0780   13.7230 C.2    97  GLY97       0.2638
     62  O        -16.5170    7.8930   14.4590 O.2    97  GLY97      -0.2714
     63  N        -15.8970    5.7570   13.9520 N.am   98  VAL98      -0.1977
     64  CA       -16.8140    5.0860   14.8720 C.3    98  VAL98       0.1596
     65  C        -16.5560    5.5460   16.3140 C.2    98  VAL98       0.2287
     66  O        -17.4600    5.5100   17.1530 O.2    98  VAL98      -0.2864
     67  CB       -16.7720    3.5560   14.7210 C.3    98  VAL98       0.0276
     68  CG1      -15.5390    2.9190   15.3340 C.3    98  VAL98       0.0022
     69  CG2      -18.0190    2.9220   15.2960 C.3    98  VAL98       0.0022
     70  N        -23.1730   10.0810   11.1220 N.3   120  GLN120     -0.1231
     71  CA       -21.8050    9.8420   10.6400 C.3   120  GLN120      0.1698
     72  C        -21.6450   10.3060    9.1790 C.2   120  GLN120      0.2592
     73  O        -22.5690   10.1670    8.3570 O.2   120  GLN120     -0.2718
     74  CB       -21.4790    8.3580   10.7730 C.3   120  GLN120      0.0381
     75  CG       -21.2900    7.8980   12.2150 C.3   120  GLN120      0.0905
     76  CD       -19.9620    8.3820   12.7490 C.2   120  GLN120      0.2608
     77  OE1      -19.8350    9.5310   13.1710 O.2   120  GLN120     -0.2717
     78  NE2      -18.9690    7.5020   12.7260 N.am  120  GLN120     -0.0878
     79  N        -20.4680   10.8820    8.8780 N.am  121  PHE121     -0.1976
     80  CA       -20.0540   11.3210    7.5370 C.3   121  PHE121      0.1639
     81  C        -21.1680   12.1150    6.8420 C.2   121  PHE121      0.2290
     82  O        -21.6940   11.6950    5.8140 O.2   121  PHE121     -0.2864
     83  CB       -19.6110   10.1080    6.7200 C.3   121  PHE121      0.0560
     84  CG       -18.4770    9.3600    7.3700 C.ar  121  PHE121     -0.0200
     85  CD1      -17.1760    9.8430    7.2820 C.ar  121  PHE121     -0.0042
     86  CD2      -18.7190    8.2060    8.1070 C.ar  121  PHE121     -0.0042
     87  CE1      -16.1320    9.1780    7.9050 C.ar  121  PHE121     -0.0003
     88  CE2      -17.6700    7.5370    8.7200 C.ar  121  PHE121     -0.0003
     89  CZ       -16.3810    8.0280    8.6210 C.ar  121  PHE121     -0.0000
     90  N        -24.5910   10.4720    5.9080 N.3   124  LYS124     -0.1231
     91  CA       -24.5990    9.3660    4.9300 C.3   124  LYS124      0.1693
     92  C        -24.3410    8.0300    5.6310 C.2   124  LYS124      0.2593
     93  O        -24.6610    6.9810    5.0770 O.2   124  LYS124     -0.2718
     94  CB       -23.5270    9.5720    3.8540 C.3   124  LYS124      0.0285
     95  CG       -23.7400   10.7720    2.9450 C.3   124  LYS124      0.0035
     96  CD       -22.4590   11.4820    2.6200 C.3   124  LYS124      0.0206
     97  CE       -22.6490   12.7530    1.8140 C.3   124  LYS124      0.1093
     98  NZ       -21.3510   13.3990    1.4920 N.3   124  LYS124     -0.1314
     99  N        -23.7410    8.0810    6.8270 N.am  125  GLY125     -0.1942
    100  CA       -23.4320    6.8860    7.5990 C.3   125  GLY125      0.2014
    101  C        -22.1570    6.2250    7.1100 C.2   125  GLY125      0.2640
    102  O        -21.7150    6.4720    5.9910 O.2   125  GLY125     -0.2714
    103  N        -21.5730    5.3760    7.9610 N.am  126  SER126     -0.1935
    104  CA       -20.3400    4.7000    7.6610 C.3   126  SER126      0.2055
    105  C        -20.5940    3.5000    6.7440 C.2   126  SER126      0.2643
    106  O        -21.5080    2.7270    6.9850 O.2   126  SER126     -0.2714
    107  CB       -19.6170    4.2530    8.9120 C.3   126  SER126      0.2130
    108  OG       -18.5470    3.3660    8.5710 O.3   126  SER126     -0.2179
    109  N        -19.7030    3.3320    5.7510 N.am  127  TYR127     -0.1959
    110  CA       -19.6750    2.1590    4.8660 C.3   127  TYR127      0.1771
    111  C        -18.5100    1.2220    5.2500 C.2   127  TYR127      0.2620
    112  O        -18.1240    0.3280    4.4740 O.2   127  TYR127     -0.2715
    113  CB       -19.6210    2.6070    3.4010 C.3   127  TYR127      0.0574
    114  CG       -18.4760    3.5220    3.0100 C.ar  127  TYR127     -0.0198
    115  CD1      -17.1490    3.1830    3.2340 C.ar  127  TYR127     -0.0009
    116  CD2      -18.7300    4.7180    2.3570 C.ar  127  TYR127     -0.0009
    117  CE1      -16.1130    4.0220    2.8570 C.ar  127  TYR127      0.0417
    118  CE2      -17.7090    5.5650    1.9680 C.ar  127  TYR127      0.0417
    119  CZ       -16.3950    5.2130    2.2150 C.ar  127  TYR127      0.1957
    120  OH       -15.3840    6.0420    1.8470 O.3   127  TYR127     -0.2866
    121  N        -17.9580    1.4100    6.4530 N.am  128  GLY128     -0.1940
    122  CA       -16.8720    0.5530    6.9760 C.3   128  GLY128      0.2014
    123  C        -17.3650   -0.8520    7.3130 C.2   128  GLY128      0.2639
    124  O        -18.5970   -1.1360    7.3390 O.2   128  GLY128     -0.2714
    125  N        -16.4080   -1.7490    7.5760 N.am  129  ASN129     -0.1958
    126  CA       -16.7020   -3.1700    7.7300 C.3   129  ASN129      0.1819
    127  C        -16.8750   -3.5210    9.2060 C.2   129  ASN129      0.2621
    128  O        -16.9420   -4.6750    9.5570 O.2   129  ASN129     -0.2715
    129  CB       -15.6420   -4.0630    7.0710 C.3   129  ASN129      0.1195
    130  CG       -14.2260   -3.8230    7.5650 C.2   129  ASN129      0.2630
    131  OD1      -14.0290   -3.2450    8.6390 O.2   129  ASN129     -0.2716
    132  ND2      -13.2510   -4.2610    6.7810 N.am  129  ASN129     -0.0877
    133  N        -16.9460   -2.5180   10.0720 N.am  130  GLY130     -0.1954
    134  CA       -17.0090   -2.7480   11.5000 C.3   130  GLY130      0.1869
    135  C        -18.2890   -3.4470   11.9170 C.2   130  GLY130      0.2309
    136  O        -18.2850   -4.1550   12.9340 O.2   130  GLY130     -0.2863
    137  N        -17.5440   -7.1680   10.9520 N.3   133  MET133     -0.1245
    138  CA       -16.4060   -7.8400   11.5530 C.3   133  MET133      0.1570
    139  C        -16.8540   -8.5270   12.8540 C.2   133  MET133      0.2261
    140  O        -16.2040   -9.4510   13.3070 O.2   133  MET133     -0.2867
    141  CB       -15.2650   -6.8550   11.8320 C.3   133  MET133      0.0387
    142  CG       -15.4820   -5.9770   13.0600 C.3   133  MET133      0.0595
    143  SD       -14.2260   -4.6810   13.2340 S.3   133  MET133     -0.1393
    144  CE       -14.8560   -3.8390   14.6760 C.3   133  MET133      0.0692
    145  N        -23.6490    1.3570   14.5060 N.3   159  THR159     -0.1203
    146  CA       -22.4370    2.0950   14.1140 C.3   159  THR159      0.1994
    147  C        -22.4570    2.4360   12.6210 C.2   159  THR159      0.2617
    148  O        -21.9080    3.4740   12.2400 O.2   159  THR159     -0.2717
    149  CB       -21.1690    1.3350   14.5250 C.3   159  THR159      0.1784
    150  OG1      -21.1670    0.0240   13.9580 O.3   159  THR159     -0.2211
    151  CG2      -21.0390    1.2260   16.0250 C.3   159  THR159      0.0376
    152  N        -23.1230    1.6160   11.8010 N.am  160  HIS160     -0.1975
    153  CA       -23.0250    1.6850   10.3540 C.3   160  HIS160      0.1656
    154  C        -24.4000    1.9210    9.7220 C.2   160  HIS160      0.2291
    155  O        -25.1390    0.9730    9.4630 O.2   160  HIS160     -0.2864
    156  CB       -22.3350    0.4230    9.8240 C.3   160  HIS160      0.0771
    157  CG       -20.8900    0.3790   10.2070 C.ar  160  HIS160      0.0820
    158  ND1      -20.4850    0.2950   11.5260 N.ar  160  HIS160     -0.2267
    159  CD2      -19.7700    0.5260    9.4700 C.ar  160  HIS160      0.1154
    160  CE1      -19.1710    0.3380   11.5780 C.ar  160  HIS160      0.1986
    161  NE2      -18.6970    0.4650   10.3200 N.ar  160  HIS160     -0.2212
    162  N        -11.0170   -1.3250    4.1440 N.3   234  ILE234     -0.1245
    163  CA       -11.8100   -1.1430    5.3760 C.3   234  ILE234      0.1561
    164  C        -13.2940   -1.0070    5.0180 C.2   234  ILE234      0.2260
    165  O        -14.1560   -1.3040    5.8380 O.2   234  ILE234     -0.2867
    166  CB       -11.2780    0.0500    6.1970 C.3   234  ILE234      0.0252
    167  CG1      -11.3780    1.3750    5.4290 C.3   234  ILE234      0.0019
    168  CG2       -9.8450   -0.2390    6.6690 C.3   234  ILE234      0.0019
    169  CD1      -10.8190    2.5810    6.1560 C.3   234  ILE234      0.0001
    170  N         -6.7100   -4.7850    5.0340 N.3   277  ASP277     -0.1239
    171  CA        -7.3630   -4.9250    6.3220 C.3   277  ASP277      0.1674
    172  C         -7.3570   -6.4080    6.7040 C.2   277  ASP277      0.2266
    173  O         -8.3960   -7.1010    6.7630 O.2   277  ASP277     -0.2867
    174  CB        -8.7770   -4.3270    6.2860 C.3   277  ASP277      0.1410
    175  CG        -9.4160   -4.1390    7.6500 C.2   277  ASP277      0.3668
    176  OD1       -8.7810   -4.4610    8.6660 O.co2 277  ASP277     -0.2456
    177  OD2      -10.5540   -3.6770    7.6810 O.co2 277  ASP277     -0.2456
    178  N         -6.7730   -8.0410    9.4540 N.3   279  ASP279     -0.1225
    179  CA        -7.4100   -8.5990   10.6620 C.3   279  ASP279      0.1805
    180  C         -8.8970   -8.8690   10.3920 C.2   279  ASP279      0.2598
    181  O         -9.4040   -9.8690   10.8890 O.2   279  ASP279     -0.2718
    182  CB        -7.1960   -7.8330   11.9800 C.3   279  ASP279      0.1424
    183  CG        -6.8080   -6.3600   11.9620 C.2   279  ASP279      0.3668
    184  OD1       -6.4530   -5.8430   10.9010 O.co2 279  ASP279     -0.2456
    185  OD2       -6.8240   -5.7210   13.0400 O.co2 279  ASP279     -0.2456
    186  N         -9.5760   -8.0050    9.6240 N.am  280  THR280     -0.1953
    187  CA       -11.0080   -8.1040    9.4300 C.3   280  THR280      0.1897
    188  C        -11.3180   -9.1400    8.3440 C.2   280  THR280      0.2313
    189  O        -12.2120   -9.9330    8.4870 O.2   280  THR280     -0.2863
    190  CB       -11.6330   -6.7260    9.1790 C.3   280  THR280      0.1794
    191  OG1      -11.3860   -5.8900   10.3090 O.3   280  THR280     -0.2208
    192  CG2      -13.1260   -6.8040    8.9670 C.3   280  THR280      0.0378
@<TRIPOS>BOND
     1    98    97    1
     2    97    96    1
     3   120   119    1
     4   118   119   ar
     5   118   116   ar
     6   119   117   ar
     7   116   114   ar
     8    96    95    1
     9   117   115   ar
    10    95    94    1
    11   114   115   ar
    12   114   113    1
    13   113   110    1
    14    94    91    1
    15   162   163    1
    16   112   111    2
    17   110   111    1
    18   110   109    1
    19    91    92    1
    20    91    90    1
    21   164   163    1
    22   164   165    2
    23   170   171    1
    24    93    92    2
    25   111   121   am
    26   163   166    1
    27   167   169    1
    28   167   166    1
    29    92    99   am
    30   109   105   am
    31    82    81    2
    32   102   101    2
    33   166   168    1
    34   174   171    1
    35   174   175    1
    36   171   172    1
    37   121   122    1
    38   172   173    2
    39    83    84    1
    40    83    80    1
    41   105   106    2
    42   105   104    1
    43   132   130   am
    44    99   100    1
    45    81    80    1
    46   122   123    1
    47   129   130    1
    48   129   126    1
    49   101   100    1
    50   101   103   am
    51    85    84   ar
    52    85    87   ar
    53   123   124    2
    54   123   125   am
    55    84    86   ar
    56    80    79    1
    57   130   131    2
    58   125   126    1
    59   175   177   ar
    60   175   176   ar
    61   104   103    1
    62   104   107    1
    63   126   127    1
    64    87    89   ar
    65    86    88   ar
    66   188   189    2
    67   188   187    1
    68    73    72    2
    69     3     4    2
    70     3     2    1
    71   108   107    1
    72    89    88   ar
    73    79    72   am
    74   192   190    1
    75     9     7   ar
    76   190   187    1
    77   190   191    1
    78    72    71    1
    79   127   128    2
    80   127   133   am
    81     2     1    1
    82     2     5    1
    83   187   186    1
    84   178   179    1
    85   155   154    2
    86   159   157   ar
    87   159   161   ar
    88   186   180   am
    89   154   153    1
    90   156   157    1
    91   156   153    1
    92     7     8   ar
    93     7     6    1
    94   133   134    1
    95   157   158   ar
    96   161   160   ar
    97   153   152    1
    98   180   179    1
    99   180   181    2
   100     6     5    1
   101    71    74    1
   102    71    70    1
   103   179   182    1
   104    74    75    1
   105   184   183   ar
   106   137   138    1
   107   134   135    1
   108   158   160   ar
   109   138   141    1
   110   138   139    1
   111   152   147   am
   112   141   142    1
   113   135   136    2
   114   183   182    1
   115   183   185   ar
   116    75    76    1
   117    58    55    1
   118   148   147    2
   119    25    23   ar
   120    59    60    1
   121    59    56   am
   122    60    61    1
   123   147   146    1
   124    78    76   am
   125    76    77    2
   126    54    55    1
   127    54    52   am
   128   139   140    2
   129   142   143    1
   130    51    52    1
   131    51    50    1
   132    55    56    1
   133   143   144    1
   134    56    57    2
   135    23    24   ar
   136    23    22    1
   137    52    53    2
   138    61    63   am
   139    61    62    2
   140    63    64    1
   141   150   149    1
   142   146   145    1
   143   146   149    1
   144    50    40   am
   145   149   151    1
   146    17    15   ar
   147    22    19    1
   148    67    64    1
   149    67    69    1
   150    67    68    1
   151    64    65    1
   152    41    40    2
   153    16    15   ar
   154    40    39    1
   155    37    36    2
   156    15    14    1
   157    19    18    1
   158    19    20    1
   159    36    38   am
   160    36    35    1
   161    39    38    1
   162    39    42    1
   163    18    12   am
   164    65    66    2
   165    20    21    2
   166    14    11    1
   167    35    34    1
   168    32    33    1
   169    32    31    1
   170    12    11    1
   171    12    13    2
   172    42    43    1
   173    10    11    1
   174    44    43   ar
   175    44    46   ar
   176    30    31    1
   177    30    27    1
   178    43    45   ar
   179    46    48   ar
   180    28    27    1
   181    28    29    2
   182    27    26    1
   183    45    47   ar
   184    48    47   ar
   185    48    49    1
