@<TRIPOS>MOLECULE
tmp/6hhoB00.pdb
 165 152 0 0 0
SMALL
GASTEIGER

@<TRIPOS>ATOM
      1  N        -21.9310  -49.1740   19.4220 N.3    15  VAL15      -0.1245
      2  CA       -21.8780  -48.3250   18.2160 C.3    15  VAL15       0.1561
      3  C        -23.0000  -48.7160   17.2530 C.2    15  VAL15       0.2260
      4  O        -23.1280  -49.8880   16.9040 O.2    15  VAL15      -0.2867
      5  CB       -20.4840  -48.3430   17.5380 C.3    15  VAL15       0.0252
      6  CG1      -20.5270  -47.7750   16.1260 C.3    15  VAL15       0.0019
      7  CG2      -19.4650  -47.5950   18.3740 C.3    15  VAL15       0.0019
      8  N        -23.2570  -41.8810   13.0870 N.3    27  ILE27      -0.1245
      9  CA       -22.8930  -42.9840   13.9560 C.3    27  ILE27       0.1561
     10  C        -23.0870  -42.5280   15.3970 C.2    27  ILE27       0.2260
     11  O        -22.7120  -41.4070   15.7680 O.2    27  ILE27      -0.2867
     12  CB       -21.5010  -43.5780   13.6310 C.3    27  ILE27       0.0252
     13  CG1      -21.5590  -44.3360   12.2890 C.3    27  ILE27       0.0019
     14  CG2      -20.9740  -44.4820   14.7630 C.3    27  ILE27       0.0019
     15  CD1      -20.2250  -44.7910   11.7170 C.3    27  ILE27       0.0001
     16  N        -22.9150  -43.6850   19.5530 N.3    29  LYS29      -0.1245
     17  CA       -22.4490  -44.5220   20.6410 C.3    29  LYS29       0.1561
     18  C        -23.2360  -44.1030   21.8610 C.2    29  LYS29       0.2260
     19  O        -23.2250  -42.9210   22.2430 O.2    29  LYS29      -0.2867
     20  CB       -20.9320  -44.3660   20.8930 C.3    29  LYS29       0.0271
     21  CG       -20.4160  -45.1040   22.1460 C.3    29  LYS29       0.0035
     22  CD       -18.9590  -45.4910   21.9920 C.3    29  LYS29       0.0206
     23  CE       -18.4960  -46.4660   23.0420 C.3    29  LYS29       0.1093
     24  NZ       -17.0300  -46.7060   22.9430 N.3    29  LYS29      -0.1314
     25  N        -15.0580  -30.1890   22.5800 N.3    51  MET51      -0.1230
     26  CA       -14.5780  -31.1880   21.6410 C.3    51  MET51       0.1702
     27  C        -15.0910  -30.9160   20.2400 C.2    51  MET51       0.2592
     28  O        -14.3860  -31.1770   19.2700 O.2    51  MET51      -0.2718
     29  CB       -14.9180  -32.6040   22.1320 C.3    51  MET51       0.0401
     30  CG       -14.2460  -32.9710   23.4620 C.3    51  MET51       0.0596
     31  SD       -12.4370  -32.8890   23.4910 S.3    51  MET51      -0.1393
     32  CE       -12.0610  -34.5350   23.8560 C.3    51  MET51       0.0692
     33  N        -16.3000  -30.3320   20.1390 N.am   52  ASN52      -0.1974
     34  CA       -16.9170  -29.9400   18.8740 C.3    52  ASN52       0.1688
     35  C        -16.1630  -28.7250   18.3010 C.2    52  ASN52       0.2292
     36  O        -16.3800  -28.4080   17.1530 O.2    52  ASN52      -0.2864
     37  CB       -18.4660  -29.7750   18.9820 C.3    52  ASN52       0.1181
     38  CG       -19.0520  -28.3820   18.9240 C.2    52  ASN52       0.2629
     39  OD1      -19.4240  -27.8790   17.8630 O.2    52  ASN52      -0.2716
     40  ND2      -19.2290  -27.7530   20.0610 N.am   52  ASN52      -0.0877
     41  N        -12.8840  -28.7640   17.7740 N.3    54  LEU54      -0.1245
     42  CA       -11.8040  -29.3800   16.9900 C.3    54  LEU54       0.1561
     43  C        -12.3350  -29.6390   15.5700 C.2    54  LEU54       0.2260
     44  O        -12.9710  -30.6520   15.2830 O.2    54  LEU54      -0.2867
     45  CB       -11.2860  -30.6620   17.6830 C.3    54  LEU54       0.0270
     46  CG       -10.7680  -30.4930   19.1370 C.3    54  LEU54       0.0019
     47  CD1      -10.7040  -31.8190   19.9240 C.3    54  LEU54       0.0001
     48  CD2       -9.4870  -29.6770   19.1700 C.3    54  LEU54       0.0001
     49  N         -9.9190  -34.6510   10.8250 N.3    59  VAL59      -0.1231
     50  CA       -10.3160  -34.8690   12.2210 C.3    59  VAL59       0.1692
     51  C        -11.8490  -35.0450   12.2570 C.2    59  VAL59       0.2591
     52  O        -12.5670  -34.2620   11.6310 O.2    59  VAL59      -0.2718
     53  CB        -9.7810  -33.7570   13.1840 C.3    59  VAL59       0.0266
     54  CG1      -10.4320  -33.8450   14.5680 C.3    59  VAL59       0.0020
     55  CG2       -8.2460  -33.8040   13.2930 C.3    59  VAL59       0.0020
     56  N        -12.3340  -36.1020   12.9480 N.am   60  VAL60      -0.1980
     57  CA       -13.7510  -36.4600   13.0850 C.3    60  VAL60       0.1595
     58  C        -14.5750  -35.3320   13.6510 C.2    60  VAL60       0.2287
     59  O        -14.1900  -34.7290   14.6480 O.2    60  VAL60      -0.2864
     60  CB       -13.9710  -37.7570   13.9120 C.3    60  VAL60       0.0276
     61  CG1      -15.4470  -38.0740   14.0650 C.3    60  VAL60       0.0022
     62  CG2      -13.3010  -38.9270   13.2540 C.3    60  VAL60       0.0022
     63  N        -17.8790  -34.1700   15.6280 N.3    62  LEU62      -0.1245
     64  CA       -18.8570  -34.6050   16.6320 C.3    62  LEU62       0.1561
     65  C        -20.0790  -33.7800   16.2350 C.2    62  LEU62       0.2260
     66  O        -20.0060  -32.5450   16.2320 O.2    62  LEU62      -0.2867
     67  CB       -18.4170  -34.2620   18.0750 C.3    62  LEU62       0.0270
     68  CG       -19.4330  -34.5570   19.1740 C.3    62  LEU62       0.0019
     69  CD1      -19.4490  -36.0010   19.5370 C.3    62  LEU62       0.0001
     70  CD2      -19.1770  -33.7330   20.3910 C.3    62  LEU62       0.0001
     71  N        -23.3210  -40.0480   22.3110 N.3    74  LEU74      -0.1245
     72  CA       -22.4850  -39.1610   21.5010 C.3    74  LEU74       0.1561
     73  C        -22.7880  -39.4520   20.0240 C.2    74  LEU74       0.2260
     74  O        -23.0640  -40.6050   19.6710 O.2    74  LEU74      -0.2867
     75  CB       -20.9750  -39.3150   21.8360 C.3    74  LEU74       0.0270
     76  CG       -20.5000  -38.7120   23.1730 C.3    74  LEU74       0.0019
     77  CD1      -19.1030  -39.1730   23.5400 C.3    74  LEU74       0.0001
     78  CD2      -20.5360  -37.2000   23.1400 C.3    74  LEU74       0.0001
     79  N        -21.3510  -38.8760   16.1490 N.3    76  MET76      -0.1245
     80  CA       -20.2780  -38.4080   15.2720 C.3    76  MET76       0.1570
     81  C        -20.7050  -38.6040   13.8170 C.2    76  MET76       0.2261
     82  O        -21.7030  -39.2880   13.5540 O.2    76  MET76      -0.2867
     83  CB       -18.9590  -39.1410   15.5670 C.3    76  MET76       0.0387
     84  CG       -19.0620  -40.6390   15.4560 C.3    76  MET76       0.0595
     85  SD       -17.4440  -41.3810   15.5250 S.3    76  MET76      -0.1393
     86  CE       -17.0770  -41.4740   13.8250 C.3    76  MET76       0.0692
     87  N         -4.1650  -31.3050   15.4890 N.3   113  LEU113     -0.1245
     88  CA        -4.4890  -31.6380   16.8750 C.3   113  LEU113      0.1561
     89  C         -3.4420  -31.1290   17.8550 C.2   113  LEU113      0.2260
     90  O         -3.8010  -30.6250   18.9210 O.2   113  LEU113     -0.2867
     91  CB        -4.7030  -33.1590   17.0560 C.3   113  LEU113      0.0270
     92  CG        -6.0020  -33.7740   16.4820 C.3   113  LEU113      0.0019
     93  CD1       -5.8910  -35.2900   16.3860 C.3   113  LEU113      0.0001
     94  CD2       -7.2570  -33.3240   17.2770 C.3   113  LEU113      0.0001
     95  N         -3.8960  -30.5830   21.8400 N.3   118  VAL118     -0.1245
     96  CA        -4.5380  -31.8550   22.1330 C.3   118  VAL118      0.1561
     97  C         -3.5340  -32.9920   21.8870 C.2   118  VAL118      0.2260
     98  O         -3.0330  -33.1400   20.7690 O.2   118  VAL118     -0.2867
     99  CB        -5.8600  -32.0490   21.3160 C.3   118  VAL118      0.0252
    100  CG1       -6.4840  -33.4230   21.5630 C.3   118  VAL118      0.0019
    101  CG2       -6.8600  -30.9460   21.6210 C.3   118  VAL118      0.0019
    102  N         -3.4050  -36.8780   21.6170 N.3   120  HIS120     -0.1241
    103  CA        -4.3050  -37.9830   21.3430 C.3   120  HIS120      0.1621
    104  C         -4.3170  -39.0370   22.4710 C.2   120  HIS120      0.2264
    105  O         -5.3900  -39.3500   23.0160 O.2   120  HIS120     -0.2867
    106  CB        -3.9530  -38.6130   19.9990 C.3   120  HIS120      0.0745
    107  CG        -5.0470  -39.4660   19.4860 C.ar  120  HIS120      0.0817
    108  ND1       -5.5000  -40.5580   20.1980 N.ar  120  HIS120     -0.2268
    109  CD2       -5.7860  -39.3280   18.3720 C.ar  120  HIS120      0.1154
    110  CE1       -6.4870  -41.0560   19.4860 C.ar  120  HIS120      0.1986
    111  NE2       -6.6790  -40.3560   18.3700 N.ar  120  HIS120     -0.2212
    112  N         -8.9900  -38.6310   11.8850 N.3   138  ILE138     -0.1231
    113  CA        -8.4900  -39.0960   13.1880 C.3   138  ILE138      0.1692
    114  C         -9.6070  -38.9910   14.2090 C.2   138  ILE138      0.2592
    115  O        -10.2440  -37.9460   14.3300 O.2   138  ILE138     -0.2718
    116  CB        -7.1940  -38.3660   13.6240 C.3   138  ILE138      0.0266
    117  CG1       -6.0870  -38.5950   12.5900 C.3   138  ILE138      0.0019
    118  CG2       -6.7200  -38.8700   14.9870 C.3   138  ILE138      0.0020
    119  CD1       -5.2160  -37.5300   12.4320 C.3   138  ILE138      0.0001
    120  N         -9.8560  -40.0930   14.9190 N.am  139  ALA139     -0.1966
    121  CA       -10.9070  -40.2340   15.9240 C.3   139  ALA139      0.1728
    122  C        -10.3130  -40.5670   17.2830 C.2   139  ALA139      0.2616
    123  O         -9.1440  -40.9000   17.3490 O.2   139  ALA139     -0.2715
    124  CB       -11.8280  -41.3630   15.5010 C.3   139  ALA139      0.0334
    125  N        -11.1130  -40.4850   18.3660 N.am  140  ASP140     -0.1957
    126  CA       -10.7510  -40.8910   19.7370 C.3   140  ASP140      0.1840
    127  C        -11.9790  -41.6540   20.2470 C.2   140  ASP140      0.2621
    128  O        -12.7570  -41.1540   21.0480 O.2   140  ASP140     -0.2715
    129  CB       -10.3370  -39.6830   20.6190 C.3   140  ASP140      0.1450
    130  CG       -10.1740  -39.9590   22.1080 C.2   140  ASP140      0.3671
    131  OD1      -11.1860  -39.9150   22.8180 O.co2 140  ASP140     -0.2456
    132  OD2       -9.0050  -40.0320   22.5840 O.co2 140  ASP140     -0.2456
    133  N        -12.1920  -42.8470   19.6990 N.am  141  LEU141     -0.1977
    134  CA       -13.3670  -43.6700   19.9650 C.3   141  LEU141      0.1596
    135  C        -13.4140  -44.2360   21.3790 C.2   141  LEU141      0.2287
    136  O        -14.5130  -44.4820   21.9060 O.2   141  LEU141     -0.2864
    137  CB       -13.5000  -44.7760   18.9040 C.3   141  LEU141      0.0297
    138  CG       -13.5680  -44.3200   17.4410 C.3   141  LEU141      0.0022
    139  CD1      -13.9630  -45.4520   16.5680 C.3   141  LEU141      0.0001
    140  CD2      -14.5500  -43.1780   17.2410 C.3   141  LEU141      0.0001
    141  N        -12.5780  -42.5670   23.9430 N.3   143  LEU143     -0.1245
    142  CA       -12.8770  -41.3950   24.7460 C.3   143  LEU143      0.1561
    143  C        -11.7460  -41.0260   25.7120 C.2   143  LEU143      0.2260
    144  O        -12.0330  -40.3750   26.7020 O.2   143  LEU143     -0.2867
    145  CB       -14.2320  -41.5240   25.4810 C.3   143  LEU143      0.0270
    146  CG       -15.4740  -42.0110   24.7340 C.3   143  LEU143      0.0019
    147  CD1      -16.6780  -41.9290   25.6120 C.3   143  LEU143      0.0001
    148  CD2      -15.7720  -41.1750   23.5490 C.3   143  LEU143      0.0001
    149  N         -9.4030  -38.7280   25.6990 N.3   145  SER145     -0.1202
    150  CA        -9.3720  -37.2730   25.8410 C.3   145  SER145      0.2020
    151  C        -10.6610  -36.6430   26.4460 C.2   145  SER145      0.2618
    152  O        -10.6670  -35.4340   26.6960 O.2   145  SER145     -0.2717
    153  CB        -9.0350  -36.6210   24.4960 C.3   145  SER145      0.2103
    154  OG        -7.7280  -36.9010   24.0240 O.3   145  SER145     -0.2182
    155  N        -11.7320  -37.4430   26.6790 N.am  146  PHE146     -0.1975
    156  CA       -13.0200  -37.0020   27.2600 C.3   146  PHE146      0.1639
    157  C        -13.0810  -37.4120   28.7410 C.2   146  PHE146      0.2290
    158  O        -13.4610  -38.5380   29.0570 O.2   146  PHE146     -0.2864
    159  CB       -14.2120  -37.6440   26.5250 C.3   146  PHE146      0.0560
    160  CG       -14.4950  -37.2260   25.0990 C.ar  146  PHE146     -0.0200
    161  CD1      -13.6960  -37.6780   24.0490 C.ar  146  PHE146     -0.0042
    162  CD2      -15.6420  -36.5010   24.7850 C.ar  146  PHE146     -0.0042
    163  CE1      -13.9900  -37.3380   22.7240 C.ar  146  PHE146     -0.0003
    164  CE2      -15.9430  -36.1720   23.4560 C.ar  146  PHE146     -0.0003
    165  CZ       -15.1080  -36.5770   22.4350 C.ar  146  PHE146     -0.0000
@<TRIPOS>BOND
     1    49    50    1
     2    52    51    2
     3    15    13    1
     4   112   113    1
     5    50    51    1
     6    50    53    1
     7    51    56   am
     8    13    12    1
     9   119   117    1
    10   117   116    1
    11    56    57    1
    12    57    58    1
    13    57    60    1
    14     8     9    1
    15    53    55    1
    16    53    54    1
    17   113   116    1
    18   113   114    1
    19    62    60    1
    20    82    81    2
    21   116   118    1
    22    12     9    1
    23    12    14    1
    24    58    59    2
    25    81    80    1
    26    86    85    1
    27    60    61    1
    28     9    10    1
    29   114   115    2
    30   114   120   am
    31   120   121    1
    32    80    83    1
    33    80    79    1
    34    44    43    2
    35    10    11    2
    36    84    85    1
    37    84    83    1
    38    87    88    1
    39   124   121    1
    40    43    42    1
    41    63    64    1
    42   121   122    1
    43     6     5    1
    44    66    65    2
    45    65    64    1
    46    93    92    1
    47    92    91    1
    48    92    94    1
    49   139   138    1
    50    64    67    1
    51    88    91    1
    52    88    89    1
    53     4     3    2
    54    42    45    1
    55    42    41    1
    56    36    35    2
    57   140   138    1
    58     3     2    1
    59   122   123    2
    60   122   125   am
    61   138   137    1
    62     5     2    1
    63     5     7    1
    64    45    46    1
    65    89    90    2
    66    39    38    2
    67    67    68    1
    68     2     1    1
    69    35    34    1
    70   125   126    1
    71   111   109   ar
    72   111   110   ar
    73   109   107   ar
    74    34    37    1
    75    34    33    1
    76   137   134    1
    77    38    37    1
    78    38    40   am
    79    46    48    1
    80    46    47    1
    81    68    69    1
    82    68    70    1
    83    28    27    2
    84   107   106    1
    85   107   108   ar
    86   110   108   ar
    87    16    17    1
    88    74    73    2
    89   133   134    1
    90   133   127   am
    91   126   127    1
    92   126   129    1
    93   134   135    1
    94   106   103    1
    95    73    72    1
    96    33    27   am
    97    27    26    1
    98   127   128    2
    99   129   130    1
   100    17    20    1
   101    17    18    1
   102    98    97    2
   103    20    21    1
   104    99   100    1
   105    99   101    1
   106    99    96    1
   107   103   102    1
   108   103   104    1
   109   135   136    2
   110    72    75    1
   111    72    71    1
   112    26    29    1
   113    26    25    1
   114    75    76    1
   115    95    96    1
   116    18    19    2
   117    97    96    1
   118    22    21    1
   119    22    23    1
   120   130   132   ar
   121   130   131   ar
   122    29    30    1
   123   165   163   ar
   124   165   164   ar
   125   104   105    2
   126   163   161   ar
   127    24    23    1
   128    78    76    1
   129    76    77    1
   130   164   162   ar
   131    30    31    1
   132    31    32    1
   133   148   146    1
   134   141   142    1
   135   154   153    1
   136   161   160   ar
   137   153   150    1
   138   146   145    1
   139   146   147    1
   140   142   145    1
   141   142   143    1
   142   162   160   ar
   143   160   159    1
   144   149   150    1
   145   143   144    2
   146   150   151    1
   147   151   155   am
   148   151   152    2
   149   159   156    1
   150   155   156    1
   151   156   157    1
   152   157   158    2
