@<TRIPOS>MOLECULE
tmp/6hi3A00.pdb
 89 84 0 0 0
SMALL
GASTEIGER

@<TRIPOS>ATOM
      1  N         25.5820  -44.7790  137.2920 N.3    30  VAL30      -0.1231
      2  CA        25.5560  -45.1770  138.7000 C.3    30  VAL30       0.1692
      3  C         24.1490  -45.1490  139.2660 C.2    30  VAL30       0.2592
      4  O         23.9250  -45.6430  140.3810 O.2    30  VAL30      -0.2718
      5  CB        26.4760  -44.2670  139.5510 C.3    30  VAL30       0.0266
      6  CG1       27.8670  -44.2150  138.9520 C.3    30  VAL30       0.0020
      7  CG2       25.9220  -42.8630  139.6770 C.3    30  VAL30       0.0020
      8  N         23.1940  -44.5710  138.5460 N.am   31  PHE31      -0.1976
      9  CA        21.8070  -44.5140  138.9790 C.3    31  PHE31       0.1639
     10  C         20.9280  -45.5320  138.2640 C.2    31  PHE31       0.2290
     11  O         19.7220  -45.5650  138.5100 O.2    31  PHE31      -0.2864
     12  CB        21.2690  -43.0980  138.7600 C.3    31  PHE31       0.0560
     13  CG        21.9870  -42.0740  139.5620 C.ar   31  PHE31      -0.0200
     14  CD1       22.3680  -42.3490  140.8610 C.ar   31  PHE31      -0.0042
     15  CD2       22.3360  -40.8510  139.0060 C.ar   31  PHE31      -0.0042
     16  CE1       23.0570  -41.4080  141.5950 C.ar   31  PHE31      -0.0003
     17  CE2       23.0360  -39.9120  139.7360 C.ar   31  PHE31      -0.0003
     18  CZ        23.3910  -40.1890  141.0260 C.ar   31  PHE31      -0.0000
     19  N         22.1230  -50.5460  144.0000 N.3    35  VAL35      -0.1245
     20  CA        23.5080  -50.5650  144.4530 C.3    35  VAL35       0.1561
     21  C         23.8850  -51.9890  144.8430 C.2    35  VAL35       0.2260
     22  O         23.1160  -52.6860  145.5180 O.2    35  VAL35      -0.2867
     23  CB        23.6820  -49.5850  145.6190 C.3    35  VAL35       0.0252
     24  CG1       22.5840  -49.8230  146.6000 C.3    35  VAL35       0.0019
     25  CG2       25.0280  -49.7670  146.2790 C.3    35  VAL35       0.0019
     26  N         29.0260  -51.9410  147.8400 N.3    40  VAL40      -0.1245
     27  CA        28.8200  -50.8460  148.7820 C.3    40  VAL40       0.1561
     28  C         28.0430  -51.4250  149.9590 C.2    40  VAL40       0.2260
     29  O         26.8020  -51.4360  149.9450 O.2    40  VAL40      -0.2867
     30  CB        28.1090  -49.6610  148.1040 C.3    40  VAL40       0.0252
     31  CG1       27.6360  -48.6440  149.1160 C.3    40  VAL40       0.0019
     32  CG2       29.0360  -48.9990  147.0890 C.3    40  VAL40       0.0019
     33  N         25.3610  -49.1030  152.3810 N.3    43  TYR43      -0.1241
     34  CA        24.3160  -48.2600  151.8000 C.3    43  TYR43       0.1605
     35  C         22.9860  -48.4710  152.5130 C.2    43  TYR43       0.2264
     36  O         22.3370  -47.5080  152.9420 O.2    43  TYR43      -0.2867
     37  CB        24.1370  -48.5390  150.3060 C.3    43  TYR43       0.0534
     38  CG        23.2810  -47.4810  149.6400 C.ar   43  TYR43      -0.0201
     39  CD1       22.1220  -47.8110  148.9470 C.ar   43  TYR43      -0.0009
     40  CD2       23.6430  -46.1510  149.6980 C.ar   43  TYR43      -0.0009
     41  CE1       21.3510  -46.8480  148.3350 C.ar   43  TYR43       0.0417
     42  CE2       22.8790  -45.1800  149.1050 C.ar   43  TYR43       0.0417
     43  CZ        21.7340  -45.5290  148.4250 C.ar   43  TYR43       0.1957
     44  OH        20.9860  -44.5420  147.8360 O.3    43  TYR43      -0.2866
     45  N         21.1290  -39.7630  146.6480 N.3    82  ALA82      -0.1245
     46  CA        22.5450  -39.5940  146.3520 C.3    82  ALA82       0.1562
     47  C         23.1540  -38.4800  147.1970 C.2    82  ALA82       0.2260
     48  O         24.2450  -38.6370  147.7520 O.2    82  ALA82      -0.2867
     49  CB        22.7340  -39.2950  144.8670 C.3    82  ALA82       0.0290
     50  N         23.5560  -39.8810  150.7690 N.3    85  TYR85      -0.1227
     51  CA        24.5940  -40.8870  150.9310 C.3    85  TYR85       0.1736
     52  C         25.9780  -40.3670  150.5830 C.2    85  TYR85       0.2595
     53  O         26.9720  -41.0510  150.8560 O.2    85  TYR85      -0.2718
     54  CB        24.3100  -42.1120  150.0640 C.3    85  TYR85       0.0548
     55  CG        25.2890  -43.2420  150.3000 C.ar   85  TYR85      -0.0200
     56  CD1       25.2430  -43.9710  151.4750 C.ar   85  TYR85      -0.0009
     57  CD2       26.2650  -43.5690  149.3600 C.ar   85  TYR85      -0.0009
     58  CE1       26.1210  -45.0070  151.7040 C.ar   85  TYR85       0.0417
     59  CE2       27.1530  -44.6020  149.5860 C.ar   85  TYR85       0.0417
     60  CZ        27.0780  -45.3140  150.7640 C.ar   85  TYR85       0.1957
     61  OH        27.9530  -46.3380  151.0240 O.3    85  TYR85      -0.2866
     62  N         26.0730  -39.1880  149.9890 N.am   86  ASN86      -0.1974
     63  CA        27.3530  -38.5910  149.6180 C.3    86  ASN86       0.1688
     64  C         27.3720  -37.1440  150.0890 C.2    86  ASN86       0.2292
     65  O         27.3410  -36.2140  149.2700 O.2    86  ASN86      -0.2864
     66  CB        27.5600  -38.7100  148.1120 C.3    86  ASN86       0.1181
     67  CG        27.8860  -40.1290  147.6970 C.2    86  ASN86       0.2629
     68  OD1       28.8390  -40.7300  148.1960 O.2    86  ASN86      -0.2716
     69  ND2       27.0520  -40.6990  146.8310 N.am   86  ASN86      -0.0877
     70  N         34.9470  -37.5970  145.5500 N.3    92  GLY92      -0.1210
     71  CA        34.0540  -38.6990  145.2270 C.3    92  GLY92       0.1956
     72  C         32.6040  -38.3700  145.5400 C.2    92  GLY92       0.2611
     73  O         31.6970  -38.6930  144.7670 O.2    92  GLY92      -0.2717
     74  N         32.3650  -37.7150  146.6700 N.am   93  ASP93      -0.1973
     75  CA        31.0120  -37.3050  147.0000 C.3    93  ASP93       0.1709
     76  C         30.5300  -36.1190  146.1740 C.2    93  ASP93       0.2293
     77  O         29.3170  -35.9460  146.0170 O.2    93  ASP93      -0.2864
     78  CB        30.9020  -36.9930  148.4980 C.3    93  ASP93       0.1436
     79  CG        31.1010  -38.2350  149.3640 C.2    93  ASP93       0.3671
     80  OD1       31.7530  -39.1970  148.8850 O.co2  93  ASP93      -0.2456
     81  OD2       30.5380  -38.2800  150.4860 O.co2  93  ASP93      -0.2456
     82  N         29.4090  -37.5240  142.5620 N.3    96  ILE96      -0.1245
     83  CA        28.1150  -38.2000  142.6170 C.3    96  ILE96       0.1561
     84  C         26.9710  -37.2020  142.7860 C.2    96  ILE96       0.2260
     85  O         25.9250  -37.3360  142.1410 O.2    96  ILE96      -0.2867
     86  CB        28.0890  -39.2510  143.7350 C.3    96  ILE96       0.0252
     87  CG1       29.1540  -40.3240  143.4860 C.3    96  ILE96       0.0019
     88  CG2       26.6660  -39.8500  143.8270 C.3    96  ILE96       0.0019
     89  CD1       29.0280  -41.0460  142.1630 C.3    96  ILE96       0.0001
@<TRIPOS>BOND
     1     1     2    1
     2    10    11    2
     3    10     9    1
     4     8     9    1
     5     8     3   am
     6     2     3    1
     7     2     5    1
     8    12     9    1
     9    12    13    1
    10     6     5    1
    11    15    13   ar
    12    15    17   ar
    13     3     4    2
    14     5     7    1
    15    13    14   ar
    16    17    18   ar
    17    14    16   ar
    18    18    16   ar
    19    85    84    2
    20    89    87    1
    21    82    83    1
    22    83    84    1
    23    83    86    1
    24    87    86    1
    25    86    88    1
    26    19    20    1
    27    20    21    1
    28    20    23    1
    29    73    72    2
    30    21    22    2
    31    49    46    1
    32    71    72    1
    33    71    70    1
    34    72    74   am
    35    23    25    1
    36    23    24    1
    37    77    76    2
    38    76    75    1
    39    46    45    1
    40    46    47    1
    41    74    75    1
    42    69    67   am
    43    75    78    1
    44    32    30    1
    45    47    48    2
    46    67    66    1
    47    67    68    2
    48    44    43    1
    49    26    27    1
    50    30    27    1
    51    30    31    1
    52    66    63    1
    53    41    43   ar
    54    41    39   ar
    55    43    42   ar
    56    78    79    1
    57    27    28    1
    58    80    79   ar
    59    39    38   ar
    60    42    40   ar
    61    65    64    2
    62    57    59   ar
    63    57    55   ar
    64    79    81   ar
    65    59    60   ar
    66    63    62    1
    67    63    64    1
    68    38    40   ar
    69    38    37    1
    70    29    28    2
    71    62    52   am
    72    54    55    1
    73    54    51    1
    74    55    56   ar
    75    37    34    1
    76    52    53    2
    77    52    51    1
    78    60    61    1
    79    60    58   ar
    80    50    51    1
    81    56    58   ar
    82    34    33    1
    83    34    35    1
    84    35    36    2
