@<TRIPOS>MOLECULE
tmp/6hi4A00.pdb
 89 84 0 0 0
SMALL
GASTEIGER

@<TRIPOS>ATOM
      1  N        -25.3320   44.8600    2.8930 N.3    30  VAL30      -0.1231
      2  CA       -25.4090   45.1820    4.3050 C.3    30  VAL30       0.1692
      3  C        -23.9870   45.2440    4.8640 C.2    30  VAL30       0.2592
      4  O        -23.7530   45.8570    5.9120 O.2    30  VAL30      -0.2718
      5  CB       -26.3250   44.1370    5.0030 C.3    30  VAL30       0.0266
      6  CG1      -25.6380   42.7880    5.3110 C.3    30  VAL30       0.0020
      7  CG2      -27.4050   44.7180    5.9880 C.3    30  VAL30       0.0020
      8  N        -23.0100   44.7240    4.1100 N.am   31  PHE31      -0.1976
      9  CA       -21.5990   44.7210    4.4860 C.3    31  PHE31       0.1639
     10  C        -20.7790   45.7660    3.7340 C.2    31  PHE31       0.2290
     11  O        -19.5500   45.7810    3.8680 O.2    31  PHE31      -0.2864
     12  CB       -21.0000   43.3290    4.2450 C.3    31  PHE31       0.0560
     13  CG       -21.7880   42.2130    4.8770 C.ar   31  PHE31      -0.0200
     14  CD1      -22.0490   42.2230    6.2360 C.ar   31  PHE31      -0.0042
     15  CD2      -22.2810   41.1690    4.1070 C.ar   31  PHE31      -0.0042
     16  CE1      -22.7870   41.2050    6.8270 C.ar   31  PHE31      -0.0003
     17  CE2      -23.0230   40.1450    4.6880 C.ar   31  PHE31      -0.0003
     18  CZ       -23.2760   40.1590    6.0480 C.ar   31  PHE31      -0.0000
     19  N        -21.6060   50.3050    9.9650 N.3    35  VAL35      -0.1245
     20  CA       -22.9240   50.3030   10.5960 C.3    35  VAL35       0.1561
     21  C        -23.1960   51.6750   11.2010 C.2    35  VAL35       0.2260
     22  O        -22.3560   52.2280   11.9230 O.2    35  VAL35      -0.2867
     23  CB       -23.0050   49.1910   11.6560 C.3    35  VAL35       0.0252
     24  CG1      -24.2670   49.3240   12.4940 C.3    35  VAL35       0.0019
     25  CG2      -22.9440   47.8200   11.0000 C.3    35  VAL35       0.0019
     26  N        -28.5480   51.8630   14.2810 N.3    40  VAL40      -0.1245
     27  CA       -28.2980   50.6380   15.0430 C.3    40  VAL40       0.1561
     28  C        -27.4340   50.9790   16.2540 C.2    40  VAL40       0.2260
     29  O        -26.2200   50.7270   16.2350 O.2    40  VAL40      -0.2867
     30  CB       -27.6280   49.5570   14.1700 C.3    40  VAL40       0.0252
     31  CG1      -27.4580   48.2650   14.9410 C.3    40  VAL40       0.0019
     32  CG2      -28.4100   49.2850   12.8890 C.3    40  VAL40       0.0019
     33  N        -24.8790   48.3040   18.1990 N.3    43  TYR43      -0.1241
     34  CA       -23.8100   47.6230   17.4700 C.3    43  TYR43       0.1605
     35  C        -22.4400   48.0680   17.9600 C.2    43  TYR43       0.2264
     36  O        -21.5850   47.2390   18.2930 O.2    43  TYR43      -0.2867
     37  CB       -23.9500   47.8910   15.9730 C.3    43  TYR43       0.0534
     38  CG       -23.0230   47.0620   15.1100 C.ar   43  TYR43      -0.0201
     39  CD1      -23.3970   45.7920   14.6850 C.ar   43  TYR43      -0.0009
     40  CD2      -21.7780   47.5480   14.7200 C.ar   43  TYR43      -0.0009
     41  CE1      -22.5660   45.0310   13.8940 C.ar   43  TYR43       0.0417
     42  CE2      -20.9330   46.7920   13.9320 C.ar   43  TYR43       0.0417
     43  CZ       -21.3350   45.5350   13.5210 C.ar   43  TYR43       0.1957
     44  OH       -20.5110   44.7660   12.7400 O.3    43  TYR43      -0.2866
     45  N        -20.7020   39.6440   11.9660 N.3    82  ALA82      -0.1245
     46  CA       -22.1200   39.4560   11.6600 C.3    82  ALA82       0.1562
     47  C        -22.7090   38.2820   12.4320 C.2    82  ALA82       0.2260
     48  O        -23.8550   38.3480   12.8910 O.2    82  ALA82      -0.2867
     49  CB       -22.3040   39.2590   10.1510 C.3    82  ALA82       0.0290
     50  N        -23.1610   39.4340   16.1240 N.3    85  TYR85      -0.1227
     51  CA       -24.2280   40.4040   16.3040 C.3    85  TYR85       0.1736
     52  C        -25.6120   39.8330   16.0080 C.2    85  TYR85       0.2595
     53  O        -26.6060   40.3940   16.4770 O.2    85  TYR85      -0.2718
     54  CB       -23.9800   41.6350   15.4330 C.3    85  TYR85       0.0548
     55  CG       -24.9500   42.7470   15.7300 C.ar   85  TYR85      -0.0200
     56  CD1      -25.9020   43.1370   14.7990 C.ar   85  TYR85      -0.0009
     57  CD2      -24.9480   43.3700   16.9700 C.ar   85  TYR85      -0.0009
     58  CE1      -26.8020   44.1450   15.0840 C.ar   85  TYR85       0.0417
     59  CE2      -25.8440   44.3720   17.2660 C.ar   85  TYR85       0.0417
     60  CZ       -26.7680   44.7570   16.3220 C.ar   85  TYR85       0.1957
     61  OH       -27.6630   45.7550   16.6250 O.3    85  TYR85      -0.2866
     62  N        -25.7090   38.7230   15.2770 N.am   86  ASN86      -0.1974
     63  CA       -26.9960   38.1520   14.8690 C.3    86  ASN86       0.1688
     64  C        -27.1220   36.6990   15.3220 C.2    86  ASN86       0.2292
     65  O        -27.2620   35.7940   14.4880 O.2    86  ASN86      -0.2864
     66  CB       -27.1520   38.2400   13.3510 C.3    86  ASN86       0.1181
     67  CG       -27.2510   39.6660   12.8440 C.2    86  ASN86       0.2629
     68  OD1      -28.3340   40.2420   12.8030 O.2    86  ASN86      -0.2716
     69  ND2      -26.1190   40.2360   12.4230 N.am   86  ASN86      -0.0877
     70  N        -34.6850   37.8200   10.7490 N.3    92  GLY92      -0.1210
     71  CA       -33.7610   38.8980   10.4270 C.3    92  GLY92       0.1956
     72  C        -32.3230   38.5410   10.7640 C.2    92  GLY92       0.2611
     73  O        -31.3990   38.8490   10.0030 O.2    92  GLY92      -0.2717
     74  N        -32.1190   37.8730   11.9020 N.am   93  ASP93      -0.1973
     75  CA       -30.7930   37.3830   12.2700 C.3    93  ASP93       0.1709
     76  C        -30.3300   36.2860   11.3220 C.2    93  ASP93       0.2293
     77  O        -29.1750   36.2790   10.8790 O.2    93  ASP93      -0.2864
     78  CB       -30.7980   36.8540   13.7090 C.3    93  ASP93       0.1436
     79  CG       -30.8650   37.9610   14.7450 C.2    93  ASP93       0.3671
     80  OD1      -31.6490   38.9100   14.5490 O.co2  93  ASP93      -0.2456
     81  OD2      -30.1230   37.8860   15.7540 O.co2  93  ASP93      -0.2456
     82  N        -29.1250   37.6650    7.9100 N.3    96  ILE96      -0.1245
     83  CA       -27.8020   38.2920    7.9050 C.3    96  ILE96       0.1561
     84  C        -26.7120   37.2390    8.0480 C.2    96  ILE96       0.2260
     85  O        -25.6670   37.3190    7.3790 O.2    96  ILE96      -0.2867
     86  CB       -27.7000   39.3730    8.9990 C.3    96  ILE96       0.0252
     87  CG1      -28.7080   40.4840    8.7360 C.3    96  ILE96       0.0019
     88  CG2      -26.2820   39.9750    9.0280 C.3    96  ILE96       0.0019
     89  CD1      -28.6520   41.0150    7.3230 C.3    96  ILE96       0.0001
@<TRIPOS>BOND
     1     1     2    1
     2    10    11    2
     3    10     9    1
     4    15    17   ar
     5    15    13   ar
     6     8     9    1
     7     8     3   am
     8    12     9    1
     9    12    13    1
    10     2     3    1
    11     2     5    1
    12    17    18   ar
    13     3     4    2
    14    13    14   ar
    15     5     6    1
    16     5     7    1
    17    18    16   ar
    18    14    16   ar
    19    89    87    1
    20    85    84    2
    21    83    82    1
    22    83    84    1
    23    83    86    1
    24    87    86    1
    25    86    88    1
    26    19    20    1
    27    73    72    2
    28    49    46    1
    29    71    70    1
    30    71    72    1
    31    20    21    1
    32    20    23    1
    33    72    74   am
    34    77    76    2
    35    25    23    1
    36    21    22    2
    37    76    75    1
    38    23    24    1
    39    46    45    1
    40    46    47    1
    41    74    75    1
    42    75    78    1
    43    69    67   am
    44    47    48    2
    45    44    43    1
    46    68    67    2
    47    67    66    1
    48    32    30    1
    49    66    63    1
    50    43    41   ar
    51    43    42   ar
    52    78    79    1
    53    41    39   ar
    54    42    40   ar
    55    30    31    1
    56    30    27    1
    57    26    27    1
    58    65    64    2
    59    80    79   ar
    60    39    38   ar
    61    40    38   ar
    62    79    81   ar
    63    56    58   ar
    64    56    55   ar
    65    63    62    1
    66    63    64    1
    67    27    28    1
    68    58    60   ar
    69    38    37    1
    70    62    52   am
    71    54    55    1
    72    54    51    1
    73    55    57   ar
    74    37    34    1
    75    52    51    1
    76    52    53    2
    77    50    51    1
    78    29    28    2
    79    60    61    1
    80    60    59   ar
    81    57    59   ar
    82    34    35    1
    83    34    33    1
    84    35    36    2
