@<TRIPOS>MOLECULE
tmp/6hi5A00.pdb
 100 94 0 0 0
SMALL
GASTEIGER

@<TRIPOS>ATOM
      1  N         -8.5850   44.2920   -4.8980 N.3    16  ARG16      -0.1245
      2  CA        -9.6200   45.2570   -5.2550 C.3    16  ARG16       0.1563
      3  C        -10.6760   44.6190   -6.1400 C.2    16  ARG16       0.2260
      4  O        -11.8760   44.8930   -5.9890 O.2    16  ARG16      -0.2867
      5  CB        -9.0230   46.4610   -5.9860 C.3    16  ARG16       0.0307
      6  CG        -8.4190   47.4830   -5.1060 C.3    16  ARG16       0.0489
      7  CD        -8.0380   48.7260   -5.9000 C.3    16  ARG16       0.2205
      8  NE        -6.9780   49.3670   -5.1500 N.pl3  16  ARG16      -0.0865
      9  CZ        -5.6880   49.2740   -5.4360 C.cat  16  ARG16       0.5346
     10  NH1       -5.2660   48.6030   -6.5110 N.pl3  16  ARG16       0.1354
     11  NH2       -4.8150   49.8610   -4.6330 N.pl3  16  ARG16       0.1354
     12  N        -14.5300   44.2580   -5.0670 N.3    20  HIS20      -0.1241
     13  CA       -15.5550   44.8550   -5.9200 C.3    20  HIS20       0.1621
     14  C        -16.6350   43.8370   -6.2670 C.2    20  HIS20       0.2264
     15  O        -17.8330   44.1480   -6.2320 O.2    20  HIS20      -0.2867
     16  CB       -14.8980   45.4100   -7.1920 C.3    20  HIS20       0.0745
     17  CG       -15.8550   46.0100   -8.1800 C.ar   20  HIS20       0.0817
     18  ND1      -16.7550   47.0000   -7.8480 N.ar   20  HIS20      -0.2268
     19  CD2      -16.0220   45.7860   -9.5050 C.ar   20  HIS20       0.1154
     20  CE1      -17.4430   47.3500   -8.9200 C.ar   20  HIS20       0.1986
     21  NE2      -17.0180   46.6270   -9.9400 N.ar   20  HIS20      -0.2212
     22  N        -18.8050   43.4050   -3.2960 N.3    23  ALA23      -0.1231
     23  CA       -19.5730   44.5830   -2.9060 C.3    23  ALA23       0.1694
     24  C        -20.7410   44.8620   -3.8450 C.2    23  ALA23       0.2592
     25  O        -21.7220   45.4920   -3.4270 O.2    23  ALA23      -0.2718
     26  CB       -18.6550   45.8000   -2.8420 C.3    23  ALA23       0.0304
     27  N        -20.6620   44.4320   -5.1070 N.am   24  ILE24      -0.1966
     28  CA       -21.7770   44.6760   -6.0200 C.3    24  ILE24       0.1727
     29  C        -22.8510   43.6070   -5.9070 C.2    24  ILE24       0.2616
     30  O        -23.9180   43.7520   -6.5210 O.2    24  ILE24      -0.2715
     31  CB       -21.3260   44.7920   -7.4920 C.3    24  ILE24       0.0290
     32  CG1      -20.7220   43.4760   -7.9850 C.3    24  ILE24       0.0022
     33  CG2      -20.3650   45.9670   -7.6650 C.3    24  ILE24       0.0023
     34  CD1      -20.0660   43.5810   -9.3580 C.3    24  ILE24       0.0001
     35  N        -22.6120   42.5510   -5.1310 N.am   25  ASP25      -0.1957
     36  CA       -23.5800   41.4820   -4.9310 C.3    25  ASP25       0.1840
     37  C        -24.6640   41.9560   -3.9640 C.2    25  ASP25       0.2621
     38  O        -24.3650   42.3760   -2.8390 O.2    25  ASP25      -0.2715
     39  CB       -22.8590   40.2430   -4.4010 C.3    25  ASP25       0.1450
     40  CG       -23.7040   38.9840   -4.4800 C.2    25  ASP25       0.3671
     41  OD1      -24.8920   39.0340   -4.1060 O.co2  25  ASP25      -0.2456
     42  OD2      -23.1660   37.9350   -4.8980 O.co2  25  ASP25      -0.2456
     43  N        -25.9290   41.8940   -4.4050 N.am   26  LYS26      -0.1977
     44  CA       -27.0280   42.4170   -3.5950 C.3    26  LYS26       0.1596
     45  C        -27.1270   41.7310   -2.2390 C.2    26  LYS26       0.2287
     46  O        -27.5470   42.3600   -1.2590 O.2    26  LYS26      -0.2864
     47  CB       -28.3560   42.2690   -4.3470 C.3    26  LYS26       0.0298
     48  CG       -28.5330   43.3830   -5.3670 C.3    26  LYS26       0.0038
     49  CD       -27.8930   44.6720   -4.8610 C.3    26  LYS26       0.0206
     50  CE       -26.7930   45.2610   -5.7440 C.3    26  LYS26       0.1093
     51  NZ       -26.0470   46.3620   -5.0900 N.3    26  LYS26      -0.1314
     52  N        -25.0420   43.6340    0.5720 N.3    29  ARG29      -0.1245
     53  CA       -25.1970   45.0670    0.8040 C.3    29  ARG29       0.1563
     54  C        -25.0170   45.4340    2.2710 C.2    29  ARG29       0.2260
     55  O        -24.4530   46.4880    2.5880 O.2    29  ARG29      -0.2867
     56  CB       -26.5670   45.5320    0.3020 C.3    29  ARG29       0.0307
     57  CG       -26.7800   47.0230    0.4180 C.3    29  ARG29       0.0489
     58  CD       -28.0890   47.4620   -0.2290 C.3    29  ARG29       0.2205
     59  NE       -28.1000   48.9030   -0.4730 N.pl3  29  ARG29      -0.0865
     60  CZ       -28.0130   49.4640   -1.6760 C.cat  29  ARG29       0.5346
     61  NH1      -27.9220   48.7090   -2.7640 N.pl3  29  ARG29       0.1354
     62  NH2      -28.0250   50.7860   -1.7920 N.pl3  29  ARG29       0.1354
     63  N        -21.3930   46.3250    3.1900 N.3    32  THR32      -0.1203
     64  CA       -20.6100   47.2590    2.3790 C.3    32  THR32       0.1994
     65  C        -20.2500   48.5530    3.0930 C.2    32  THR32       0.2617
     66  O        -19.3190   49.2380    2.6570 O.2    32  THR32      -0.2717
     67  CB       -21.3390   47.6240    1.0820 C.3    32  THR32       0.1784
     68  OG1      -22.6200   48.2120    1.3730 O.3    32  THR32      -0.2211
     69  CG2      -21.4950   46.4010    0.1770 C.3    32  THR32       0.0376
     70  N        -20.9530   48.9120    4.1600 N.am   33  LYS33      -0.1979
     71  CA       -20.7290   50.1920    4.8160 C.3    33  LYS33       0.1596
     72  C        -20.5800   49.9850    6.3140 C.2    33  LYS33       0.2287
     73  O        -21.1180   49.0240    6.8630 O.2    33  LYS33      -0.2864
     74  CB       -21.8890   51.1680    4.5500 C.3    33  LYS33       0.0298
     75  CG       -21.9450   51.6510    3.1010 C.3    33  LYS33       0.0038
     76  CD       -23.2500   52.3300    2.8010 C.3    33  LYS33       0.0206
     77  CE       -24.4030   51.3510    2.8690 C.3    33  LYS33       0.1093
     78  NZ       -24.2960   50.2840    1.8490 N.3    33  LYS33      -0.1314
     79  N        -16.8070   46.0730    3.9430 N.3    50  LEU50      -0.1231
     80  CA       -16.0830   46.0020    2.6720 C.3    50  LEU50       0.1693
     81  C        -15.5070   47.3520    2.2630 C.2    50  LEU50       0.2592
     82  O        -14.4650   47.3930    1.6010 O.2    50  LEU50      -0.2718
     83  CB       -16.9940   45.4510    1.5730 C.3    50  LEU50       0.0284
     84  CG       -17.4030   43.9850    1.7630 C.3    50  LEU50       0.0019
     85  CD1      -18.4380   43.5690    0.7080 C.3    50  LEU50       0.0001
     86  CD2      -16.2040   43.0330    1.7320 C.3    50  LEU50       0.0001
     87  N        -16.1490   48.4630    2.6420 N.am   51  SER51      -0.1952
     88  CA       -15.5530   49.7720    2.3740 C.3    51  SER51       0.1924
     89  C        -14.2560   49.9570    3.1520 C.2    51  SER51       0.2314
     90  O        -13.2890   50.5180    2.6240 O.2    51  SER51      -0.2863
     91  CB       -16.5460   50.8850    2.7120 C.3    51  SER51       0.2116
     92  OG       -16.7910   50.9270    4.1060 O.3    51  SER51      -0.2180
     93  N        -11.5270   48.0090    1.4150 N.3    54  ILE54      -0.1245
     94  CA       -10.9950   48.7320    0.2580 C.3    54  ILE54       0.1561
     95  C        -10.0180   49.8110    0.7060 C.2    54  ILE54       0.2260
     96  O         -8.9750   50.0280    0.0740 O.2    54  ILE54      -0.2867
     97  CB       -12.1380   49.3290   -0.5840 C.3    54  ILE54       0.0252
     98  CG1      -12.8780   48.2220   -1.3410 C.3    54  ILE54       0.0019
     99  CG2      -11.6000   50.3590   -1.5980 C.3    54  ILE54       0.0019
    100  CD1      -14.2720   48.6050   -1.7470 C.3    54  ILE54       0.0001
@<TRIPOS>BOND
     1    21    19   ar
     2    21    20   ar
     3    19    17   ar
     4    34    32    1
     5    20    18   ar
     6    17    18   ar
     7    17    16    1
     8    32    31    1
     9    33    31    1
    10    31    28    1
    11    16    13    1
    12    30    29    2
    13    10     9    1
    14    14    15    2
    15    14    13    1
    16     3     4    2
    17     3     2    1
    18    28    29    1
    19    28    27    1
    20     5     2    1
    21     5     6    1
    22    13    12    1
    23    29    35   am
    24     7     8    1
    25     7     6    1
    26    50    51    1
    27    50    49    1
    28     9     8    2
    29     9    11    1
    30    48    49    1
    31    48    47    1
    32     2     1    1
    33    35    36    1
    34    27    24   am
    35    36    39    1
    36    36    37    1
    37    42    40   ar
    38    40    39    1
    39    40    41   ar
    40    43    37   am
    41    43    44    1
    42    47    44    1
    43    37    38    2
    44    24    25    2
    45    24    23    1
    46    44    45    1
    47    22    23    1
    48    23    26    1
    49    61    60    1
    50    45    46    2
    51    62    60    1
    52   100    98    1
    53    60    59    2
    54    99    97    1
    55    98    97    1
    56    97    94    1
    57    59    58    1
    58    58    57    1
    59    96    95    2
    60    69    67    1
    61    94    95    1
    62    94    93    1
    63    56    57    1
    64    56    53    1
    65    52    53    1
    66    85    84    1
    67    53    54    1
    68    67    68    1
    69    67    64    1
    70    83    84    1
    71    83    80    1
    72    82    81    2
    73    86    84    1
    74    78    77    1
    75    81    87   am
    76    81    80    1
    77    54    55    2
    78    88    87    1
    79    88    91    1
    80    88    89    1
    81    64    65    1
    82    64    63    1
    83    90    89    2
    84    66    65    2
    85    80    79    1
    86    91    92    1
    87    76    77    1
    88    76    75    1
    89    65    70   am
    90    75    74    1
    91    70    71    1
    92    74    71    1
    93    71    72    1
    94    72    73    2
