@<TRIPOS>MOLECULE
tmp/6hi6A01.pdb
 81 75 0 0 0
SMALL
GASTEIGER

@<TRIPOS>ATOM
      1  N        -14.5300   44.3090   -5.0580 N.3    20  HIS20      -0.1241
      2  CA       -15.5540   44.9130   -5.8960 C.3    20  HIS20       0.1621
      3  C        -16.6210   43.8950   -6.2700 C.2    20  HIS20       0.2264
      4  O        -17.8160   44.1990   -6.2350 O.2    20  HIS20      -0.2867
      5  CB       -14.9080   45.5140   -7.1510 C.3    20  HIS20       0.0745
      6  CG       -15.8860   46.1470   -8.0950 C.ar   20  HIS20       0.0817
      7  ND1      -16.1920   45.6060   -9.3260 N.ar   20  HIS20      -0.2268
      8  CD2      -16.6240   47.2790   -7.9900 C.ar   20  HIS20       0.1154
      9  CE1      -17.0770   46.3740   -9.9370 C.ar   20  HIS20       0.1986
     10  NE2      -17.3540   47.3970   -9.1490 N.ar   20  HIS20      -0.2212
     11  N        -18.8090   43.4390   -3.3270 N.3    23  ALA23      -0.1231
     12  CA       -19.5760   44.6270   -2.9640 C.3    23  ALA23       0.1694
     13  C        -20.7520   44.8720   -3.9000 C.2    23  ALA23       0.2591
     14  O        -21.7360   45.5010   -3.4960 O.2    23  ALA23      -0.2718
     15  CB       -18.6710   45.8580   -2.9370 C.3    23  ALA23       0.0304
     16  N        -20.6820   44.4080   -5.1520 N.am   24  ILE24      -0.1980
     17  CA       -21.8020   44.6340   -6.0580 C.3    24  ILE24       0.1595
     18  C        -22.8290   43.5160   -5.9850 C.2    24  ILE24       0.2287
     19  O        -23.8820   43.6070   -6.6310 O.2    24  ILE24      -0.2864
     20  CB       -21.3190   44.8240   -7.5100 C.3    24  ILE24       0.0276
     21  CG1      -20.7060   43.5320   -8.0370 C.3    24  ILE24       0.0022
     22  CG2      -20.3360   45.9840   -7.5850 C.3    24  ILE24       0.0022
     23  CD1      -20.1730   43.6620   -9.4520 C.3    24  ILE24       0.0001
     24  N        -25.8730   41.7630   -4.5090 N.3    26  LYS26      -0.1245
     25  CA       -26.9830   42.2970   -3.7190 C.3    26  LYS26       0.1561
     26  C        -27.0980   41.6290   -2.3540 C.2    26  LYS26       0.2260
     27  O        -27.5740   42.2550   -1.3980 O.2    26  LYS26      -0.2867
     28  CB       -28.2990   42.1380   -4.4870 C.3    26  LYS26       0.0271
     29  CG       -28.4920   43.1460   -5.5930 C.3    26  LYS26       0.0035
     30  CD       -28.6700   44.5340   -5.0180 C.3    26  LYS26       0.0206
     31  CE       -28.7300   45.5800   -6.1070 C.3    26  LYS26       0.1093
     32  NZ       -27.4510   45.6320   -6.8590 N.3    26  LYS26      -0.1314
     33  N        -25.0800   43.6260    0.4300 N.3    29  ARG29      -0.1245
     34  CA       -25.2490   45.0630    0.6070 C.3    29  ARG29       0.1563
     35  C        -25.0890   45.4780    2.0660 C.2    29  ARG29       0.2260
     36  O        -24.5430   46.5520    2.3480 O.2    29  ARG29      -0.2867
     37  CB       -26.6060   45.5100    0.0700 C.3    29  ARG29       0.0307
     38  CG       -26.7600   47.0120    0.0920 C.3    29  ARG29       0.0489
     39  CD       -28.0980   47.4750   -0.4460 C.3    29  ARG29       0.2205
     40  NE       -28.0270   48.8710   -0.8800 N.pl3  29  ARG29      -0.0865
     41  CZ       -27.9820   49.9150   -0.0550 C.cat  29  ARG29       0.5346
     42  NH1      -28.0100   49.7340    1.2600 N.pl3  29  ARG29       0.1354
     43  NH2      -27.9120   51.1450   -0.5480 N.pl3  29  ARG29       0.1354
     44  N        -21.4570   46.4230    3.0520 N.3    32  THR32      -0.1203
     45  CA       -20.6810   47.3440    2.2240 C.3    32  THR32       0.1994
     46  C        -20.3310   48.6530    2.9160 C.2    32  THR32       0.2617
     47  O        -19.4220   49.3500    2.4550 O.2    32  THR32      -0.2717
     48  CB       -21.4170   47.6810    0.9240 C.3    32  THR32       0.1784
     49  OG1      -22.6830   48.2890    1.2210 O.3    32  THR32      -0.2211
     50  CG2      -21.6140   46.4290    0.0600 C.3    32  THR32       0.0376
     51  N        -21.0280   49.0130    3.9840 N.am   33  LYS33      -0.1979
     52  CA       -20.7830   50.2750    4.6630 C.3    33  LYS33       0.1596
     53  C        -20.6670   50.0240    6.1550 C.2    33  LYS33       0.2287
     54  O        -21.2150   49.0440    6.6630 O.2    33  LYS33      -0.2864
     55  CB       -21.9120   51.2880    4.3990 C.3    33  LYS33       0.0298
     56  CG       -22.0610   51.7060    2.9530 C.3    33  LYS33       0.0038
     57  CD       -23.2590   52.5930    2.7380 C.3    33  LYS33       0.0206
     58  CE       -24.5620   51.8470    2.7260 C.3    33  LYS33       0.1093
     59  NZ       -25.7090   52.7070    2.3130 N.3    33  LYS33      -0.1314
     60  N        -16.8980   46.1500    3.8520 N.3    51  LEU51      -0.1231
     61  CA       -16.1640   46.0640    2.5860 C.3    51  LEU51       0.1693
     62  C        -15.5820   47.4070    2.1650 C.2    51  LEU51       0.2592
     63  O        -14.5410   47.4410    1.4980 O.2    51  LEU51      -0.2718
     64  CB       -17.0690   45.5080    1.4840 C.3    51  LEU51       0.0284
     65  CG       -17.4900   44.0530    1.7120 C.3    51  LEU51       0.0019
     66  CD1      -18.5420   43.5890    0.6750 C.3    51  LEU51       0.0001
     67  CD2      -16.2880   43.1190    1.7100 C.3    51  LEU51       0.0001
     68  N        -16.2320   48.5220    2.5210 N.am   52  SER52      -0.1952
     69  CA       -15.6330   49.8250    2.2360 C.3    52  SER52       0.1924
     70  C        -14.3470   50.0210    3.0330 C.2    52  SER52       0.2314
     71  O        -13.3730   50.5820    2.5150 O.2    52  SER52      -0.2863
     72  CB       -16.6270   50.9450    2.5340 C.3    52  SER52       0.2116
     73  OG       -16.9150   50.9950    3.9170 O.3    52  SER52      -0.2180
     74  N        -11.5930   48.0520    1.3240 N.3    55  ILE55      -0.1245
     75  CA       -11.0360   48.7810    0.1820 C.3    55  ILE55       0.1561
     76  C        -10.0520   49.8430    0.6590 C.2    55  ILE55       0.2260
     77  O         -8.9640   50.0070    0.0910 O.2    55  ILE55      -0.2867
     78  CB       -12.1620   49.4080   -0.6670 C.3    55  ILE55       0.0252
     79  CG1      -12.9720   48.3280   -1.3900 C.3    55  ILE55       0.0019
     80  CG2      -11.5790   50.4040   -1.6810 C.3    55  ILE55       0.0019
     81  CD1      -12.2530   47.7540   -2.6000 C.3    55  ILE55       0.0001
@<TRIPOS>BOND
     1     9     7   ar
     2     9    10   ar
     3    23    21    1
     4     7     6   ar
     5    10     8   ar
     6     6     8   ar
     7     6     5    1
     8    21    20    1
     9    22    20    1
    10    20    17    1
    11     5     2    1
    12    32    31    1
    13    19    18    2
    14     3     4    2
    15     3     2    1
    16    31    30    1
    17    17    18    1
    18    17    16    1
    19     2     1    1
    20    29    30    1
    21    29    28    1
    22    16    13   am
    23    24    25    1
    24    28    25    1
    25    13    14    2
    26    13    12    1
    27    25    26    1
    28    11    12    1
    29    12    15    1
    30    81    79    1
    31    26    27    2
    32    80    78    1
    33    79    78    1
    34    40    39    1
    35    40    41    2
    36    78    75    1
    37    43    41    1
    38    39    38    1
    39    41    42    1
    40    50    48    1
    41    37    38    1
    42    37    34    1
    43    77    76    2
    44    75    76    1
    45    75    74    1
    46    33    34    1
    47    34    35    1
    48    66    65    1
    49    48    49    1
    50    48    45    1
    51    64    65    1
    52    64    61    1
    53    63    62    2
    54    67    65    1
    55    35    36    2
    56    62    68   am
    57    62    61    1
    58    45    46    1
    59    45    44    1
    60    69    68    1
    61    69    72    1
    62    69    70    1
    63    59    58    1
    64    47    46    2
    65    71    70    2
    66    72    73    1
    67    61    60    1
    68    58    57    1
    69    57    56    1
    70    46    51   am
    71    56    55    1
    72    51    52    1
    73    55    52    1
    74    52    53    1
    75    53    54    2
