@<TRIPOS>MOLECULE
tmp/6hiaA00.pdb
 164 160 0 0 0
SMALL
GASTEIGER

@<TRIPOS>ATOM
      1  N         24.8980  -43.6590  138.4390 N.3    29  ARG29      -0.1231
      2  CA        25.0410  -45.0940  138.6500 C.3    29  ARG29       0.1694
      3  C         24.9380  -45.4570  140.1250 C.2    29  ARG29       0.2592
      4  O         24.4190  -46.5240  140.4700 O.2    29  ARG29      -0.2718
      5  CB        26.3720  -45.5780  138.0720 C.3    29  ARG29       0.0321
      6  CG        26.8250  -46.9140  138.6350 C.3    29  ARG29       0.0489
      7  CD        28.2150  -47.2810  138.1600 C.3    29  ARG29       0.2205
      8  NE        28.2150  -47.5570  136.7290 N.pl3  29  ARG29      -0.0865
      9  CZ        27.9190  -48.7410  136.2010 C.cat  29  ARG29       0.5346
     10  NH1       27.6010  -49.7610  136.9900 N.pl3  29  ARG29       0.1354
     11  NH2       27.9350  -48.9080  134.8850 N.pl3  29  ARG29       0.1354
     12  N         25.3970  -44.5730  141.0070 N.am   30  VAL30      -0.1966
     13  CA        25.3190  -44.8210  142.4370 C.3    30  VAL30       0.1727
     14  C         23.8710  -44.9840  142.8970 C.2    30  VAL30       0.2616
     15  O         23.6150  -45.6210  143.9250 O.2    30  VAL30      -0.2715
     16  CB        26.0590  -43.6760  143.1790 C.3    30  VAL30       0.0290
     17  CG1       25.3720  -42.3350  142.9640 C.3    30  VAL30       0.0023
     18  CG2       26.1920  -43.9560  144.6440 C.3    30  VAL30       0.0023
     19  N         22.9060  -44.4640  142.1330 N.am   31  PHE31      -0.1974
     20  CA        21.4980  -44.4980  142.5150 C.3    31  PHE31       0.1639
     21  C         20.6910  -45.5450  141.7630 C.2    31  PHE31       0.2290
     22  O         19.4660  -45.5770  141.9050 O.2    31  PHE31      -0.2864
     23  CB        20.8670  -43.1250  142.2990 C.3    31  PHE31       0.0560
     24  CG        21.6410  -42.0070  142.9180 C.ar   31  PHE31      -0.0200
     25  CD1       21.8780  -41.9920  144.2840 C.ar   31  PHE31      -0.0042
     26  CD2       22.1330  -40.9770  142.1380 C.ar   31  PHE31      -0.0042
     27  CE1       22.5940  -40.9700  144.8680 C.ar   31  PHE31      -0.0003
     28  CE2       22.8570  -39.9460  142.7120 C.ar   31  PHE31      -0.0003
     29  CZ        23.0850  -39.9400  144.0860 C.ar   31  PHE31      -0.0000
     30  N         20.7650  -48.9440  141.9320 N.3    33  LYS33      -0.1231
     31  CA        20.4690  -50.2000  142.6070 C.3    33  LYS33       0.1678
     32  C         20.3720  -49.9460  144.0990 C.2    33  LYS33       0.2434
     33  O         20.9440  -48.9760  144.6100 O.2    33  LYS33      -0.2733
     34  CB        21.5360  -51.2690  142.3290 C.3    33  LYS33       0.0284
     35  CG        21.5760  -51.7510  140.8940 C.3    33  LYS33       0.0035
     36  CD        20.3470  -52.5870  140.5420 C.3    33  LYS33       0.0206
     37  CE        20.2330  -52.8040  139.0250 C.3    33  LYS33       0.1093
     38  NZ        18.8650  -53.2560  138.6070 N.3    33  LYS33      -0.1314
     39  N         19.6420  -50.7920  144.8270 N.am   34  PRO34      -0.2718
     40  CA        19.5960  -50.6510  146.2870 C.3    34  PRO34       0.1535
     41  C         20.9710  -50.8580  146.9090 C.2    34  PRO34       0.2598
     42  O         21.8350  -51.5450  146.3610 O.2    34  PRO34      -0.2715
     43  CB        18.6190  -51.7490  146.7260 C.3    34  PRO34       0.0310
     44  CG        17.8950  -52.1670  145.4880 C.3    34  PRO34       0.0237
     45  CD        18.8390  -51.9330  144.3530 C.3    34  PRO34       0.0939
     46  N         21.1630  -50.2520  148.0780 N.am   35  VAL35      -0.1964
     47  CA        22.3990  -50.4410  148.8240 C.3    35  VAL35       0.1727
     48  C         22.4320  -51.8520  149.3970 C.2    35  VAL35       0.2616
     49  O         21.4990  -52.2790  150.0890 O.2    35  VAL35      -0.2715
     50  CB        22.5200  -49.3840  149.9300 C.3    35  VAL35       0.0290
     51  CG1       23.7930  -49.5980  150.7340 C.3    35  VAL35       0.0023
     52  CG2       22.4880  -47.9970  149.3230 C.3    35  VAL35       0.0023
     53  N         23.5050  -52.5800  149.1050 N.am   36  ASP36      -0.1971
     54  CA        23.6730  -53.9440  149.5990 C.3    36  ASP36       0.1709
     55  C         24.1090  -53.9140  151.0590 C.2    36  ASP36       0.2293
     56  O         25.1550  -53.3310  151.3710 O.2    36  ASP36      -0.2864
     57  CB        24.7050  -54.6790  148.7480 C.3    36  ASP36       0.1436
     58  CG        24.7410  -56.1730  149.0140 C.2    36  ASP36       0.3671
     59  OD1       24.8800  -56.5800  150.1880 O.co2  36  ASP36      -0.2456
     60  OD2       24.6380  -56.9430  148.0330 O.co2  36  ASP36      -0.2456
     61  N         27.7380  -55.0050  151.8170 N.3    39  GLU39      -0.1231
     62  CA        28.7970  -54.0620  151.4720 C.3    39  GLU39       0.1699
     63  C         28.7740  -52.8410  152.3850 C.2    39  GLU39       0.2592
     64  O         29.8300  -52.3250  152.7700 O.2    39  GLU39      -0.2718
     65  CB        28.6690  -53.6520  150.0070 C.3    39  GLU39       0.0402
     66  CG        28.2190  -54.7850  149.1050 C.3    39  GLU39       0.1161
     67  CD        28.3930  -54.4630  147.6370 C.2    39  GLU39       0.3649
     68  OE1       28.1410  -53.3050  147.2450 O.co2  39  GLU39      -0.2457
     69  OE2       28.7790  -55.3700  146.8730 O.co2  39  GLU39      -0.2457
     70  N         27.5840  -52.3680  152.7460 N.am   40  VAL40      -0.1980
     71  CA        27.4330  -51.1510  153.5420 C.3    40  VAL40       0.1595
     72  C         26.5280  -51.4390  154.7360 C.2    40  VAL40       0.2287
     73  O         25.3010  -51.4350  154.5800 O.2    40  VAL40      -0.2864
     74  CB        26.8580  -50.0040  152.6970 C.3    40  VAL40       0.0276
     75  CG1       26.8570  -48.7340  153.4970 C.3    40  VAL40       0.0022
     76  CG2       27.6520  -49.8170  151.4120 C.3    40  VAL40       0.0022
     77  N         26.1120  -49.9410  157.8720 N.3    42  ASP42      -0.1225
     78  CA        25.5420  -48.8270  158.6070 C.3    42  ASP42       0.1805
     79  C         24.4330  -48.1300  157.8370 C.2    42  ASP42       0.2597
     80  O         23.7540  -47.2700  158.4110 O.2    42  ASP42      -0.2718
     81  CB        26.6370  -47.8130  158.9770 C.3    42  ASP42       0.1424
     82  CG        27.2260  -47.1090  157.7640 C.2    42  ASP42       0.3668
     83  OD1       27.3020  -47.7310  156.6800 O.co2  42  ASP42      -0.2456
     84  OD2       27.6100  -45.9260  157.8890 O.co2  42  ASP42      -0.2456
     85  N         24.2250  -48.4800  156.5640 N.am   43  TYR43      -0.1976
     86  CA        23.2170  -47.7830  155.7700 C.3    43  TYR43       0.1639
     87  C         21.8160  -48.0790  156.2840 C.2    43  TYR43       0.2290
     88  O         21.0610  -47.1620  156.6370 O.2    43  TYR43      -0.2864
     89  CB        23.3280  -48.1650  154.2910 C.3    43  TYR43       0.0560
     90  CG        22.5290  -47.2450  153.3790 C.ar   43  TYR43      -0.0198
     91  CD1       23.0100  -45.9850  153.0430 C.ar   43  TYR43      -0.0009
     92  CD2       21.2830  -47.6270  152.8820 C.ar   43  TYR43      -0.0009
     93  CE1       22.2910  -45.1380  152.2200 C.ar   43  TYR43       0.0417
     94  CE2       20.5490  -46.7820  152.0580 C.ar   43  TYR43       0.0417
     95  CZ        21.0590  -45.5380  151.7330 C.ar   43  TYR43       0.1957
     96  OH        20.3500  -44.6860  150.9160 O.3    43  TYR43      -0.2866
     97  N         20.5570  -39.5730  150.0390 N.3    82  ALA82      -0.1245
     98  CA        21.9740  -39.4360  149.7130 C.3    82  ALA82       0.1562
     99  C         22.6010  -38.2970  150.5000 C.2    82  ALA82       0.2260
    100  O         23.7200  -38.4280  151.0040 O.2    82  ALA82      -0.2867
    101  CB        22.1490  -39.2230  148.2070 C.3    82  ALA82       0.0290
    102  N         22.8710  -39.4650  154.2300 N.3    85  TYR85      -0.1227
    103  CA        23.9210  -40.4520  154.4310 C.3    85  TYR85       0.1736
    104  C         25.3210  -39.9110  154.1440 C.2    85  TYR85       0.2595
    105  O         26.2980  -40.5210  154.5930 O.2    85  TYR85      -0.2718
    106  CB        23.6630  -41.6760  153.5550 C.3    85  TYR85       0.0548
    107  CG        24.5840  -42.8280  153.8500 C.ar   85  TYR85      -0.0200
    108  CD1       24.5130  -43.5050  155.0650 C.ar   85  TYR85      -0.0009
    109  CD2       25.5430  -43.2330  152.9230 C.ar   85  TYR85      -0.0009
    110  CE1       25.3620  -44.5580  155.3450 C.ar   85  TYR85       0.0417
    111  CE2       26.3920  -44.2870  153.1940 C.ar   85  TYR85       0.0417
    112  CZ        26.2950  -44.9430  154.4060 C.ar   85  TYR85       0.1957
    113  OH        27.1410  -45.9890  154.6800 O.3    85  TYR85      -0.2866
    114  N         25.4510  -38.8040  153.4080 N.am   86  ASN86      -0.1961
    115  CA        26.7610  -38.2590  153.0200 C.3    86  ASN86       0.1804
    116  C         26.8770  -36.7850  153.3950 C.2    86  ASN86       0.2463
    117  O         27.0440  -35.9200  152.5250 O.2    86  ASN86      -0.2730
    118  CB        27.0090  -38.4570  151.5260 C.3    86  ASN86       0.1195
    119  CG        27.0990  -39.9170  151.1370 C.2    86  ASN86       0.2630
    120  OD1       28.1290  -40.5530  151.3270 O.2    86  ASN86      -0.2716
    121  ND2       26.0170  -40.4590  150.5800 N.am   86  ASN86      -0.0877
    122  N         26.8390  -36.4590  154.6830 N.am   87  PRO87      -0.2716
    123  CA        26.8670  -35.0550  155.1130 C.3    87  PRO87       0.1536
    124  C         28.2570  -34.4630  155.3090 C.2    87  PRO87       0.2598
    125  O         28.3510  -33.2620  155.5850 O.2    87  PRO87      -0.2715
    126  CB        26.1310  -35.1230  156.4610 C.3    87  PRO87       0.0310
    127  CG        26.5620  -36.4380  157.0120 C.3    87  PRO87       0.0237
    128  CD        26.7830  -37.3720  155.8410 C.3    87  PRO87       0.0939
    129  N         29.3200  -35.2530  155.1810 N.am   88  ASP88      -0.1972
    130  CA        30.6570  -34.8250  155.5740 C.3    88  ASP88       0.1709
    131  C         31.3040  -33.9900  154.4720 C.2    88  ASP88       0.2293
    132  O         30.8730  -34.0110  153.3140 O.2    88  ASP88      -0.2864
    133  CB        31.5220  -36.0420  155.8940 C.3    88  ASP88       0.1436
    134  CG        30.9820  -36.8500  157.0650 C.2    88  ASP88       0.3671
    135  OD1       30.2310  -36.2800  157.8890 O.co2  88  ASP88      -0.2456
    136  OD2       31.3120  -38.0540  157.1650 O.co2  88  ASP88      -0.2456
    137  N         34.2050  -34.3960  153.1960 N.3    90  ASP90      -0.1239
    138  CA        35.1930  -35.1180  152.4280 C.3    90  ASP90       0.1674
    139  C         34.7320  -35.2970  150.9780 C.2    90  ASP90       0.2266
    140  O         33.5350  -35.2050  150.6760 O.2    90  ASP90      -0.2867
    141  CB        35.4830  -36.4560  153.0920 C.3    90  ASP90       0.1410
    142  CG        34.3830  -37.4410  152.9010 C.2    90  ASP90       0.3668
    143  OD1       34.4680  -38.2500  151.9490 O.co2  90  ASP90      -0.2456
    144  OD2       33.4240  -37.4060  153.7020 O.co2  90  ASP90      -0.2456
    145  N         34.4510  -37.7910  148.7720 N.3    92  GLY92      -0.1210
    146  CA        33.5100  -38.8430  148.4180 C.3    92  GLY92       0.1956
    147  C         32.0810  -38.4660  148.7630 C.2    92  GLY92       0.2611
    148  O         31.1750  -38.5750  147.9290 O.2    92  GLY92      -0.2717
    149  N         31.8640  -38.0030  149.9990 N.am   93  ASP93      -0.1973
    150  CA        30.5540  -37.4870  150.3840 C.3    93  ASP93       0.1709
    151  C         30.1170  -36.3500  149.4720 C.2    93  ASP93       0.2293
    152  O         28.9650  -36.3030  149.0310 O.2    93  ASP93      -0.2864
    153  CB        30.5640  -37.0070  151.8360 C.3    93  ASP93       0.1436
    154  CG        30.4800  -38.1460  152.8260 C.2    93  ASP93       0.3671
    155  OD1       30.9760  -39.2560  152.5260 O.co2  93  ASP93      -0.2456
    156  OD2       29.8750  -37.9340  153.8940 O.co2  93  ASP93      -0.2456
    157  N         28.9460  -37.5400  145.9510 N.3    96  ILE96      -0.1245
    158  CA        27.6160  -38.1470  145.9600 C.3    96  ILE96       0.1561
    159  C         26.5460  -37.0800  146.1190 C.2    96  ILE96       0.2260
    160  O         25.5170  -37.1140  145.4330 O.2    96  ILE96      -0.2867
    161  CB        27.5050  -39.2210  147.0620 C.3    96  ILE96       0.0252
    162  CG1       28.5940  -40.2780  146.9010 C.3    96  ILE96       0.0019
    163  CG2       26.1370  -39.9000  147.0170 C.3    96  ILE96       0.0019
    164  CD1       28.6000  -40.9420  145.5560 C.3    96  ILE96       0.0001
@<TRIPOS>BOND
     1    11     9    1
     2     9     8    2
     3     9    10    1
     4     8     7    1
     5     5     6    1
     6     5     2    1
     7     7     6    1
     8     1     2    1
     9    38    37    1
    10     2     3    1
    11    37    36    1
    12     3     4    2
    13     3    12   am
    14    36    35    1
    15    35    34    1
    16    12    13    1
    17    21    22    2
    18    21    20    1
    19    30    31    1
    20    19    20    1
    21    19    14   am
    22    26    28   ar
    23    26    24   ar
    24    23    20    1
    25    23    24    1
    26    34    31    1
    27    13    14    1
    28    13    16    1
    29    31    32    1
    30    28    29   ar
    31    14    15    2
    32    24    25   ar
    33    17    16    1
    34    16    18    1
    35    29    27   ar
    36    32    33    2
    37    32    39   am
    38    25    27   ar
    39    45    39    1
    40    45    44    1
    41    39    40    1
    42   160   159    2
    43    44    43    1
    44   164   162    1
    45   157   158    1
    46   158   159    1
    47   158   161    1
    48    40    43    1
    49    40    41    1
    50    42    41    2
    51    69    67   ar
    52   162   161    1
    53    41    46   am
    54   163   161    1
    55    68    67   ar
    56    67    66    1
    57   148   147    2
    58    60    58   ar
    59    46    47    1
    60   101    98    1
    61   146   147    1
    62   146   145    1
    63    57    58    1
    64    57    54    1
    65   147   149   am
    66    47    48    1
    67    47    50    1
    68    58    59   ar
    69   152   151    2
    70    66    65    1
    71    53    48   am
    72    53    54    1
    73    52    50    1
    74    48    49    2
    75   151   150    1
    76    54    55    1
    77    98    97    1
    78    98    99    1
    79    50    51    1
    80   149   150    1
    81    65    62    1
    82   150   153    1
    83    99   100    2
    84   121   119   am
    85   140   139    2
    86    96    95    1
    87   139   138    1
    88    55    56    2
    89   119   120    2
    90   119   118    1
    91    76    74    1
    92    62    61    1
    93    62    63    1
    94   118   115    1
    95    95    94   ar
    96    95    93   ar
    97   153   154    1
    98   143   142   ar
    99    94    92   ar
   100    93    91   ar
   101    63    70   am
   102    63    64    2
   103   138   141    1
   104   138   137    1
   105   117   116    2
   106   155   154   ar
   107    74    75    1
   108    74    71    1
   109    70    71    1
   110   154   156   ar
   111    92    90   ar
   112   142   141    1
   113   142   144   ar
   114   109   111   ar
   115   109   107   ar
   116   115   116    1
   117   115   114    1
   118    91    90   ar
   119   111   112   ar
   120   132   131    2
   121    90    89    1
   122   116   122   am
   123   114   104   am
   124    71    72    1
   125   106   107    1
   126   106   103    1
   127   107   108   ar
   128   104   103    1
   129   104   105    2
   130   102   103    1
   131    89    86    1
   132   112   113    1
   133   112   110   ar
   134   131   130    1
   135    73    72    2
   136   122   123    1
   137   122   128    1
   138   108   110   ar
   139   123   124    1
   140   123   126    1
   141   129   124   am
   142   129   130    1
   143   124   125    2
   144   130   133    1
   145    86    87    1
   146    86    85    1
   147   128   127    1
   148   133   134    1
   149    87    88    2
   150   126   127    1
   151    85    79   am
   152    83    82   ar
   153   134   136   ar
   154   134   135   ar
   155    82    84   ar
   156    82    81    1
   157    79    80    2
   158    79    78    1
   159    77    78    1
   160    78    81    1
