@<TRIPOS>MOLECULE
tmp/6hibA00.pdb
 133 129 0 0 0
SMALL
GASTEIGER

@<TRIPOS>ATOM
      1  N         24.9470  -44.0960  138.7340 N.3    29  ARG29      -0.1231
      2  CA        25.0880  -45.5370  138.9340 C.3    29  ARG29       0.1694
      3  C         24.9000  -45.9220  140.3950 C.2    29  ARG29       0.2592
      4  O         24.3300  -46.9760  140.7040 O.2    29  ARG29      -0.2718
      5  CB        26.4560  -46.0120  138.4370 C.3    29  ARG29       0.0321
      6  CG        26.6430  -47.5320  138.5280 C.3    29  ARG29       0.0489
      7  CD        27.9710  -48.0050  137.9270 C.3    29  ARG29       0.2205
      8  NE        28.9180  -48.4490  138.9530 N.pl3  29  ARG29      -0.0865
      9  CZ        30.1190  -48.9700  138.6990 C.cat  29  ARG29       0.5346
     10  NH1       30.5340  -49.1190  137.4450 N.pl3  29  ARG29       0.1354
     11  NH2       30.9090  -49.3440  139.7020 N.pl3  29  ARG29       0.1354
     12  N         25.3610  -45.0700  141.3070 N.am   30  VAL30      -0.1966
     13  CA        25.2880  -45.3890  142.7220 C.3    30  VAL30       0.1727
     14  C         23.8370  -45.4640  143.2010 C.2    30  VAL30       0.2616
     15  O         23.5470  -46.1340  144.1970 O.2    30  VAL30      -0.2715
     16  CB        26.1170  -44.3460  143.4990 C.3    30  VAL30       0.0290
     17  CG1       25.5440  -42.9480  143.3060 C.3    30  VAL30       0.0023
     18  CG2       26.2000  -44.6830  144.9660 C.3    30  VAL30       0.0023
     19  N         22.9040  -44.8250  142.4960 N.am   31  PHE31      -0.1974
     20  CA        21.4990  -44.8280  142.8830 C.3    31  PHE31       0.1639
     21  C         20.6730  -45.8770  142.1390 C.2    31  PHE31       0.2290
     22  O         19.4410  -45.8780  142.2520 O.2    31  PHE31      -0.2864
     23  CB        20.9000  -43.4330  142.6560 C.3    31  PHE31       0.0560
     24  CG        21.7410  -42.3080  143.2170 C.ar   31  PHE31      -0.0200
     25  CD1       22.0370  -42.2540  144.5740 C.ar   31  PHE31      -0.0042
     26  CD2       22.2390  -41.3120  142.3840 C.ar   31  PHE31      -0.0042
     27  CE1       22.8100  -41.2130  145.0910 C.ar   31  PHE31      -0.0003
     28  CE2       23.0110  -40.2720  142.8830 C.ar   31  PHE31      -0.0003
     29  CZ        23.3000  -40.2180  144.2500 C.ar   31  PHE31      -0.0000
     30  N         20.8970  -49.3380  142.3090 N.3    33  LYS33      -0.1231
     31  CA        20.6230  -50.5780  143.0120 C.3    33  LYS33       0.1678
     32  C         20.4470  -50.2950  144.4940 C.2    33  LYS33       0.2434
     33  O         20.9930  -49.3140  145.0120 O.2    33  LYS33      -0.2733
     34  CB        21.7610  -51.5920  142.8180 C.3    33  LYS33       0.0284
     35  CG        21.7330  -52.3010  141.4740 C.3    33  LYS33       0.0035
     36  CD        20.3160  -52.7540  141.1100 C.3    33  LYS33       0.0206
     37  CE        20.3280  -53.9610  140.1690 C.3    33  LYS33       0.1093
     38  NZ        19.2860  -53.8740  139.0930 N.3    33  LYS33      -0.1314
     39  N         19.6940  -51.1400  145.2020 N.am   34  PRO34      -0.2718
     40  CA        19.6470  -51.0310  146.6600 C.3    34  PRO34       0.1535
     41  C         21.0320  -51.1880  147.2720 C.2    34  PRO34       0.2598
     42  O         21.9540  -51.7520  146.6820 O.2    34  PRO34      -0.2715
     43  CB        18.7190  -52.1790  147.0800 C.3    34  PRO34       0.0310
     44  CG        17.9360  -52.5140  145.8660 C.3    34  PRO34       0.0237
     45  CD        18.8280  -52.2220  144.6980 C.3    34  PRO34       0.0939
     46  N         21.1690  -50.6650  148.4800 N.am   35  VAL35      -0.1964
     47  CA        22.4210  -50.7400  149.2220 C.3    35  VAL35       0.1727
     48  C         22.5590  -52.1400  149.8140 C.2    35  VAL35       0.2616
     49  O         21.6940  -52.5910  150.5730 O.2    35  VAL35      -0.2715
     50  CB        22.4610  -49.6540  150.3060 C.3    35  VAL35       0.0290
     51  CG1       23.6410  -49.8390  151.2130 C.3    35  VAL35       0.0023
     52  CG2       22.4980  -48.2730  149.6520 C.3    35  VAL35       0.0023
     53  N         23.6390  -52.8360  149.4550 N.am   36  ASP36      -0.1971
     54  CA        23.8810  -54.2090  149.9020 C.3    36  ASP36       0.1709
     55  C         23.9800  -54.2650  151.4250 C.2    36  ASP36       0.2293
     56  O         24.8580  -53.6040  152.0040 O.2    36  ASP36      -0.2864
     57  CB        25.1660  -54.7420  149.2600 C.3    36  ASP36       0.1436
     58  CG        25.2890  -56.2620  149.3290 C.2    36  ASP36       0.3671
     59  OD1       25.0940  -56.8460  150.4150 O.co2  36  ASP36      -0.2456
     60  OD2       25.6060  -56.8750  148.2870 O.co2  36  ASP36      -0.2456
     61  N         27.5520  -55.4000  152.2490 N.3    39  GLU39      -0.1231
     62  CA        28.6290  -54.4880  151.8660 C.3    39  GLU39       0.1699
     63  C         28.7540  -53.3150  152.8300 C.2    39  GLU39       0.2592
     64  O         29.8670  -52.8940  153.1630 O.2    39  GLU39      -0.2718
     65  CB        28.4090  -53.9840  150.4390 C.3    39  GLU39       0.0402
     66  CG        29.4710  -53.0520  149.9420 C.3    39  GLU39       0.1161
     67  CD        29.3610  -52.6290  148.5100 C.2    39  GLU39       0.3649
     68  OE1       28.4020  -52.9720  147.8510 O.co2  39  GLU39      -0.2457
     69  OE2       30.1360  -51.8040  148.0030 O.co2  39  GLU39      -0.2457
     70  N         27.6320  -52.7720  153.2910 N.am   40  VAL40      -0.1980
     71  CA        27.6840  -51.7070  154.2920 C.3    40  VAL40       0.1595
     72  C         26.5480  -51.8640  155.2990 C.2    40  VAL40       0.2287
     73  O         25.3690  -51.6560  154.9680 O.2    40  VAL40      -0.2864
     74  CB        27.6950  -50.3200  153.6310 C.3    40  VAL40       0.0276
     75  CG1       26.6290  -50.2170  152.5720 C.3    40  VAL40       0.0022
     76  CG2       27.4810  -49.2530  154.6770 C.3    40  VAL40       0.0022
     77  N         23.9150  -48.8180  157.0320 N.3    43  TYR43      -0.1241
     78  CA        22.9970  -48.0610  156.1850 C.3    43  TYR43       0.1605
     79  C         21.5510  -48.2980  156.5930 C.2    43  TYR43       0.2264
     80  O         20.8070  -47.3510  156.8870 O.2    43  TYR43      -0.2867
     81  CB        23.1970  -48.4300  154.7140 C.3    43  TYR43       0.0534
     82  CG        22.4340  -47.5100  153.7870 C.ar   43  TYR43      -0.0201
     83  CD1       22.8780  -46.2150  153.5480 C.ar   43  TYR43      -0.0009
     84  CD2       21.2520  -47.9200  153.1840 C.ar   43  TYR43      -0.0009
     85  CE1       22.1840  -45.3630  152.7140 C.ar   43  TYR43       0.0417
     86  CE2       20.5490  -47.0730  152.3480 C.ar   43  TYR43       0.0417
     87  CZ        21.0220  -45.7960  152.1170 C.ar   43  TYR43       0.1957
     88  OH        20.3280  -44.9410  151.2970 O.3    43  TYR43      -0.2866
     89  N         20.6320  -39.6640  150.3610 N.3    82  ALA82      -0.1245
     90  CA        22.0480  -39.5290  150.0480 C.3    82  ALA82       0.1562
     91  C         22.6630  -38.3640  150.8130 C.2    82  ALA82       0.2260
     92  O         23.7960  -38.4570  151.2930 O.2    82  ALA82      -0.2867
     93  CB        22.2300  -39.3630  148.5340 C.3    82  ALA82       0.0290
     94  N         22.8920  -39.6350  154.6680 N.3    85  TYR85      -0.1227
     95  CA        23.9120  -40.6400  154.9180 C.3    85  TYR85       0.1736
     96  C         25.3300  -40.1350  154.6250 C.2    85  TYR85       0.2595
     97  O         26.2960  -40.7610  155.0770 O.2    85  TYR85      -0.2718
     98  CB        23.6140  -41.8980  154.0890 C.3    85  TYR85       0.0548
     99  CG        24.5060  -43.0670  154.4270 C.ar   85  TYR85      -0.0200
    100  CD1       24.3680  -43.7460  155.6370 C.ar   85  TYR85      -0.0009
    101  CD2       25.4960  -43.4830  153.5500 C.ar   85  TYR85      -0.0009
    102  CE1       25.1920  -44.8060  155.9560 C.ar   85  TYR85       0.0417
    103  CE2       26.3210  -44.5430  153.8600 C.ar   85  TYR85       0.0417
    104  CZ        26.1660  -45.1990  155.0620 C.ar   85  TYR85       0.1957
    105  OH        26.9900  -46.2540  155.3680 O.3    85  TYR85      -0.2866
    106  N         25.4870  -39.0280  153.8940 N.am   86  ASN86      -0.1974
    107  CA        26.8050  -38.5430  153.4560 C.3    86  ASN86       0.1688
    108  C         26.9640  -37.0620  153.7610 C.2    86  ASN86       0.2292
    109  O         27.1540  -36.2430  152.8510 O.2    86  ASN86      -0.2864
    110  CB        27.0070  -38.7870  151.9630 C.3    86  ASN86       0.1181
    111  CG        26.9270  -40.2440  151.5990 C.2    86  ASN86       0.2629
    112  OD1       27.8780  -40.9840  151.7980 O.2    86  ASN86      -0.2716
    113  ND2       25.7900  -40.6650  151.0470 N.am   86  ASN86      -0.0877
    114  N         34.5990  -38.0100  149.1650 N.3    92  GLY92      -0.1210
    115  CA        33.6370  -39.0570  148.8560 C.3    92  GLY92       0.1956
    116  C         32.2110  -38.6090  149.1230 C.2    92  GLY92       0.2611
    117  O         31.3250  -38.7680  148.2740 O.2    92  GLY92      -0.2717
    118  N         31.9820  -38.0030  150.2980 N.am   93  ASP93      -0.1973
    119  CA        30.6610  -37.4850  150.6440 C.3    93  ASP93       0.1709
    120  C         30.2500  -36.3460  149.7220 C.2    93  ASP93       0.2293
    121  O         29.0930  -36.2700  149.2970 O.2    93  ASP93      -0.2864
    122  CB        30.6360  -36.9930  152.0930 C.3    93  ASP93       0.1436
    123  CG        30.6070  -38.1230  153.0980 C.2    93  ASP93       0.3671
    124  OD1       31.2020  -39.1940  152.8250 O.co2  93  ASP93      -0.2456
    125  OD2       29.9690  -37.9350  154.1600 O.co2  93  ASP93      -0.2456
    126  N         29.0760  -37.7710  146.2040 N.3    96  ILE96      -0.1245
    127  CA        27.7480  -38.3860  146.2110 C.3    96  ILE96       0.1561
    128  C         26.6680  -37.3260  146.3670 C.2    96  ILE96       0.2260
    129  O         25.6350  -37.3660  145.6910 O.2    96  ILE96      -0.2867
    130  CB        27.6400  -39.4530  147.3160 C.3    96  ILE96       0.0252
    131  CG1       28.8240  -40.4090  147.2480 C.3    96  ILE96       0.0019
    132  CG2       26.3390  -40.2300  147.1810 C.3    96  ILE96       0.0019
    133  CD1       28.9690  -41.0870  145.9190 C.3    96  ILE96       0.0001
@<TRIPOS>BOND
     1    10     9    1
     2     7     6    1
     3     7     8    1
     4     5     6    1
     5     5     2    1
     6     9     8    2
     7     9    11    1
     8     1     2    1
     9     2     3    1
    10    38    37    1
    11    37    36    1
    12     3     4    2
    13     3    12   am
    14    36    35    1
    15    12    13    1
    16    35    34    1
    17    21    22    2
    18    21    20    1
    19    30    31    1
    20    26    28   ar
    21    26    24   ar
    22    19    20    1
    23    19    14   am
    24    23    20    1
    25    23    24    1
    26    13    14    1
    27    13    16    1
    28    34    31    1
    29    28    29   ar
    30    31    32    1
    31    14    15    2
    32    24    25   ar
    33    17    16    1
    34    16    18    1
    35    29    27   ar
    36    32    33    2
    37    32    39   am
    38    25    27   ar
    39    45    39    1
    40    45    44    1
    41    39    40    1
    42   129   128    2
    43    44    43    1
    44   133   131    1
    45   126   127    1
    46   127   128    1
    47   127   130    1
    48    40    43    1
    49    40    41    1
    50    42    41    2
    51   132   130    1
    52   131   130    1
    53    41    46   am
    54    68    67   ar
    55    69    67   ar
    56   117   116    2
    57    60    58   ar
    58    46    47    1
    59    67    66    1
    60    93    90    1
    61   115   116    1
    62   115   114    1
    63   116   118   am
    64    47    48    1
    65    47    50    1
    66    57    58    1
    67    57    54    1
    68   121   120    2
    69    58    59   ar
    70    53    48   am
    71    53    54    1
    72    52    50    1
    73   120   119    1
    74    48    49    2
    75    54    55    1
    76    66    65    1
    77    90    89    1
    78    90    91    1
    79   118   119    1
    80    50    51    1
    81    65    62    1
    82   119   122    1
    83    91    92    2
    84   113   111   am
    85    88    87    1
    86    55    56    2
    87   111   112    2
    88   111   110    1
    89    62    61    1
    90    62    63    1
    91   110   107    1
    92   122   123    1
    93    87    86   ar
    94    87    85   ar
    95    86    84   ar
    96    75    74    1
    97    85    83   ar
    98   124   123   ar
    99    63    64    2
   100    63    70   am
   101   109   108    2
   102   123   125   ar
   103    84    82   ar
   104    70    71    1
   105   107   108    1
   106   107   106    1
   107    83    82   ar
   108   101   103   ar
   109   101    99   ar
   110    74    71    1
   111    74    76    1
   112    82    81    1
   113   103   104   ar
   114   106    96   am
   115    98    99    1
   116    98    95    1
   117    71    72    1
   118    99   100   ar
   119    96    95    1
   120    96    97    2
   121    94    95    1
   122    81    78    1
   123    73    72    2
   124   104   105    1
   125   104   102   ar
   126   100   102   ar
   127    78    79    1
   128    78    77    1
   129    79    80    2
