@<TRIPOS>MOLECULE
tmp/6hicA01.pdb
 81 74 0 0 0
SMALL
GASTEIGER

@<TRIPOS>ATOM
      1  N         25.0700  -43.8200  138.5770 N.3    29  ARG29      -0.1231
      2  CA        25.2620  -45.2510  138.7910 C.3    29  ARG29       0.1694
      3  C         25.1430  -45.6210  140.2620 C.2    29  ARG29       0.2591
      4  O         24.6070  -46.6790  140.5990 O.2    29  ARG29      -0.2718
      5  CB        26.6290  -45.6770  138.2420 C.3    29  ARG29       0.0321
      6  CG        26.8410  -47.1900  138.1440 C.3    29  ARG29       0.0489
      7  CD        27.4920  -47.7730  139.4080 C.3    29  ARG29       0.2205
      8  NE        27.2990  -49.2220  139.5080 N.pl3  29  ARG29      -0.0865
      9  CZ        26.8720  -49.8640  140.5940 C.cat  29  ARG29       0.5346
     10  NH1       26.5840  -49.2010  141.7110 N.pl3  29  ARG29       0.1354
     11  NH2       26.7380  -51.1840  140.5580 N.pl3  29  ARG29       0.1354
     12  N         25.6460  -44.7620  141.1510 N.am   30  VAL30      -0.1980
     13  CA        25.5800  -44.9990  142.5890 C.3    30  VAL30       0.1595
     14  C         24.1470  -45.0550  143.1210 C.2    30  VAL30       0.2287
     15  O         23.9200  -45.5240  144.2500 O.2    30  VAL30      -0.2864
     16  CB        26.4240  -43.9060  143.2930 C.3    30  VAL30       0.0276
     17  CG1       25.7080  -42.5650  143.2910 C.3    30  VAL30       0.0022
     18  CG2       26.8040  -44.3160  144.6970 C.3    30  VAL30       0.0022
     19  N         23.6670  -52.5160  149.8180 N.3    36  ASP36      -0.1239
     20  CA        23.7030  -53.8260  150.4560 C.3    36  ASP36       0.1674
     21  C         23.9830  -53.6520  151.9470 C.2    36  ASP36       0.2266
     22  O         25.1040  -53.2910  152.3240 O.2    36  ASP36      -0.2867
     23  CB        24.7640  -54.7150  149.7990 C.3    36  ASP36       0.1410
     24  CG        24.7490  -56.1460  150.3250 C.2    36  ASP36       0.3668
     25  OD1       25.3260  -57.0270  149.6530 O.co2  36  ASP36      -0.2456
     26  OD2       24.1730  -56.3980  151.4060 O.co2  36  ASP36      -0.2456
     27  N         27.2960  -55.2340  153.1000 N.3    39  GLU39      -0.1231
     28  CA        28.5430  -54.5800  152.7190 C.3    39  GLU39       0.1699
     29  C         28.6610  -53.1700  153.2840 C.2    39  GLU39       0.2592
     30  O         29.7730  -52.6310  153.3410 O.2    39  GLU39      -0.2718
     31  CB        28.6680  -54.5440  151.1940 C.3    39  GLU39       0.0402
     32  CG        28.6910  -55.9500  150.5940 C.3    39  GLU39       0.1161
     33  CD        30.1330  -56.4120  150.5160 C.2    39  GLU39       0.3649
     34  OE1       31.0830  -55.6880  150.9020 O.co2  39  GLU39      -0.2457
     35  OE2       30.3440  -57.5570  150.1030 O.co2  39  GLU39      -0.2457
     36  N         27.5500  -52.5620  153.6920 N.am   40  VAL40      -0.1980
     37  CA        27.5490  -51.2010  154.2260 C.3    40  VAL40       0.1595
     38  C         26.7840  -51.2130  155.5430 C.2    40  VAL40       0.2287
     39  O         25.6330  -50.7550  155.5990 O.2    40  VAL40      -0.2864
     40  CB        26.9300  -50.1990  153.2370 C.3    40  VAL40       0.0276
     41  CG1       27.1400  -48.7720  153.7330 C.3    40  VAL40       0.0022
     42  CG2       27.5250  -50.3790  151.8470 C.3    40  VAL40       0.0022
     43  N         25.8060  -38.6650  153.3430 N.3    86  ASN86      -0.1240
     44  CA        27.0520  -38.0340  152.9040 C.3    86  ASN86       0.1653
     45  C         27.0980  -36.5780  153.3630 C.2    86  ASN86       0.2266
     46  O         27.1570  -35.6560  152.5410 O.2    86  ASN86      -0.2867
     47  CB        27.1920  -38.1380  151.3850 C.3    86  ASN86       0.1155
     48  CG        27.3230  -39.5660  150.9330 C.2    86  ASN86       0.2627
     49  OD1       28.4090  -40.1330  150.9760 O.2    86  ASN86      -0.2716
     50  ND2       26.2090  -40.1740  150.5250 N.am   86  ASN86      -0.0877
     51  N         34.6350  -37.8330  148.9660 N.3    92  GLY92      -0.1225
     52  CA        33.6670  -38.8670  148.6170 C.3    92  GLY92       0.1811
     53  C         32.2470  -38.4260  148.8960 C.2    92  GLY92       0.2280
     54  O         31.3530  -38.5800  148.0560 O.2    92  GLY92      -0.2866
     55  N         31.2370  -35.5960  146.4160 N.3    95  LEU95      -0.1231
     56  CA        30.9510  -36.1240  145.0870 C.3    95  LEU95       0.1693
     57  C         29.5440  -36.7100  145.0170 C.2    95  LEU95       0.2591
     58  O         28.7960  -36.4460  144.0650 O.2    95  LEU95      -0.2718
     59  CB        31.9980  -37.1750  144.7170 C.3    95  LEU95       0.0284
     60  CG        31.7800  -37.9540  143.4170 C.3    95  LEU95       0.0019
     61  CD1       31.6150  -37.0070  142.2240 C.3    95  LEU95       0.0001
     62  CD2       32.9530  -38.9070  143.1820 C.3    95  LEU95       0.0001
     63  N         29.1750  -37.5340  146.0030 N.am   96  ILE96      -0.1980
     64  CA        27.8390  -38.1350  146.0040 C.3    96  ILE96       0.1595
     65  C         26.7650  -37.0580  146.1200 C.2    96  ILE96       0.2287
     66  O         25.7450  -37.1140  145.4220 O.2    96  ILE96      -0.2864
     67  CB        27.7010  -39.1820  147.1310 C.3    96  ILE96       0.0276
     68  CG1       28.7470  -40.2950  147.0110 C.3    96  ILE96       0.0022
     69  CG2       26.2750  -39.7720  147.1500 C.3    96  ILE96       0.0022
     70  CD1       28.6520  -41.1230  145.7670 C.3    96  ILE96       0.0001
     71  N         26.1970  -35.4180  142.8050 N.3    99  ARG99      -0.1245
     72  CA        25.4500  -36.3060  141.9140 C.3    99  ARG99       0.1563
     73  C         23.9950  -36.4110  142.3430 C.2    99  ARG99       0.2260
     74  O         23.0940  -36.4460  141.4980 O.2    99  ARG99      -0.2867
     75  CB        26.0820  -37.6970  141.8980 C.3    99  ARG99       0.0307
     76  CG        27.4590  -37.7680  141.2280 C.3    99  ARG99       0.0489
     77  CD        28.1150  -39.1230  141.4270 C.3    99  ARG99       0.2205
     78  NE        29.3190  -39.2550  140.6070 N.pl3  99  ARG99      -0.0865
     79  CZ        30.2190  -40.2280  140.7300 C.cat  99  ARG99       0.5346
     80  NH1       30.0740  -41.1720  141.6540 N.pl3  99  ARG99       0.1354
     81  NH2       31.2800  -40.2440  139.9330 N.pl3  99  ARG99       0.1354
@<TRIPOS>BOND
     1     6     5    1
     2     6     7    1
     3     5     2    1
     4     1     2    1
     5     2     3    1
     6     7     8    1
     7     8     9    2
     8    81    79    1
     9     3     4    2
    10     3    12   am
    11    11     9    1
    12     9    10    1
    13    78    79    2
    14    78    77    1
    15    79    80    1
    16    12    13    1
    17    76    77    1
    18    76    75    1
    19    74    73    2
    20    75    72    1
    21    72    73    1
    22    72    71    1
    23    61    60    1
    24    13    14    1
    25    13    16    1
    26    14    15    2
    27    62    60    1
    28    17    16    1
    29    16    18    1
    30    60    59    1
    31    58    57    2
    32    59    56    1
    33    57    56    1
    34    57    63   am
    35    56    55    1
    36    66    65    2
    37    70    68    1
    38    63    64    1
    39    64    65    1
    40    64    67    1
    41    68    67    1
    42    67    69    1
    43    54    53    2
    44    52    53    1
    45    52    51    1
    46    25    24   ar
    47    23    24    1
    48    23    20    1
    49    19    20    1
    50    35    33   ar
    51    24    26   ar
    52    20    21    1
    53    33    32    1
    54    33    34   ar
    55    50    48   am
    56    32    31    1
    57    48    49    2
    58    48    47    1
    59    31    28    1
    60    47    44    1
    61    42    40    1
    62    21    22    2
    63    46    45    2
    64    28    27    1
    65    28    29    1
    66    44    43    1
    67    44    45    1
    68    40    41    1
    69    40    37    1
    70    29    30    2
    71    29    36   am
    72    36    37    1
    73    37    38    1
    74    38    39    2
