@<TRIPOS>MOLECULE
tmp/6hicA00.pdb
 149 143 0 0 0
SMALL
GASTEIGER

@<TRIPOS>ATOM
      1  N         25.0700  -43.8200  138.5770 N.3    29  ARG29      -0.1231
      2  CA        25.2620  -45.2510  138.7910 C.3    29  ARG29       0.1694
      3  C         25.1430  -45.6210  140.2620 C.2    29  ARG29       0.2592
      4  O         24.6070  -46.6790  140.5990 O.2    29  ARG29      -0.2718
      5  CB        26.6290  -45.6770  138.2420 C.3    29  ARG29       0.0321
      6  CG        26.8410  -47.1900  138.1440 C.3    29  ARG29       0.0489
      7  CD        27.4920  -47.7730  139.4080 C.3    29  ARG29       0.2205
      8  NE        27.2990  -49.2220  139.5080 N.pl3  29  ARG29      -0.0865
      9  CZ        26.8720  -49.8640  140.5940 C.cat  29  ARG29       0.5346
     10  NH1       26.5840  -49.2010  141.7110 N.pl3  29  ARG29       0.1354
     11  NH2       26.7380  -51.1840  140.5580 N.pl3  29  ARG29       0.1354
     12  N         25.6460  -44.7620  141.1510 N.am   30  VAL30      -0.1966
     13  CA        25.5800  -44.9990  142.5890 C.3    30  VAL30       0.1727
     14  C         24.1470  -45.0550  143.1210 C.2    30  VAL30       0.2616
     15  O         23.9200  -45.5240  144.2500 O.2    30  VAL30      -0.2715
     16  CB        26.4240  -43.9060  143.2930 C.3    30  VAL30       0.0290
     17  CG1       25.7080  -42.5650  143.2910 C.3    30  VAL30       0.0023
     18  CG2       26.8040  -44.3160  144.6970 C.3    30  VAL30       0.0023
     19  N         23.1670  -44.6040  142.3340 N.am   31  PHE31      -0.1974
     20  CA        21.7630  -44.6280  142.7290 C.3    31  PHE31       0.1639
     21  C         20.9540  -45.6950  141.9930 C.2    31  PHE31       0.2290
     22  O         19.7240  -45.7230  142.1260 O.2    31  PHE31      -0.2864
     23  CB        21.1280  -43.2490  142.5140 C.3    31  PHE31       0.0560
     24  CG        21.9080  -42.1120  143.1290 C.ar   31  PHE31      -0.0200
     25  CD1       22.1890  -42.0980  144.4880 C.ar   31  PHE31      -0.0042
     26  CD2       22.3700  -41.0660  142.3380 C.ar   31  PHE31      -0.0042
     27  CE1       22.9260  -41.0540  145.0520 C.ar   31  PHE31      -0.0003
     28  CE2       23.0900  -40.0110  142.8810 C.ar   31  PHE31      -0.0003
     29  CZ        23.3660  -39.9990  144.2560 C.ar   31  PHE31      -0.0000
     30  N         21.0540  -49.1360  142.2090 N.3    33  LYS33      -0.1231
     31  CA        20.8070  -50.3690  142.9240 C.3    33  LYS33       0.1678
     32  C         20.7190  -50.0920  144.4180 C.2    33  LYS33       0.2434
     33  O         21.3360  -49.1360  144.9110 O.2    33  LYS33      -0.2733
     34  CB        21.9230  -51.4020  142.6800 C.3    33  LYS33       0.0284
     35  CG        21.9960  -51.9500  141.2480 C.3    33  LYS33       0.0035
     36  CD        20.7190  -52.6950  140.8860 C.3    33  LYS33       0.0206
     37  CE        20.7630  -53.2040  139.4440 C.3    33  LYS33       0.1093
     38  NZ        19.3960  -53.5100  138.9220 N.3    33  LYS33      -0.1314
     39  N         19.9870  -50.9130  145.1690 N.am   34  PRO34      -0.2718
     40  CA        19.9130  -50.7170  146.6230 C.3    34  PRO34       0.1535
     41  C         21.2660  -50.9020  147.2910 C.2    34  PRO34       0.2598
     42  O         22.1060  -51.6900  146.8490 O.2    34  PRO34      -0.2715
     43  CB        18.9320  -51.8030  147.0900 C.3    34  PRO34       0.0310
     44  CG        18.2300  -52.2610  145.8630 C.3    34  PRO34       0.0237
     45  CD        19.2020  -52.0860  144.7370 C.3    34  PRO34       0.0939
     46  N         21.4640  -50.1740  148.3940 N.am   35  VAL35      -0.1964
     47  CA        22.6500  -50.4000  149.2090 C.3    35  VAL35       0.1727
     48  C         22.5620  -51.7760  149.8530 C.2    35  VAL35       0.2616
     49  O         21.5110  -52.1730  150.3690 O.2    35  VAL35      -0.2715
     50  CB        22.7990  -49.2930  150.2640 C.3    35  VAL35       0.0290
     51  CG1       24.0180  -49.5740  151.1410 C.3    35  VAL35       0.0023
     52  CG2       22.9350  -47.9360  149.5820 C.3    35  VAL35       0.0023
     53  N         23.6670  -52.5160  149.8180 N.am   36  ASP36      -0.1971
     54  CA        23.7030  -53.8260  150.4560 C.3    36  ASP36       0.1709
     55  C         23.9830  -53.6520  151.9470 C.2    36  ASP36       0.2293
     56  O         25.1040  -53.2910  152.3240 O.2    36  ASP36      -0.2864
     57  CB        24.7640  -54.7150  149.7990 C.3    36  ASP36       0.1436
     58  CG        24.7490  -56.1460  150.3250 C.2    36  ASP36       0.3671
     59  OD1       25.3260  -57.0270  149.6530 O.co2  36  ASP36      -0.2456
     60  OD2       24.1730  -56.3980  151.4060 O.co2  36  ASP36      -0.2456
     61  N         27.2960  -55.2340  153.1000 N.3    39  GLU39      -0.1231
     62  CA        28.5430  -54.5800  152.7190 C.3    39  GLU39       0.1699
     63  C         28.6610  -53.1700  153.2840 C.2    39  GLU39       0.2592
     64  O         29.7730  -52.6310  153.3410 O.2    39  GLU39      -0.2718
     65  CB        28.6680  -54.5440  151.1940 C.3    39  GLU39       0.0402
     66  CG        28.6910  -55.9500  150.5940 C.3    39  GLU39       0.1161
     67  CD        30.1330  -56.4120  150.5160 C.2    39  GLU39       0.3649
     68  OE1       31.0830  -55.6880  150.9020 O.co2  39  GLU39      -0.2457
     69  OE2       30.3440  -57.5570  150.1030 O.co2  39  GLU39      -0.2457
     70  N         27.5500  -52.5620  153.6920 N.am   40  VAL40      -0.1980
     71  CA        27.5490  -51.2010  154.2260 C.3    40  VAL40       0.1595
     72  C         26.7840  -51.2130  155.5430 C.2    40  VAL40       0.2287
     73  O         25.6330  -50.7550  155.5990 O.2    40  VAL40      -0.2864
     74  CB        26.9300  -50.1990  153.2370 C.3    40  VAL40       0.0276
     75  CG1       27.1400  -48.7720  153.7330 C.3    40  VAL40       0.0022
     76  CG2       27.5250  -50.3790  151.8470 C.3    40  VAL40       0.0022
     77  N         24.7010  -48.1160  156.9900 N.3    43  TYR43      -0.1241
     78  CA        23.7180  -47.3940  156.1860 C.3    43  TYR43       0.1605
     79  C         22.3590  -47.3570  156.8780 C.2    43  TYR43       0.2264
     80  O         21.7280  -46.2990  156.9510 O.2    43  TYR43      -0.2867
     81  CB        23.6010  -48.0170  154.7930 C.3    43  TYR43       0.0534
     82  CG        22.8140  -47.1590  153.8320 C.ar   43  TYR43      -0.0201
     83  CD1       23.3620  -45.9910  153.3140 C.ar   43  TYR43      -0.0009
     84  CD2       21.5270  -47.5180  153.4390 C.ar   43  TYR43      -0.0009
     85  CE1       22.6590  -45.2030  152.4260 C.ar   43  TYR43       0.0417
     86  CE2       20.8060  -46.7340  152.5510 C.ar   43  TYR43       0.0417
     87  CZ        21.3780  -45.5790  152.0480 C.ar   43  TYR43       0.1957
     88  OH        20.6670  -44.7980  151.1740 O.3    43  TYR43      -0.2866
     89  N         20.7660  -39.5490  150.1320 N.3    82  ALA82      -0.1245
     90  CA        22.1800  -39.4210  149.8080 C.3    82  ALA82       0.1562
     91  C         22.8040  -38.2450  150.5510 C.2    82  ALA82       0.2260
     92  O         23.9340  -38.3450  151.0360 O.2    82  ALA82      -0.2867
     93  CB        22.3630  -39.2680  148.2940 C.3    82  ALA82       0.0290
     94  N         23.3310  -39.4030  154.2790 N.3    85  TYR85      -0.1227
     95  CA        24.4150  -40.3570  154.4680 C.3    85  TYR85       0.1736
     96  C         25.7740  -39.7880  154.0700 C.2    85  TYR85       0.2595
     97  O         26.8040  -40.3710  154.4300 O.2    85  TYR85      -0.2718
     98  CB        24.1260  -41.6420  153.6780 C.3    85  TYR85       0.0548
     99  CG        25.1080  -42.7570  153.9400 C.ar   85  TYR85      -0.0200
    100  CD1       25.2140  -43.3490  155.2000 C.ar   85  TYR85      -0.0009
    101  CD2       25.9570  -43.2040  152.9400 C.ar   85  TYR85      -0.0009
    102  CE1       26.1290  -44.3690  155.4360 C.ar   85  TYR85       0.0417
    103  CE2       26.8630  -44.2200  153.1680 C.ar   85  TYR85       0.0417
    104  CZ        26.9530  -44.7980  154.4180 C.ar   85  TYR85       0.1957
    105  OH        27.8680  -45.8110  154.6300 O.3    85  TYR85      -0.2866
    106  N         25.8060  -38.6650  153.3430 N.am   86  ASN86      -0.1974
    107  CA        27.0520  -38.0340  152.9040 C.3    86  ASN86       0.1688
    108  C         27.0980  -36.5780  153.3630 C.2    86  ASN86       0.2292
    109  O         27.1570  -35.6560  152.5410 O.2    86  ASN86      -0.2864
    110  CB        27.1920  -38.1380  151.3850 C.3    86  ASN86       0.1181
    111  CG        27.3230  -39.5660  150.9330 C.2    86  ASN86       0.2629
    112  OD1       28.4090  -40.1330  150.9760 O.2    86  ASN86      -0.2716
    113  ND2       26.2090  -40.1740  150.5250 N.am   86  ASN86      -0.0877
    114  N         29.4510  -34.9530  155.2860 N.3    88  ASP88      -0.1239
    115  CA        30.7430  -34.4490  155.7390 C.3    88  ASP88       0.1674
    116  C         31.4930  -33.7630  154.6000 C.2    88  ASP88       0.2266
    117  O         31.1040  -33.8370  153.4310 O.2    88  ASP88      -0.2867
    118  CB        31.5930  -35.5820  156.3090 C.3    88  ASP88       0.1410
    119  CG        30.8180  -36.4680  157.2650 C.2    88  ASP88       0.3668
    120  OD1       30.1600  -35.9100  158.1750 O.co2  88  ASP88      -0.2456
    121  OD2       30.8730  -37.7130  157.1080 O.co2  88  ASP88      -0.2456
    122  N         34.4070  -34.5050  153.3910 N.3    90  ASP90      -0.1239
    123  CA        35.3750  -35.2930  152.6460 C.3    90  ASP90       0.1674
    124  C         34.9200  -35.4680  151.1890 C.2    90  ASP90       0.2266
    125  O         33.7250  -35.4290  150.8910 O.2    90  ASP90      -0.2867
    126  CB        35.6110  -36.6400  153.3180 C.3    90  ASP90       0.1410
    127  CG        34.6190  -37.6890  152.9110 C.2    90  ASP90       0.3668
    128  OD1       34.8880  -38.4440  151.9420 O.co2  90  ASP90      -0.2456
    129  OD2       33.5740  -37.7740  153.5860 O.co2  90  ASP90      -0.2456
    130  N         34.6350  -37.8330  148.9660 N.3    92  GLY92      -0.1210
    131  CA        33.6670  -38.8670  148.6170 C.3    92  GLY92       0.1956
    132  C         32.2470  -38.4260  148.8960 C.2    92  GLY92       0.2611
    133  O         31.3530  -38.5800  148.0560 O.2    92  GLY92      -0.2717
    134  N         32.0160  -37.8510  150.0820 N.am   93  ASP93      -0.1973
    135  CA        30.7110  -37.2940  150.4110 C.3    93  ASP93       0.1709
    136  C         30.3140  -36.1910  149.4390 C.2    93  ASP93       0.2293
    137  O         29.1650  -36.1350  148.9850 O.2    93  ASP93      -0.2864
    138  CB        30.7120  -36.7340  151.8400 C.3    93  ASP93       0.1436
    139  CG        30.7150  -37.8140  152.8970 C.2    93  ASP93       0.3671
    140  OD1       31.2650  -38.9030  152.6450 O.co2  93  ASP93      -0.2456
    141  OD2       30.1430  -37.5720  153.9810 O.co2  93  ASP93      -0.2456
    142  N         29.1750  -37.5340  146.0030 N.3    96  ILE96      -0.1245
    143  CA        27.8390  -38.1350  146.0040 C.3    96  ILE96       0.1561
    144  C         26.7650  -37.0580  146.1200 C.2    96  ILE96       0.2260
    145  O         25.7450  -37.1140  145.4220 O.2    96  ILE96      -0.2867
    146  CB        27.7010  -39.1820  147.1310 C.3    96  ILE96       0.0252
    147  CG1       28.7470  -40.2950  147.0110 C.3    96  ILE96       0.0019
    148  CG2       26.2750  -39.7720  147.1500 C.3    96  ILE96       0.0019
    149  CD1       28.6520  -41.1230  145.7670 C.3    96  ILE96       0.0001
@<TRIPOS>BOND
     1     6     5    1
     2     6     7    1
     3     5     2    1
     4     1     2    1
     5     2     3    1
     6    38    37    1
     7     7     8    1
     8    37    36    1
     9     8     9    2
    10     3     4    2
    11     3    12   am
    12    11     9    1
    13     9    10    1
    14    36    35    1
    15    12    13    1
    16    35    34    1
    17    21    22    2
    18    21    20    1
    19    30    31    1
    20    19    20    1
    21    19    14   am
    22    26    28   ar
    23    26    24   ar
    24    23    20    1
    25    23    24    1
    26    13    14    1
    27    13    16    1
    28    34    31    1
    29    28    29   ar
    30    31    32    1
    31    14    15    2
    32    24    25   ar
    33    17    16    1
    34    16    18    1
    35    29    27   ar
    36    32    33    2
    37    32    39   am
    38    25    27   ar
    39    45    39    1
    40    45    44    1
    41    39    40    1
    42   145   144    2
    43   149   147    1
    44    44    43    1
    45   142   143    1
    46   143   144    1
    47   143   146    1
    48    40    43    1
    49    40    41    1
    50    42    41    2
    51   147   146    1
    52   146   148    1
    53    41    46   am
    54   133   132    2
    55    93    90    1
    56    46    47    1
    57   131   132    1
    58   131   130    1
    59   132   134   am
    60   137   136    2
    61    47    48    1
    62    47    50    1
    63   136   135    1
    64    52    50    1
    65    59    58   ar
    66    57    58    1
    67    57    54    1
    68    90    89    1
    69    90    91    1
    70    53    48   am
    71    53    54    1
    72    48    49    2
    73   134   135    1
    74    69    67   ar
    75    50    51    1
    76    58    60   ar
    77   135   138    1
    78    54    55    1
    79    67    66    1
    80    67    68   ar
    81   113   111   am
    82    91    92    2
    83    66    65    1
    84   125   124    2
    85   111   112    2
    86   111   110    1
    87    88    87    1
    88   124   123    1
    89    65    62    1
    90   110   107    1
    91   138   139    1
    92    76    74    1
    93   128   127   ar
    94    55    56    2
    95    87    85   ar
    96    87    86   ar
    97    85    83   ar
    98   109   108    2
    99    86    84   ar
   100   140   139   ar
   101   123   126    1
   102   123   122    1
   103    62    61    1
   104    62    63    1
   105   139   141   ar
   106   107   106    1
   107   107   108    1
   108   127   126    1
   109   127   129   ar
   110   101   103   ar
   111   101    99   ar
   112   103   104   ar
   113    74    75    1
   114    74    71    1
   115    63    64    2
   116    63    70   am
   117    83    82   ar
   118   106    96   am
   119   117   116    2
   120    84    82   ar
   121    98    99    1
   122    98    95    1
   123    70    71    1
   124    82    81    1
   125    99   100   ar
   126    96    97    2
   127    96    95    1
   128    71    72    1
   129    94    95    1
   130   104   105    1
   131   104   102   ar
   132   116   115    1
   133    81    78    1
   134   100   102   ar
   135   114   115    1
   136    72    73    2
   137   115   118    1
   138    78    79    1
   139    78    77    1
   140   118   119    1
   141    79    80    2
   142   121   119   ar
   143   119   120   ar
