@<TRIPOS>MOLECULE
tmp/6hidA00.pdb
 156 151 0 0 0
SMALL
GASTEIGER

@<TRIPOS>ATOM
      1  N         25.0670  -44.2250  138.3410 N.3    29  ARG29      -0.1231
      2  CA        25.1990  -45.6730  138.5020 C.3    29  ARG29       0.1694
      3  C         25.0420  -46.0990  139.9550 C.2    29  ARG29       0.2592
      4  O         24.4970  -47.1710  140.2360 O.2    29  ARG29      -0.2718
      5  CB        26.5550  -46.1340  137.9470 C.3    29  ARG29       0.0321
      6  CG        26.9390  -47.5790  138.3120 C.3    29  ARG29       0.0489
      7  CD        28.3000  -47.9940  137.7090 C.3    29  ARG29       0.2205
      8  NE        29.2900  -47.0010  137.9910 N.pl3  29  ARG29      -0.0865
      9  CZ        29.7180  -46.0470  137.1270 C.cat  29  ARG29       0.5346
     10  NH1       29.3600  -46.0120  135.8760 N.pl3  29  ARG29       0.1354
     11  NH2       30.5740  -45.2070  137.6260 N.pl3  29  ARG29       0.1354
     12  N         25.4850  -45.2610  140.8890 N.am   30  VAL30      -0.1966
     13  CA        25.4180  -45.5920  142.3040 C.3    30  VAL30       0.1727
     14  C         23.9740  -45.6660  142.8060 C.2    30  VAL30       0.2616
     15  O         23.7010  -46.3000  143.8350 O.2    30  VAL30      -0.2715
     16  CB        26.2650  -44.5590  143.0740 C.3    30  VAL30       0.0290
     17  CG1       25.5370  -43.2410  143.2430 C.3    30  VAL30       0.0023
     18  CG2       26.6620  -45.0990  144.3780 C.3    30  VAL30       0.0023
     19  N         23.0360  -45.0710  142.0750 N.am   31  PHE31      -0.1960
     20  CA        21.6350  -45.0510  142.4650 C.3    31  PHE31       0.1771
     21  C         20.7780  -46.0510  141.6940 C.2    31  PHE31       0.2620
     22  O         19.5540  -46.0170  141.8290 O.2    31  PHE31      -0.2715
     23  CB        21.0650  -43.6450  142.2740 C.3    31  PHE31       0.0574
     24  CG        21.9020  -42.5550  142.8930 C.ar   31  PHE31      -0.0200
     25  CD1       22.1440  -42.5340  144.2590 C.ar   31  PHE31      -0.0042
     26  CD2       22.4250  -41.5430  142.1060 C.ar   31  PHE31      -0.0042
     27  CE1       22.9100  -41.5230  144.8320 C.ar   31  PHE31      -0.0003
     28  CE2       23.2030  -40.5320  142.6660 C.ar   31  PHE31      -0.0003
     29  CZ        23.4390  -40.5210  144.0340 C.ar   31  PHE31      -0.0000
     30  N         21.3750  -46.9320  140.8880 N.am   32  THR32      -0.1937
     31  CA        20.5610  -47.7410  139.9840 C.3    32  THR32       0.2028
     32  C         19.9790  -48.9830  140.6420 C.2    32  THR32       0.2642
     33  O         18.9590  -49.4900  140.1630 O.2    32  THR32      -0.2714
     34  CB        21.3600  -48.1790  138.7530 C.3    32  THR32       0.1808
     35  OG1       22.5750  -48.8210  139.1660 O.3    32  THR32      -0.2208
     36  CG2       21.6690  -46.9800  137.8550 C.3    32  THR32       0.0379
     37  N         20.5970  -49.4860  141.7000 N.am   33  LYS33      -0.1963
     38  CA        20.2100  -50.7220  142.3640 C.3    33  LYS33       0.1713
     39  C         20.1970  -50.4950  143.8680 C.2    33  LYS33       0.2458
     40  O         20.8200  -49.5520  144.3660 O.2    33  LYS33      -0.2730
     41  CB        21.1800  -51.8630  142.0190 C.3    33  LYS33       0.0311
     42  CG        21.0340  -52.4240  140.6160 C.3    33  LYS33       0.0038
     43  CD        19.6200  -52.9270  140.3180 C.3    33  LYS33       0.0206
     44  CE        19.3110  -54.2440  141.0210 C.3    33  LYS33       0.1093
     45  NZ        17.9600  -54.7110  140.5910 N.3    33  LYS33      -0.1314
     46  N         19.4930  -51.3410  144.6240 N.am   34  PRO34      -0.2716
     47  CA        19.5410  -51.2140  146.0860 C.3    34  PRO34       0.1536
     48  C         20.9460  -51.4750  146.6110 C.2    34  PRO34       0.2598
     49  O         21.7500  -52.1680  145.9850 O.2    34  PRO34      -0.2715
     50  CB        18.5560  -52.2860  146.5750 C.3    34  PRO34       0.0310
     51  CG        17.6960  -52.6000  145.3960 C.3    34  PRO34       0.0237
     52  CD        18.5790  -52.4140  144.1940 C.3    34  PRO34       0.0939
     53  N         21.2370  -50.8910  147.7730 N.am   35  VAL35      -0.1964
     54  CA        22.5230  -51.0950  148.4280 C.3    35  VAL35       0.1727
     55  C         22.6570  -52.5530  148.8420 C.2    35  VAL35       0.2616
     56  O         21.7670  -53.1160  149.4930 O.2    35  VAL35      -0.2715
     57  CB        22.6600  -50.1620  149.6400 C.3    35  VAL35       0.0290
     58  CG1       23.9360  -50.4730  150.4130 C.3    35  VAL35       0.0023
     59  CG2       22.6240  -48.7050  149.2000 C.3    35  VAL35       0.0023
     60  N         23.7700  -53.1700  148.4660 N.am   36  ASP36      -0.1971
     61  CA        24.0220  -54.5660  148.8110 C.3    36  ASP36       0.1709
     62  C         24.3580  -54.6820  150.2930 C.2    36  ASP36       0.2293
     63  O         25.3200  -54.0510  150.7500 O.2    36  ASP36      -0.2864
     64  CB        25.1600  -55.1150  147.9510 C.3    36  ASP36       0.1436
     65  CG        25.6800  -56.4490  148.4490 C.2    36  ASP36       0.3671
     66  OD1       24.8540  -57.3410  148.7430 O.co2  36  ASP36      -0.2456
     67  OD2       26.9170  -56.6070  148.5350 O.co2  36  ASP36      -0.2456
     68  N         27.9660  -55.7610  151.1790 N.3    39  GLU39      -0.1231
     69  CA        28.9920  -54.7530  150.9490 C.3    39  GLU39       0.1699
     70  C         28.9220  -53.6310  151.9800 C.2    39  GLU39       0.2592
     71  O         29.9560  -53.2290  152.5240 O.2    39  GLU39      -0.2718
     72  CB        28.8710  -54.1800  149.5340 C.3    39  GLU39       0.0402
     73  CG        29.8990  -53.1440  149.1970 C.3    39  GLU39       0.1161
     74  CD        29.8930  -52.6440  147.7860 C.2    39  GLU39       0.3649
     75  OE1       29.0330  -53.0160  147.0160 O.co2  39  GLU39      -0.2457
     76  OE2       30.6460  -51.7340  147.4040 O.co2  39  GLU39      -0.2457
     77  N         27.7250  -53.1220  152.2640 N.am   40  VAL40      -0.1980
     78  CA        27.5420  -52.0520  153.2430 C.3    40  VAL40       0.1595
     79  C         26.4860  -52.4810  154.2570 C.2    40  VAL40       0.2287
     80  O         25.2990  -52.1830  154.0670 O.2    40  VAL40      -0.2864
     81  CB        27.1470  -50.7300  152.5640 C.3    40  VAL40       0.0276
     82  CG1       27.2900  -49.5790  153.5370 C.3    40  VAL40       0.0022
     83  CG2       28.0030  -50.4810  151.3270 C.3    40  VAL40       0.0022
     84  N         24.3920  -49.4630  156.0370 N.3    43  TYR43      -0.1241
     85  CA        23.4350  -48.6280  155.3120 C.3    43  TYR43       0.1605
     86  C         22.0200  -48.8690  155.8150 C.2    43  TYR43       0.2264
     87  O         21.2910  -47.9200  156.1300 O.2    43  TYR43      -0.2867
     88  CB        23.5180  -48.8960  153.8080 C.3    43  TYR43       0.0534
     89  CG        22.7440  -47.8990  152.9630 C.ar   43  TYR43      -0.0201
     90  CD1       23.3130  -46.6840  152.5960 C.ar   43  TYR43      -0.0009
     91  CD2       21.4430  -48.1670  152.5420 C.ar   43  TYR43      -0.0009
     92  CE1       22.6160  -45.7680  151.8240 C.ar   43  TYR43       0.0417
     93  CE2       20.7340  -47.2530  151.7700 C.ar   43  TYR43       0.0417
     94  CZ        21.3270  -46.0580  151.4140 C.ar   43  TYR43       0.1957
     95  OH        20.6460  -45.1350  150.6500 O.3    43  TYR43      -0.2866
     96  N         20.8430  -39.9460  149.9710 N.3    82  ALA82      -0.1245
     97  CA        22.2730  -39.8380  149.6750 C.3    82  ALA82       0.1562
     98  C         22.9230  -38.7030  150.4600 C.2    82  ALA82       0.2260
     99  O         24.0560  -38.8480  150.9380 O.2    82  ALA82      -0.2867
    100  CB        22.4780  -39.6430  148.1740 C.3    82  ALA82       0.0290
    101  N         23.2870  -39.9120  154.0850 N.3    85  TYR85      -0.1227
    102  CA        24.3560  -40.8820  154.2580 C.3    85  TYR85       0.1736
    103  C         25.7450  -40.3000  154.0100 C.2    85  TYR85       0.2595
    104  O         26.7350  -40.9460  154.3820 O.2    85  TYR85      -0.2718
    105  CB        24.1280  -42.0720  153.3300 C.3    85  TYR85       0.0548
    106  CG        24.9490  -43.2860  153.6740 C.ar   85  TYR85      -0.0200
    107  CD1       24.7150  -43.9950  154.8440 C.ar   85  TYR85      -0.0009
    108  CD2       25.9540  -43.7310  152.8220 C.ar   85  TYR85      -0.0009
    109  CE1       25.4620  -45.1100  155.1610 C.ar   85  TYR85       0.0417
    110  CE2       26.7080  -44.8460  153.1310 C.ar   85  TYR85       0.0417
    111  CZ        26.4540  -45.5310  154.3030 C.ar   85  TYR85       0.1957
    112  OH        27.1980  -46.6410  154.6180 O.3    85  TYR85      -0.2866
    113  N         25.8450  -39.1120  153.4070 N.am   86  ASN86      -0.1974
    114  CA        27.1270  -38.5220  152.9980 C.3    86  ASN86       0.1688
    115  C         27.2400  -37.0800  153.4740 C.2    86  ASN86       0.2292
    116  O         27.2970  -36.1490  152.6610 O.2    86  ASN86      -0.2864
    117  CB        27.2890  -38.5840  151.4770 C.3    86  ASN86       0.1181
    118  CG        27.5090  -39.9850  150.9740 C.2    86  ASN86       0.2629
    119  OD1       28.6280  -40.4840  150.9890 O.2    86  ASN86      -0.2716
    120  ND2       26.4350  -40.6410  150.5210 N.am   86  ASN86      -0.0877
    121  N         29.8110  -35.6640  155.3330 N.3    88  ASP88      -0.1239
    122  CA        31.1820  -35.2220  155.5920 C.3    88  ASP88       0.1674
    123  C         31.7000  -34.3120  154.4750 C.2    88  ASP88       0.2266
    124  O         31.1700  -34.2920  153.3580 O.2    88  ASP88      -0.2867
    125  CB        32.1130  -36.4310  155.7380 C.3    88  ASP88       0.1410
    126  CG        31.6380  -37.4240  156.7910 C.2    88  ASP88       0.3668
    127  OD1       30.9610  -36.9960  157.7500 O.co2  88  ASP88      -0.2456
    128  OD2       31.9500  -38.6320  156.6680 O.co2  88  ASP88      -0.2456
    129  N         34.5500  -34.7780  153.1720 N.3    90  ASP90      -0.1239
    130  CA        35.4280  -35.6620  152.4220 C.3    90  ASP90       0.1674
    131  C         35.0140  -35.7110  150.9450 C.2    90  ASP90       0.2266
    132  O         33.8170  -35.6600  150.6360 O.2    90  ASP90      -0.2867
    133  CB        35.3480  -37.0440  153.0720 C.3    90  ASP90       0.1410
    134  CG        35.7070  -38.1760  152.1440 C.2    90  ASP90       0.3668
    135  OD1       36.7530  -38.1240  151.4640 O.co2  90  ASP90      -0.2456
    136  OD2       34.9150  -39.1350  152.0690 O.co2  90  ASP90      -0.2456
    137  N         34.8490  -38.1250  148.7710 N.3    92  GLY92      -0.1210
    138  CA        33.9300  -39.2150  148.4640 C.3    92  GLY92       0.1956
    139  C         32.4850  -38.8610  148.7740 C.2    92  GLY92       0.2611
    140  O         31.5830  -39.1280  147.9730 O.2    92  GLY92      -0.2717
    141  N         32.2520  -38.2430  149.9350 N.am   93  ASP93      -0.1973
    142  CA        30.9300  -37.7250  150.2780 C.3    93  ASP93       0.1709
    143  C         30.5010  -36.6200  149.3220 C.2    93  ASP93       0.2293
    144  O         29.3410  -36.5760  148.8940 O.2    93  ASP93      -0.2864
    145  CB        30.9230  -37.1790  151.7110 C.3    93  ASP93       0.1436
    146  CG        30.8690  -38.2680  152.7620 C.2    93  ASP93       0.3671
    147  OD1       31.5000  -39.3270  152.5690 O.co2  93  ASP93      -0.2456
    148  OD2       30.1800  -38.0620  153.7870 O.co2  93  ASP93      -0.2456
    149  N         29.2850  -37.9960  145.8700 N.3    96  ILE96      -0.1245
    150  CA        27.9510  -38.6000  145.8830 C.3    96  ILE96       0.1561
    151  C         26.8800  -37.5250  146.0210 C.2    96  ILE96       0.2260
    152  O         25.8470  -37.5680  145.3340 O.2    96  ILE96      -0.2867
    153  CB        27.8330  -39.6660  146.9900 C.3    96  ILE96       0.0252
    154  CG1       28.9000  -40.7460  146.8240 C.3    96  ILE96       0.0019
    155  CG2       26.4250  -40.3080  146.9680 C.3    96  ILE96       0.0019
    156  CD1       28.9510  -41.3600  145.4420 C.3    96  ILE96       0.0001
@<TRIPOS>BOND
     1    10     9    1
     2     9    11    1
     3     9     8    2
     4     7     8    1
     5     7     6    1
     6    36    34    1
     7     5     6    1
     8     5     2    1
     9     1     2    1
    10     2     3    1
    11    34    35    1
    12    34    31    1
    13     3     4    2
    14     3    12   am
    15    31    32    1
    16    31    30    1
    17    33    32    2
    18    43    42    1
    19    43    44    1
    20    45    44    1
    21    42    41    1
    22    32    37   am
    23    30    21   am
    24    12    13    1
    25    21    22    2
    26    21    20    1
    27    37    38    1
    28    41    38    1
    29    19    20    1
    30    19    14   am
    31    26    28   ar
    32    26    24   ar
    33    23    20    1
    34    23    24    1
    35    13    14    1
    36    13    16    1
    37    38    39    1
    38    28    29   ar
    39    14    15    2
    40    24    25   ar
    41    16    17    1
    42    16    18    1
    43    39    40    2
    44    39    46   am
    45    29    27   ar
    46    52    46    1
    47    52    51    1
    48    25    27   ar
    49    46    47    1
    50   152   151    2
    51    51    50    1
    52   156   154    1
    53   149   150    1
    54   150   151    1
    55   150   153    1
    56    49    48    2
    57    47    50    1
    58    47    48    1
    59    48    53   am
    60   154   153    1
    61   155   153    1
    62    75    74   ar
    63    76    74   ar
    64    53    54    1
    65    74    73    1
    66    64    65    1
    67    64    61    1
    68   140   139    2
    69   100    97    1
    70    54    55    1
    71    54    57    1
    72    65    67   ar
    73    65    66   ar
    74   138   137    1
    75   138   139    1
    76    60    61    1
    77    60    55   am
    78   139   141   am
    79    61    62    1
    80    55    56    2
    81   144   143    2
    82    73    72    1
    83    59    57    1
    84   143   142    1
    85    72    69    1
    86    57    58    1
    87    97    96    1
    88    97    98    1
    89   141   142    1
    90   142   145    1
    91    62    63    2
    92    98    99    2
    93   120   118   am
    94   132   131    2
    95    95    94    1
    96   131   130    1
    97    69    68    1
    98    69    70    1
    99   118   119    2
   100   118   117    1
   101    83    81    1
   102    94    93   ar
   103    94    92   ar
   104   135   134   ar
   105   117   114    1
   106   145   146    1
   107    93    91   ar
   108    92    90   ar
   109    70    77   am
   110    70    71    2
   111   136   134   ar
   112   134   133    1
   113    77    78    1
   114   130   133    1
   115   130   129    1
   116    91    89   ar
   117    81    78    1
   118    81    82    1
   119   147   146   ar
   120    90    89   ar
   121   116   115    2
   122   146   148   ar
   123   108   110   ar
   124   108   106   ar
   125    89    88    1
   126   114   113    1
   127   114   115    1
   128   110   111   ar
   129    78    79    1
   130   105   106    1
   131   105   102    1
   132   124   123    2
   133   113   103   am
   134   106   107   ar
   135    88    85    1
   136   103   102    1
   137   103   104    2
   138    80    79    2
   139   101   102    1
   140   111   112    1
   141   111   109   ar
   142   123   122    1
   143   107   109   ar
   144    85    86    1
   145    85    84    1
   146   121   122    1
   147   122   125    1
   148   125   126    1
   149    86    87    2
   150   128   126   ar
   151   126   127   ar
