@<TRIPOS>MOLECULE
tmp/6hieA00.pdb
 124 116 0 0 0
SMALL
GASTEIGER

@<TRIPOS>ATOM
      1  N        -25.6420   45.0980    3.0080 N.3    30  VAL30      -0.1231
      2  CA       -25.5420   45.4290    4.4220 C.3    30  VAL30       0.1692
      3  C        -24.0820   45.5070    4.8850 C.2    30  VAL30       0.2592
      4  O        -23.7820   46.1330    5.9120 O.2    30  VAL30      -0.2718
      5  CB       -26.3650   44.4040    5.2260 C.3    30  VAL30       0.0266
      6  CG1      -25.7780   42.9930    5.1000 C.3    30  VAL30       0.0020
      7  CG2      -26.5060   44.8280    6.6800 C.3    30  VAL30       0.0020
      8  N        -23.1560   44.9100    4.1360 N.am   31  PHE31      -0.1976
      9  CA       -21.7490   44.9000    4.5210 C.3    31  PHE31       0.1639
     10  C        -20.9230   45.9700    3.8230 C.2    31  PHE31       0.2290
     11  O        -19.7050   46.0150    4.0270 O.2    31  PHE31      -0.2864
     12  CB       -21.1360   43.5210    4.2540 C.3    31  PHE31       0.0560
     13  CG       -21.9350   42.3840    4.8270 C.ar   31  PHE31      -0.0200
     14  CD1      -22.1780   42.3170    6.1920 C.ar   31  PHE31      -0.0042
     15  CD2      -22.4500   41.3940    4.0010 C.ar   31  PHE31      -0.0042
     16  CE1      -22.9160   41.2850    6.7340 C.ar   31  PHE31      -0.0003
     17  CE2      -23.1930   40.3400    4.5260 C.ar   31  PHE31      -0.0003
     18  CZ       -23.4340   40.2770    5.8970 C.ar   31  PHE31      -0.0000
     19  N        -21.9310   50.7510   10.0390 N.3    35  VAL35      -0.1245
     20  CA       -23.2580   50.7700   10.6470 C.3    35  VAL35       0.1561
     21  C        -23.5460   52.1470   11.2440 C.2    35  VAL35       0.2260
     22  O        -22.7800   52.6570   12.0710 O.2    35  VAL35      -0.2867
     23  CB       -23.3690   49.6780   11.7170 C.3    35  VAL35       0.0252
     24  CG1      -24.6990   49.7670   12.4320 C.3    35  VAL35       0.0019
     25  CG2      -23.1860   48.3050   11.0950 C.3    35  VAL35       0.0019
     26  N        -28.8570   51.9240   14.1460 N.3    40  VAL40      -0.1245
     27  CA       -28.5750   50.7170   14.9260 C.3    40  VAL40       0.1561
     28  C        -27.8200   51.1070   16.1930 C.2    40  VAL40       0.2260
     29  O        -26.5810   51.0690   16.2140 O.2    40  VAL40      -0.2867
     30  CB       -27.7870   49.6850   14.1010 C.3    40  VAL40       0.0252
     31  CG1      -27.6110   48.3980   14.8790 C.3    40  VAL40       0.0019
     32  CG2      -28.4810   49.4050   12.7800 C.3    40  VAL40       0.0019
     33  N        -25.1910   48.5870   18.1500 N.3    43  TYR43      -0.1241
     34  CA       -24.0920   47.9630   17.4130 C.3    43  TYR43       0.1605
     35  C        -22.7390   48.3320   18.0080 C.2    43  TYR43       0.2264
     36  O        -21.9870   47.4610   18.4670 O.2    43  TYR43      -0.2867
     37  CB       -24.1440   48.3580   15.9350 C.3    43  TYR43       0.0534
     38  CG       -23.2350   47.5080   15.0650 C.ar   43  TYR43      -0.0201
     39  CD1      -23.5780   46.2010   14.7500 C.ar   43  TYR43      -0.0009
     40  CD2      -22.0190   48.0030   14.5910 C.ar   43  TYR43      -0.0009
     41  CE1      -22.7590   45.4190   13.9680 C.ar   43  TYR43       0.0417
     42  CE2      -21.1860   47.2230   13.8110 C.ar   43  TYR43       0.0417
     43  CZ       -21.5630   45.9350   13.5100 C.ar   43  TYR43       0.1957
     44  OH       -20.7670   45.1520   12.7330 O.3    43  TYR43      -0.2866
     45  N        -20.9270   39.7790   11.9410 N.3    82  ALA82      -0.1245
     46  CA       -22.3370   39.6350   11.5950 C.3    82  ALA82       0.1562
     47  C        -22.9640   38.4690   12.3460 C.2    82  ALA82       0.2260
     48  O        -24.0860   38.5880   12.8480 O.2    82  ALA82      -0.2867
     49  CB       -22.4990   39.4640   10.0850 C.3    82  ALA82       0.0290
     50  N        -23.4070   39.5700   16.0330 N.3    85  TYR85      -0.1227
     51  CA       -24.4700   40.5350   16.2720 C.3    85  TYR85       0.1736
     52  C        -25.8650   39.9760   15.9790 C.2    85  TYR85       0.2595
     53  O        -26.8490   40.5500   16.4520 O.2    85  TYR85      -0.2718
     54  CB       -24.2340   41.7960   15.4410 C.3    85  TYR85       0.0548
     55  CG       -25.1500   42.9290   15.8080 C.ar   85  TYR85      -0.0200
     56  CD1      -25.0490   43.5480   17.0500 C.ar   85  TYR85      -0.0009
     57  CD2      -26.1240   43.3810   14.9210 C.ar   85  TYR85      -0.0009
     58  CE1      -25.8880   44.5920   17.4010 C.ar   85  TYR85       0.0417
     59  CE2      -26.9750   44.4290   15.2630 C.ar   85  TYR85       0.0417
     60  CZ       -26.8480   45.0290   16.5060 C.ar   85  TYR85       0.1957
     61  OH       -27.6750   46.0660   16.8650 O.3    85  TYR85      -0.2866
     62  N        -25.9810   38.8760   15.2290 N.am   86  ASN86      -0.1974
     63  CA       -27.2790   38.3140   14.8370 C.3    86  ASN86       0.1688
     64  C        -27.3770   36.8620   15.2720 C.2    86  ASN86       0.2292
     65  O        -27.4500   35.9520   14.4380 O.2    86  ASN86      -0.2864
     66  CB       -27.4950   38.4420   13.3260 C.3    86  ASN86       0.1181
     67  CG       -27.5180   39.8890   12.8630 C.2    86  ASN86       0.2629
     68  OD1      -28.5650   40.5210   12.8460 O.2    86  ASN86      -0.2716
     69  ND2      -26.3510   40.4240   12.4880 N.am   86  ASN86      -0.0877
     70  N        -29.9440   35.5190   17.0350 N.3    88  ASP88      -0.1239
     71  CA       -31.3030   35.1000   17.3520 C.3    88  ASP88       0.1674
     72  C        -31.8880   34.2470   16.2310 C.2    88  ASP88       0.2266
     73  O        -31.3540   34.1850   15.1180 O.2    88  ASP88      -0.2867
     74  CB       -32.1930   36.3140   17.6070 C.3    88  ASP88       0.1410
     75  CG       -31.7150   37.1560   18.7810 C.2    88  ASP88       0.3668
     76  OD1      -31.1200   36.5800   19.7190 O.co2  88  ASP88      -0.2456
     77  OD2      -31.9470   38.3860   18.7730 O.co2  88  ASP88      -0.2456
     78  N        -34.7540   34.8740   14.9140 N.3    90  ASP90      -0.1239
     79  CA       -35.5670   35.7740   14.1110 C.3    90  ASP90       0.1674
     80  C        -35.1490   35.6870   12.6400 C.2    90  ASP90       0.2266
     81  O        -33.9510   35.5460   12.3460 O.2    90  ASP90      -0.2867
     82  CB       -35.4100   37.1900   14.6870 C.3    90  ASP90       0.1410
     83  CG       -35.7110   38.3010   13.6940 C.2    90  ASP90       0.3668
     84  OD1      -34.9830   39.3040   13.7230 O.co2  90  ASP90      -0.2456
     85  OD2      -36.6920   38.2280   12.9290 O.co2  90  ASP90      -0.2456
     86  N        -34.8740   37.8940   10.3580 N.3    92  GLY92      -0.1210
     87  CA       -33.9220   38.9320    9.9930 C.3    92  GLY92       0.1956
     88  C        -32.4950   38.5500   10.3500 C.2    92  GLY92       0.2611
     89  O        -31.5650   38.7590    9.5650 O.2    92  GLY92      -0.2717
     90  N        -32.3090   37.9660   11.5370 N.am   93  ASP93      -0.1973
     91  CA       -30.9890   37.5070   11.9630 C.3    93  ASP93       0.1709
     92  C        -30.4910   36.3650   11.0910 C.2    93  ASP93       0.2293
     93  O        -29.3210   36.3460   10.6840 O.2    93  ASP93      -0.2864
     94  CB       -31.0180   37.0520   13.4250 C.3    93  ASP93       0.1436
     95  CG       -31.0650   38.2030   14.4090 C.2    93  ASP93       0.3671
     96  OD1      -31.6350   39.2680   14.0870 O.co2  93  ASP93      -0.2456
     97  OD2      -30.4940   38.0370   15.5110 O.co2  93  ASP93      -0.2456
     98  N        -31.2420   35.7390    8.1050 N.3    95  LEU95      -0.1231
     99  CA       -30.9650   36.2360    6.7650 C.3    95  LEU95       0.1693
    100  C        -29.5980   36.9120    6.7010 C.2    95  LEU95       0.2591
    101  O        -28.8400   36.7080    5.7490 O.2    95  LEU95      -0.2718
    102  CB       -32.0630   37.2040    6.3300 C.3    95  LEU95       0.0284
    103  CG       -31.8710   37.9150    4.9810 C.3    95  LEU95       0.0019
    104  CD1      -31.5770   36.9430    3.8670 C.3    95  LEU95       0.0001
    105  CD2      -33.0910   38.7700    4.6310 C.3    95  LEU95       0.0001
    106  N        -29.2730   37.7330    7.6970 N.am   96  ILE96      -0.1980
    107  CA       -27.9720   38.3950    7.6860 C.3    96  ILE96       0.1595
    108  C        -26.8490   37.3820    7.8680 C.2    96  ILE96       0.2287
    109  O        -25.8010   37.4930    7.2220 O.2    96  ILE96      -0.2864
    110  CB       -27.9170   39.5070    8.7420 C.3    96  ILE96       0.0276
    111  CG1      -28.8790   40.6140    8.3410 C.3    96  ILE96       0.0022
    112  CG2      -26.5120   40.1020    8.8150 C.3    96  ILE96       0.0022
    113  CD1      -28.8940   41.7490    9.3000 C.3    96  ILE96       0.0001
    114  N        -26.2230   35.6680    4.5450 N.3    99  ARG99      -0.1245
    115  CA       -25.4570   36.5400    3.6620 C.3    99  ARG99       0.1563
    116  C        -24.0120   36.6940    4.1300 C.2    99  ARG99       0.2260
    117  O        -23.1020   36.8180    3.3060 O.2    99  ARG99      -0.2867
    118  CB       -26.1350   37.8980    3.5820 C.3    99  ARG99       0.0307
    119  CG       -27.5160   37.8540    2.9380 C.3    99  ARG99       0.0489
    120  CD       -28.2480   39.1700    3.1270 C.3    99  ARG99       0.2205
    121  NE       -29.4110   39.2370    2.2460 N.pl3  99  ARG99      -0.0865
    122  CZ       -30.3340   40.1940    2.2930 C.cat  99  ARG99       0.5346
    123  NH1      -30.2410   41.1730    3.1860 N.pl3  99  ARG99       0.1354
    124  NH2      -31.3600   40.1590    1.4480 N.pl3  99  ARG99       0.1354
@<TRIPOS>BOND
     1   124   122    1
     2   121   122    2
     3   121   120    1
     4   122   123    1
     5   119   120    1
     6   119   118    1
     7     1     2    1
     8   117   116    2
     9   118   115    1
    10   115   116    1
    11   115   114    1
    12    10    11    2
    13    10     9    1
    14   104   103    1
    15    15    17   ar
    16    15    13   ar
    17     8     9    1
    18     8     3   am
    19    12     9    1
    20    12    13    1
    21     2     3    1
    22     2     5    1
    23    17    18   ar
    24   105   103    1
    25    13    14   ar
    26     3     4    2
    27   103   102    1
    28     6     5    1
    29     5     7    1
    30   101   100    2
    31    18    16   ar
    32    14    16   ar
    33   102    99    1
    34   100    99    1
    35   100   106   am
    36    99    98    1
    37   109   108    2
    38   107   106    1
    39   107   108    1
    40   107   110    1
    41   111   110    1
    42   111   113    1
    43   110   112    1
    44    89    88    2
    45    87    88    1
    46    87    86    1
    47    19    20    1
    48    49    46    1
    49    88    90   am
    50    20    21    1
    51    20    23    1
    52    93    92    2
    53    92    91    1
    54    25    23    1
    55    21    22    2
    56    90    91    1
    57    46    45    1
    58    46    47    1
    59    23    24    1
    60    91    94    1
    61    47    48    2
    62    81    80    2
    63    69    67   am
    64    80    79    1
    65    44    43    1
    66    32    30    1
    67    68    67    2
    68    67    66    1
    69    85    83   ar
    70    66    63    1
    71    94    95    1
    72    43    42   ar
    73    43    41   ar
    74    83    84   ar
    75    83    82    1
    76    42    40   ar
    77    41    39   ar
    78    96    95   ar
    79    30    31    1
    80    30    27    1
    81    79    82    1
    82    79    78    1
    83    26    27    1
    84    95    97   ar
    85    65    64    2
    86    40    38   ar
    87    39    38   ar
    88    63    62    1
    89    63    64    1
    90    57    59   ar
    91    57    55   ar
    92    27    28    1
    93    38    37    1
    94    73    72    2
    95    62    52   am
    96    59    60   ar
    97    54    55    1
    98    54    51    1
    99    55    56   ar
   100    37    34    1
   101    52    51    1
   102    52    53    2
   103    50    51    1
   104    28    29    2
   105    72    71    1
   106    60    61    1
   107    60    58   ar
   108    70    71    1
   109    56    58   ar
   110    71    74    1
   111    34    35    1
   112    34    33    1
   113    74    75    1
   114    35    36    2
   115    77    75   ar
   116    75    76   ar
