@<TRIPOS>MOLECULE
tmp/6hijA05.pdb
 111 105 0 0 0
SMALL
GASTEIGER

@<TRIPOS>ATOM
      1  N         96.9100  113.1350  125.9450 N.3   291  PHE291     -0.1241
      2  CA        97.9140  113.7970  126.7710 C.3   291  PHE291      0.1605
      3  C         98.9490  112.8140  127.2880 C.2   291  PHE291      0.2264
      4  O        100.1520  113.0880  127.2300 O.2   291  PHE291     -0.2867
      5  CB        97.2540  114.5080  127.9430 C.3   291  PHE291      0.0534
      6  CG        98.2190  115.2310  128.8300 C.ar  291  PHE291     -0.0203
      7  CD1       98.7460  116.4430  128.4450 C.ar  291  PHE291     -0.0042
      8  CD2       98.5930  114.7010  130.0510 C.ar  291  PHE291     -0.0042
      9  CE1       99.6250  117.1150  129.2620 C.ar  291  PHE291     -0.0003
     10  CE2       99.4750  115.3680  130.8670 C.ar  291  PHE291     -0.0003
     11  CZ        99.9900  116.5740  130.4720 C.ar  291  PHE291     -0.0000
     12  N        102.1130  121.6720  127.9790 N.3   385  SER385     -0.1217
     13  CA       101.9700  121.0020  129.2640 C.3   385  SER385      0.1889
     14  C        102.6270  119.6260  129.2610 C.2   385  SER385      0.2288
     15  O        103.2990  119.2570  130.2260 O.2   385  SER385     -0.2866
     16  CB       100.5010  120.8550  129.6190 C.3   385  SER385      0.2089
     17  OG       100.3780  120.0870  130.8020 O.3   385  SER385     -0.2183
     18  N        106.4460  119.9880  129.1460 N.3   388  PHE388     -0.1227
     19  CA       106.9350  120.4440  130.4330 C.3   388  PHE388      0.1736
     20  C        106.9230  119.3170  131.4530 C.2   388  PHE388      0.2595
     21  O        107.9310  119.0630  132.1130 O.2   388  PHE388     -0.2718
     22  CB       106.0920  121.6190  130.9010 C.3   388  PHE388      0.0547
     23  CG       106.5430  122.2060  132.1770 C.ar  388  PHE388     -0.0202
     24  CD1      107.6860  122.9730  132.2270 C.ar  388  PHE388     -0.0042
     25  CD2      105.8210  122.0080  133.3320 C.ar  388  PHE388     -0.0042
     26  CE1      108.1040  123.5200  133.4090 C.ar  388  PHE388     -0.0003
     27  CE2      106.2290  122.5570  134.5120 C.ar  388  PHE388     -0.0003
     28  CZ       107.3760  123.3070  134.5530 C.ar  388  PHE388     -0.0000
     29  N        105.8140  118.5870  131.5530 N.am  389  LEU389     -0.1980
     30  CA       105.7460  117.5060  132.5290 C.3   389  LEU389      0.1596
     31  C        106.6270  116.3300  132.1520 C.2   389  LEU389      0.2287
     32  O        107.1900  115.6900  133.0400 O.2   389  LEU389     -0.2864
     33  CB       104.3100  117.0460  132.7140 C.3   389  LEU389      0.0297
     34  CG       103.4830  118.0350  133.5040 C.3   389  LEU389      0.0022
     35  CD1      102.0430  117.6140  133.4930 C.3   389  LEU389      0.0001
     36  CD2      104.0230  118.0230  134.8940 C.3   389  LEU389      0.0001
     37  N        110.1590  117.4120  133.0460 N.3   392  LEU392     -0.1245
     38  CA       110.3900  117.3760  134.4890 C.3   392  LEU392      0.1561
     39  C        110.4930  115.9510  135.0000 C.2   392  LEU392      0.2260
     40  O        111.3400  115.6500  135.8440 O.2   392  LEU392     -0.2867
     41  CB       109.2840  118.0750  135.2580 C.3   392  LEU392      0.0270
     42  CG       109.0860  119.5570  135.1070 C.3   392  LEU392      0.0019
     43  CD1      108.0300  119.9340  136.0910 C.3   392  LEU392      0.0001
     44  CD2      110.3570  120.2720  135.3510 C.3   392  LEU392      0.0001
     45  N        114.4450  118.1750  149.0370 N.3   433  MET433     -0.1245
     46  CA       113.5500  119.3060  148.8170 C.3   433  MET433      0.1570
     47  C        114.3170  120.5750  148.4890 C.2   433  MET433      0.2261
     48  O        113.8680  121.3710  147.6600 O.2   433  MET433     -0.2867
     49  CB       112.6580  119.5300  150.0320 C.3   433  MET433      0.0387
     50  CG       111.6130  118.4770  150.2200 C.3   433  MET433      0.0595
     51  SD       110.4090  118.4770  148.9080 S.3   433  MET433     -0.1393
     52  CE       109.5130  119.9470  149.3550 C.3   433  MET433      0.0692
     53  N        115.3030  120.1940  144.8140 N.3   436  TYR436     -0.1241
     54  CA       114.1710  120.4960  143.9390 C.3   436  TYR436      0.1605
     55  C        113.8450  121.9760  143.9090 C.2   436  TYR436      0.2264
     56  O        113.4920  122.5090  142.8590 O.2   436  TYR436     -0.2867
     57  CB       112.9210  119.7820  144.4000 C.3   436  TYR436      0.0534
     58  CG       112.8520  118.3240  144.1960 C.ar  436  TYR436     -0.0201
     59  CD1      113.6350  117.6840  143.2610 C.ar  436  TYR436     -0.0009
     60  CD2      111.9870  117.5790  144.9670 C.ar  436  TYR436     -0.0009
     61  CE1      113.5440  116.3330  143.1000 C.ar  436  TYR436      0.0417
     62  CE2      111.8910  116.2520  144.8210 C.ar  436  TYR436      0.0417
     63  CZ       112.6640  115.6320  143.8930 C.ar  436  TYR436      0.1957
     64  OH       112.5220  114.2890  143.7880 O.3   436  TYR436     -0.2866
     65  N        108.0490  123.2890  149.5690 N.3   552  ALA552     -0.1245
     66  CA       107.0780  122.7320  148.6350 C.3   552  ALA552      0.1562
     67  C        106.2980  123.8270  147.9250 C.2   552  ALA552      0.2260
     68  O        106.0280  123.7250  146.7210 O.2   552  ALA552     -0.2867
     69  CB       106.1290  121.7890  149.3610 C.3   552  ALA552      0.0290
     70  N        108.5810  125.2560  145.2910 N.3   555  ILE555     -0.1231
     71  CA       108.5890  124.3610  144.1330 C.3   555  ILE555      0.1692
     72  C        107.3690  124.6030  143.2570 C.2   555  ILE555      0.2591
     73  O        107.4870  124.7240  142.0330 O.2   555  ILE555     -0.2718
     74  CB       108.6570  122.8900  144.5770 C.3   555  ILE555      0.0266
     75  CG1      109.9950  122.5550  145.1970 C.3   555  ILE555      0.0019
     76  CG2      108.4560  121.9630  143.4180 C.3   555  ILE555      0.0020
     77  CD1      109.9560  121.2480  145.9060 C.3   555  ILE555      0.0001
     78  N        106.1890  124.7200  143.8720 N.am  556  VAL556     -0.1980
     79  CA       104.9610  124.9060  143.0990 C.3   556  VAL556      0.1595
     80  C        104.9490  126.2600  142.3900 C.2   556  VAL556      0.2287
     81  O        104.6330  126.3410  141.1940 O.2   556  VAL556     -0.2864
     82  CB       103.7360  124.7200  144.0060 C.3   556  VAL556      0.0276
     83  CG1      102.4800  125.0900  143.2780 C.3   556  VAL556      0.0022
     84  CG2      103.6460  123.2840  144.4510 C.3   556  VAL556      0.0022
     85  N        107.7570  126.2490  139.5240 N.3   559  LEU559     -0.1231
     86  CA       107.3890  125.4600  138.3570 C.3   559  LEU559      0.1693
     87  C        106.2130  126.0770  137.6160 C.2   559  LEU559      0.2592
     88  O        106.1250  125.9640  136.3910 O.2   559  LEU559     -0.2718
     89  CB       107.0800  124.0300  138.7610 C.3   559  LEU559      0.0284
     90  CG       108.3170  123.2670  139.1880 C.3   559  LEU559      0.0019
     91  CD1      107.9100  121.9220  139.6940 C.3   559  LEU559      0.0001
     92  CD2      109.2560  123.1360  138.0290 C.3   559  LEU559      0.0001
     93  N        105.3200  126.7710  138.3260 N.am  560  THR560     -0.1953
     94  CA       104.2380  127.4630  137.6330 C.3   560  THR560      0.1897
     95  C        104.7610  128.6510  136.8300 C.2   560  THR560      0.2313
     96  O        104.3130  128.8870  135.7020 O.2   560  THR560     -0.2863
     97  CB       103.1790  127.8920  138.6420 C.3   560  THR560      0.1794
     98  OG1      102.6740  126.7260  139.2980 O.3   560  THR560     -0.2208
     99  CG2      102.0300  128.5930  137.9640 C.3   560  THR560      0.0378
    100  N        106.3720  127.1860  133.7570 N.3   563  TYR563     -0.1241
    101  CA       105.3520  126.7880  132.7970 C.3   563  TYR563      0.1605
    102  C        104.7640  127.9850  132.0740 C.2   563  TYR563      0.2264
    103  O        104.5080  127.9160  130.8710 O.2   563  TYR563     -0.2867
    104  CB       104.2400  126.0160  133.4870 C.3   563  TYR563      0.0534
    105  CG       103.1390  125.6430  132.5440 C.ar  563  TYR563     -0.0201
    106  CD1      103.3090  124.6280  131.6320 C.ar  563  TYR563     -0.0009
    107  CD2      101.9260  126.3090  132.5620 C.ar  563  TYR563     -0.0009
    108  CE1      102.3080  124.2820  130.7670 C.ar  563  TYR563      0.0417
    109  CE2      100.9260  125.9780  131.6920 C.ar  563  TYR563      0.0417
    110  CZ       101.1190  124.9600  130.8020 C.ar  563  TYR563      0.1957
    111  OH       100.1140  124.6180  129.9360 O.3   563  TYR563     -0.2866
@<TRIPOS>BOND
     1     1     2    1
     2     2     3    1
     3     2     5    1
     4     4     3    2
     5     5     6    1
     6    12    13    1
     7     7     6   ar
     8     7     9   ar
     9     6     8   ar
    10    18    19    1
    11    14    13    1
    12    14    15    2
    13     9    11   ar
    14    13    16    1
    15    16    17    1
    16   111   110    1
    17     8    10   ar
    18    19    22    1
    19    19    20    1
    20    11    10   ar
    21   108   110   ar
    22   108   106   ar
    23   110   109   ar
    24   103   102    2
    25    22    23    1
    26    20    29   am
    27    20    21    2
    28    29    30    1
    29   106   105   ar
    30   109   107   ar
    31   102   101    1
    32    31    30    1
    33    31    32    2
    34    23    24   ar
    35    23    25   ar
    36    24    26   ar
    37    30    33    1
    38   105   107   ar
    39   105   104    1
    40    33    34    1
    41   101   104    1
    42   101   100    1
    43    37    38    1
    44    25    27   ar
    45    26    28   ar
    46    35    34    1
    47    34    36    1
    48    38    39    1
    49    38    41    1
    50    27    28   ar
    51    39    40    2
    52    42    41    1
    53    42    44    1
    54    42    43    1
    55    96    95    2
    56    88    87    2
    57    95    94    1
    58    87    93   am
    59    87    86    1
    60    94    93    1
    61    94    97    1
    62    99    97    1
    63    92    90    1
    64    86    89    1
    65    86    85    1
    66    97    98    1
    67    89    90    1
    68    90    91    1
    69    81    80    2
    70    73    72    2
    71    80    79    1
    72    56    55    2
    73    79    78    1
    74    79    82    1
    75    61    59   ar
    76    61    63   ar
    77    72    78   am
    78    72    71    1
    79    59    58   ar
    80    83    82    1
    81    76    74    1
    82    64    63    1
    83    63    62   ar
    84    55    54    1
    85    54    57    1
    86    54    53    1
    87    82    84    1
    88    71    74    1
    89    71    70    1
    90    58    57    1
    91    58    60   ar
    92    74    75    1
    93    62    60   ar
    94    75    77    1
    95    68    67    2
    96    48    47    2
    97    67    66    1
    98    47    46    1
    99    66    69    1
   100    66    65    1
   101    46    45    1
   102    46    49    1
   103    51    52    1
   104    51    50    1
   105    49    50    1
