@<TRIPOS>MOLECULE
tmp/6hijA11.pdb
 127 121 0 0 0
SMALL
GASTEIGER

@<TRIPOS>ATOM
      1  N        127.5020  114.3730  131.3530 N.3   312  ALA312     -0.1245
      2  CA       126.9340  115.3430  132.2830 C.3   312  ALA312      0.1562
      3  C        125.9550  114.6900  133.2570 C.2   312  ALA312      0.2260
      4  O        125.4630  115.3410  134.1840 O.2   312  ALA312     -0.2867
      5  CB       126.2580  116.4730  131.5100 C.3   312  ALA312      0.0290
      6  N        128.9830  112.2870  135.5460 N.3   315  ALA315     -0.1231
      7  CA       130.0010  113.0880  136.2100 C.3   315  ALA315      0.1694
      8  C        129.4470  113.8000  137.4350 C.2   315  ALA315      0.2591
      9  O        130.1790  114.0400  138.3990 O.2   315  ALA315     -0.2718
     10  CB       130.5890  114.0880  135.2210 C.3   315  ALA315      0.0304
     11  N        128.1470  114.1020  137.4390 N.am  316  GLN316     -0.1979
     12  CA       127.5380  114.6880  138.6280 C.3   316  GLN316      0.1601
     13  C        127.4820  113.6840  139.7680 C.2   316  GLN316      0.2287
     14  O        127.7280  114.0380  140.9240 O.2   316  GLN316     -0.2864
     15  CB       126.1420  115.2010  138.3070 C.3   316  GLN316      0.0394
     16  CG       126.1400  116.3470  137.3400 C.3   316  GLN316      0.0908
     17  CD       124.7490  116.8190  137.0200 C.2   316  GLN316      0.2608
     18  OE1      123.7670  116.2710  137.5180 O.2   316  GLN316     -0.2717
     19  NE2      124.6510  117.8320  136.1710 N.am  316  GLN316     -0.0878
     20  N        131.1280  113.3300  141.0700 N.3   319  VAL319     -0.1231
     21  CA       131.5020  114.4740  141.9000 C.3   319  VAL319      0.1692
     22  C        130.7400  114.4600  143.2220 C.2   319  VAL319      0.2592
     23  O        131.2930  114.8060  144.2710 O.2   319  VAL319     -0.2718
     24  CB       131.2990  115.7730  141.0980 C.3   319  VAL319      0.0266
     25  CG1      131.3850  116.9980  141.9560 C.3   319  VAL319      0.0020
     26  CG2      132.3760  115.8620  140.0520 C.3   319  VAL319      0.0020
     27  N        129.4990  113.9720  143.2130 N.am  320  THR320     -0.1953
     28  CA       128.7470  113.8280  144.4560 C.3   320  THR320      0.1897
     29  C        129.3610  112.7730  145.3710 C.2   320  THR320      0.2313
     30  O        129.5040  113.0100  146.5730 O.2   320  THR320     -0.2863
     31  CB       127.2970  113.4940  144.1350 C.3   320  THR320      0.1794
     32  OG1      126.7120  114.5870  143.4190 O.3   320  THR320     -0.2208
     33  CG2      126.5060  113.2280  145.3860 C.3   320  THR320      0.0378
     34  N        132.8050  114.2210  146.6730 N.3   323  LEU323     -0.1245
     35  CA       132.6260  115.2780  147.6560 C.3   323  LEU323      0.1561
     36  C        131.9810  114.7570  148.9330 C.2   323  LEU323      0.2260
     37  O        132.2910  115.2490  150.0210 O.2   323  LEU323     -0.2867
     38  CB       131.8110  116.4020  147.0410 C.3   323  LEU323      0.0270
     39  CG       131.6730  117.6450  147.8900 C.3   323  LEU323      0.0019
     40  CD1      133.0280  118.1880  148.2150 C.3   323  LEU323      0.0001
     41  CD2      130.9330  118.6310  147.0980 C.3   323  LEU323      0.0001
     42  N        125.5600  123.7070  156.8200 N.3   349  PHE349     -0.1227
     43  CA       125.5860  124.8190  155.8800 C.3   349  PHE349      0.1736
     44  C        126.2360  124.4270  154.5690 C.2   349  PHE349      0.2595
     45  O        125.7570  124.8140  153.4960 O.2   349  PHE349     -0.2718
     46  CB       126.3180  125.9930  156.4990 C.3   349  PHE349      0.0547
     47  CG       126.3500  127.1980  155.6420 C.ar  349  PHE349     -0.0202
     48  CD1      125.2220  127.9550  155.4630 C.ar  349  PHE349     -0.0042
     49  CD2      127.5180  127.5960  155.0370 C.ar  349  PHE349     -0.0042
     50  CE1      125.2590  129.0660  154.6840 C.ar  349  PHE349     -0.0003
     51  CE2      127.5530  128.7130  154.2590 C.ar  349  PHE349     -0.0003
     52  CZ       126.4260  129.4470  154.0830 C.ar  349  PHE349     -0.0000
     53  N        127.3110  123.6390  154.6310 N.am  350  PHE350     -0.1976
     54  CA       127.9600  123.1940  153.4070 C.3   350  PHE350      0.1639
     55  C        127.0450  122.3030  152.5870 C.2   350  PHE350      0.2290
     56  O        126.9900  122.4380  151.3630 O.2   350  PHE350     -0.2864
     57  CB       129.2570  122.4520  153.7000 C.3   350  PHE350      0.0560
     58  CG       129.9890  122.0580  152.4630 C.ar  350  PHE350     -0.0200
     59  CD1      130.7160  122.9940  151.7680 C.ar  350  PHE350     -0.0042
     60  CD2      129.9170  120.7710  151.9650 C.ar  350  PHE350     -0.0042
     61  CE1      131.3730  122.6580  150.6120 C.ar  350  PHE350     -0.0003
     62  CE2      130.5620  120.4350  150.8050 C.ar  350  PHE350     -0.0003
     63  CZ       131.2970  121.3760  150.1330 C.ar  350  PHE350     -0.0000
     64  N        124.0610  124.5830  150.9720 N.3   353  THR353     -0.1203
     65  CA       124.4820  125.4860  149.9080 C.3   353  THR353      0.1994
     66  C        125.1350  124.7270  148.7650 C.2   353  THR353      0.2617
     67  O        125.1330  125.1920  147.6260 O.2   353  THR353     -0.2717
     68  CB       125.4020  126.5530  150.4570 C.3   353  THR353      0.1784
     69  OG1      126.5980  125.9460  150.9340 O.3   353  THR353     -0.2211
     70  CG2      124.7220  127.2370  151.5920 C.3   353  THR353      0.0376
     71  N        125.6210  123.5190  149.0300 N.am  354  ASN354     -0.1974
     72  CA       126.0510  122.6330  147.9620 C.3   354  ASN354      0.1688
     73  C        124.8810  122.1800  147.1080 C.2   354  ASN354      0.2292
     74  O        125.0040  122.1210  145.8830 O.2   354  ASN354     -0.2864
     75  CB       126.7460  121.4210  148.5620 C.3   354  ASN354      0.1181
     76  CG       127.4340  120.5860  147.5450 C.2   354  ASN354      0.2629
     77  OD1      127.5820  120.9650  146.3880 O.2   354  ASN354     -0.2716
     78  ND2      127.8270  119.4090  147.9560 N.am  354  ASN354     -0.0877
     79  N        123.8950  125.2790  144.9330 N.3   357  PHE357     -0.1227
     80  CA       124.7790  125.6110  143.8190 C.3   357  PHE357      0.1736
     81  C        124.9330  124.4740  142.8260 C.2   357  PHE357      0.2596
     82  O        125.2520  124.7180  141.6620 O.2   357  PHE357     -0.2718
     83  CB       126.1350  126.0360  144.3240 C.3   357  PHE357      0.0547
     84  CG       126.1810  127.4420  144.7210 C.ar  357  PHE357     -0.0202
     85  CD1      126.4160  128.4160  143.7820 C.ar  357  PHE357     -0.0042
     86  CD2      125.9570  127.8120  146.0090 C.ar  357  PHE357     -0.0042
     87  CE1      126.4500  129.7200  144.1500 C.ar  357  PHE357     -0.0003
     88  CE2      125.9880  129.1000  146.3580 C.ar  357  PHE357     -0.0003
     89  CZ       126.2370  130.0610  145.4390 C.ar  357  PHE357     -0.0000
     90  N        124.7210  123.2290  143.2400 N.am  358  SER358     -0.1952
     91  CA       124.7770  122.1570  142.2590 C.3   358  SER358      0.1924
     92  C        123.4970  122.0980  141.4480 C.2   358  SER358      0.2314
     93  O        123.4600  121.4580  140.3940 O.2   358  SER358     -0.2863
     94  CB       125.0390  120.8210  142.9380 C.3   358  SER358      0.2116
     95  OG       123.9140  120.4140  143.6800 O.3   358  SER358     -0.2180
     96  N        122.4740  124.5490  139.7390 N.3   360  VAL360     -0.1231
     97  CA       122.5660  125.5620  138.6880 C.3   360  VAL360      0.1692
     98  C        122.6690  124.8800  137.3270 C.2   360  VAL360      0.2592
     99  O        122.2820  125.4390  136.2940 O.2   360  VAL360     -0.2718
    100  CB       123.7510  126.5090  138.9790 C.3   360  VAL360      0.0266
    101  CG1      123.9350  127.5580  137.9250 C.3   360  VAL360      0.0020
    102  CG2      123.5380  127.2200  140.2870 C.3   360  VAL360      0.0020
    103  N        123.0690  123.6080  137.3190 N.am  361  SER361     -0.1952
    104  CA       123.2110  122.8780  136.0620 C.3   361  SER361      0.1924
    105  C        121.8720  122.4350  135.4750 C.2   361  SER361      0.2314
    106  O        121.8520  121.6660  134.5100 O.2   361  SER361     -0.2863
    107  CB       124.1130  121.6660  136.2680 C.3   361  SER361      0.2116
    108  OG       123.5110  120.7330  137.1450 O.3   361  SER361     -0.2180
    109  N        124.5330  111.8380  149.0930 N.3   407  PHE407     -0.1241
    110  CA       125.0850  112.6900  150.1550 C.3   407  PHE407      0.1605
    111  C        124.6630  112.2270  151.5330 C.2   407  PHE407      0.2264
    112  O        125.4970  112.1430  152.4330 O.2   407  PHE407     -0.2867
    113  CB       124.6750  114.1550  150.0200 C.3   407  PHE407      0.0534
    114  CG       125.4680  114.9210  149.0360 C.ar  407  PHE407     -0.0203
    115  CD1      126.8130  115.1260  149.2390 C.ar  407  PHE407     -0.0042
    116  CD2      124.8580  115.5390  147.9650 C.ar  407  PHE407     -0.0042
    117  CE1      127.5530  115.8550  148.3430 C.ar  407  PHE407     -0.0003
    118  CE2      125.5860  116.2780  147.0670 C.ar  407  PHE407     -0.0003
    119  CZ       126.9390  116.4270  147.2520 C.ar  407  PHE407     -0.0000
    120  N        122.3030  133.0110  150.7180 N.3   467  MET467     -0.1245
    121  CA       123.1400  132.3750  151.7290 C.3   467  MET467      0.1570
    122  C        123.5530  133.3330  152.8270 C.2   467  MET467      0.2261
    123  O        124.0560  132.8900  153.8610 O.2   467  MET467     -0.2867
    124  CB       124.3910  131.7870  151.1120 C.3   467  MET467      0.0387
    125  CG       124.1600  130.6350  150.2160 C.3   467  MET467      0.0595
    126  SD       125.7810  130.1300  149.6970 S.3   467  MET467     -0.1393
    127  CE       126.2180  131.5820  148.7970 C.3   467  MET467      0.0692
@<TRIPOS>BOND
     1     1     2    1
     2     5     2    1
     3     2     3    1
     4     3     4    2
     5   106   105    2
     6    10     7    1
     7   105   104    1
     8     6     7    1
     9   104   107    1
    10   104   103    1
    11    19    17   am
    12     7     8    1
    13   107   108    1
    14    99    98    2
    15    17    16    1
    16    17    18    2
    17   103    98   am
    18    98    97    1
    19    16    15    1
    20     8    11   am
    21     8     9    2
    22    11    12    1
    23   101   100    1
    24    15    12    1
    25    12    13    1
    26    97   100    1
    27    97    96    1
    28   100   102    1
    29    13    14    2
    30    26    24    1
    31    93    92    2
    32    20    21    1
    33    24    21    1
    34    24    25    1
    35    92    91    1
    36    82    81    2
    37    21    22    1
    38    91    94    1
    39    91    90    1
    40    81    90   am
    41    81    80    1
    42    94    95    1
    43    27    22   am
    44    27    28    1
    45    22    23    2
    46    32    31    1
    47    85    87   ar
    48    85    84   ar
    49    80    83    1
    50    80    79    1
    51    31    28    1
    52    31    33    1
    53    87    89   ar
    54    83    84    1
    55    28    29    1
    56    84    86   ar
    57    29    30    2
    58    89    88   ar
    59    74    73    2
    60    86    88   ar
    61    77    76    2
    62    34    35    1
    63    38    35    1
    64    38    39    1
    65   118   119   ar
    66   118   116   ar
    67    41    39    1
    68    73    72    1
    69   119   117   ar
    70    76    78   am
    71    76    75    1
    72    67    66    2
    73    35    36    1
    74    39    40    1
    75    72    75    1
    76    72    71    1
    77   116   114   ar
    78   117   115   ar
    79    66    71   am
    80    66    65    1
    81   127   126    1
    82    36    37    2
    83   114   115   ar
    84   114   113    1
    85   109   110    1
    86   126   125    1
    87    65    68    1
    88    65    64    1
    89   113   110    1
    90    63    61   ar
    91    63    62   ar
    92   110   111    1
    93   125   124    1
    94    68    69    1
    95    68    70    1
    96    61    59   ar
    97   120   121    1
    98    62    60   ar
    99   124   121    1
   100    56    55    2
   101   111   112    2
   102   121   122    1
   103    59    58   ar
   104    60    58   ar
   105    58    57    1
   106    55    54    1
   107   122   123    2
   108    54    57    1
   109    54    53    1
   110    45    44    2
   111    52    51   ar
   112    52    50   ar
   113    51    49   ar
   114    44    53   am
   115    44    43    1
   116    50    48   ar
   117    49    47   ar
   118    48    47   ar
   119    47    46    1
   120    43    46    1
   121    43    42    1
