@<TRIPOS>MOLECULE
tmp/6hijA10.pdb
 122 113 0 0 0
SMALL
GASTEIGER

@<TRIPOS>ATOM
      1  N         96.5100  111.8140  122.5500 N.3   290  SER290     -0.1202
      2  CA        96.0770  112.1370  123.9000 C.3   290  SER290      0.2020
      3  C         97.2100  112.7690  124.6980 C.2   290  SER290      0.2619
      4  O         98.3300  112.9250  124.2120 O.2   290  SER290     -0.2717
      5  CB        95.5740  110.8830  124.6060 C.3   290  SER290      0.2103
      6  OG        96.6150  109.9380  124.7550 O.3   290  SER290     -0.2182
      7  N         96.9100  113.1350  125.9450 N.am  291  PHE291     -0.1961
      8  CA        97.9140  113.7970  126.7710 C.3   291  PHE291      0.1771
      9  C         98.9490  112.8140  127.2880 C.2   291  PHE291      0.2619
     10  O        100.1520  113.0880  127.2300 O.2   291  PHE291     -0.2715
     11  CB        97.2540  114.5080  127.9430 C.3   291  PHE291      0.0574
     12  CG        98.2190  115.2310  128.8300 C.ar  291  PHE291     -0.0200
     13  CD1       98.7460  116.4430  128.4450 C.ar  291  PHE291     -0.0042
     14  CD2       98.5930  114.7010  130.0510 C.ar  291  PHE291     -0.0042
     15  CE1       99.6250  117.1150  129.2620 C.ar  291  PHE291     -0.0003
     16  CE2       99.4750  115.3680  130.8670 C.ar  291  PHE291     -0.0003
     17  CZ        99.9900  116.5740  130.4720 C.ar  291  PHE291     -0.0000
     18  N         98.4970  111.6790  127.8260 N.am  292  CYS292     -0.1968
     19  CA        99.4120  110.7000  128.4040 C.3   292  CYS292      0.1712
     20  C        100.3170  110.0870  127.3470 C.2   292  CYS292      0.2296
     21  O        101.4580  109.7260  127.6450 O.2   292  CYS292     -0.2864
     22  CB        98.6200  109.6140  129.1280 C.3   292  CYS292      0.0983
     23  SG        99.6220  108.3710  129.9710 S.3   292  CYS292     -0.0798
     24  N        103.0380  112.7340  126.8760 N.3   295  LEU295     -0.1245
     25  CA       103.9050  112.7420  128.0470 C.3   295  LEU295      0.1561
     26  C        104.8010  111.5110  128.0710 C.2   295  LEU295      0.2260
     27  O        105.9900  111.6150  128.3950 O.2   295  LEU295     -0.2867
     28  CB       103.0550  112.8450  129.3060 C.3   295  LEU295      0.0270
     29  CG       103.7030  113.0950  130.6530 C.3   295  LEU295      0.0019
     30  CD1      102.7590  113.9460  131.4330 C.3   295  LEU295      0.0001
     31  CD2      103.9060  111.7980  131.3900 C.3   295  LEU295      0.0001
     32  N        101.5390  119.4050  123.2610 N.3   383  ARG383     -0.1245
     33  CA       101.2020  120.6420  123.9430 C.3   383  ARG383      0.1563
     34  C        102.4070  121.1480  124.7170 C.2   383  ARG383      0.2260
     35  O        103.4370  120.4990  124.7900 O.2   383  ARG383     -0.2867
     36  CB       100.0430  120.4180  124.9150 C.3   383  ARG383      0.0307
     37  CG        98.7580  120.0000  124.2690 C.3   383  ARG383      0.0489
     38  CD        97.6680  119.7260  125.2790 C.3   383  ARG383      0.2205
     39  NE        96.4500  119.3550  124.5740 N.pl3 383  ARG383     -0.0865
     40  CZ        95.3230  118.9980  125.1690 C.cat 383  ARG383      0.5346
     41  NH1       95.2630  118.9610  126.4900 N.pl3 383  ARG383      0.1354
     42  NH2       94.2570  118.6800  124.4450 N.pl3 383  ARG383      0.1354
     43  N        102.1130  121.6720  127.9790 N.3   385  SER385     -0.1217
     44  CA       101.9700  121.0020  129.2640 C.3   385  SER385      0.1889
     45  C        102.6270  119.6260  129.2610 C.2   385  SER385      0.2288
     46  O        103.2990  119.2570  130.2260 O.2   385  SER385     -0.2866
     47  CB       100.5010  120.8550  129.6190 C.3   385  SER385      0.2089
     48  OG       100.3780  120.0870  130.8020 O.3   385  SER385     -0.2183
     49  N        105.8140  118.5870  131.5530 N.3   389  LEU389     -0.1245
     50  CA       105.7460  117.5060  132.5290 C.3   389  LEU389      0.1561
     51  C        106.6270  116.3300  132.1520 C.2   389  LEU389      0.2260
     52  O        107.1900  115.6900  133.0400 O.2   389  LEU389     -0.2867
     53  CB       104.3100  117.0460  132.7140 C.3   389  LEU389      0.0270
     54  CG       103.4830  118.0350  133.5040 C.3   389  LEU389      0.0019
     55  CD1      102.0430  117.6140  133.4930 C.3   389  LEU389      0.0001
     56  CD2      104.0230  118.0230  134.8940 C.3   389  LEU389      0.0001
     57  N        110.1590  117.4120  133.0460 N.3   392  LEU392     -0.1231
     58  CA       110.3900  117.3760  134.4890 C.3   392  LEU392      0.1693
     59  C        110.4930  115.9510  135.0000 C.2   392  LEU392      0.2591
     60  O        111.3400  115.6500  135.8440 O.2   392  LEU392     -0.2718
     61  CB       109.2840  118.0750  135.2580 C.3   392  LEU392      0.0284
     62  CG       109.0860  119.5570  135.1070 C.3   392  LEU392      0.0019
     63  CD1      108.0300  119.9340  136.0910 C.3   392  LEU392      0.0001
     64  CD2      110.3570  120.2720  135.3510 C.3   392  LEU392      0.0001
     65  N        109.6190  115.0670  134.5250 N.am  393  LEU393     -0.1980
     66  CA       109.6050  113.6950  135.0060 C.3   393  LEU393      0.1596
     67  C        110.8200  112.9210  134.5200 C.2   393  LEU393      0.2287
     68  O        111.1850  111.9030  135.1130 O.2   393  LEU393     -0.2864
     69  CB       108.3090  113.0290  134.5490 C.3   393  LEU393      0.0297
     70  CG       107.9270  111.6240  134.9800 C.3   393  LEU393      0.0022
     71  CD1      107.7630  111.5840  136.4750 C.3   393  LEU393      0.0001
     72  CD2      106.6460  111.2330  134.2920 C.3   393  LEU393      0.0001
     73  N        114.5890  116.1180  135.4890 N.3   396  LEU396     -0.1231
     74  CA       114.6690  116.7920  136.7740 C.3   396  LEU396      0.1693
     75  C        114.5390  115.8110  137.9280 C.2   396  LEU396      0.2591
     76  O        115.2710  115.9150  138.9140 O.2   396  LEU396     -0.2718
     77  CB       113.6010  117.8750  136.8740 C.3   396  LEU396      0.0284
     78  CG       113.6780  118.6680  138.1730 C.3   396  LEU396      0.0019
     79  CD1      115.0100  119.3110  138.2040 C.3   396  LEU396      0.0001
     80  CD2      112.5930  119.7110  138.3050 C.3   396  LEU396      0.0001
     81  N        113.6250  114.8490  137.8260 N.am  397  LEU397     -0.1980
     82  CA       113.3250  114.0060  138.9830 C.3   397  LEU397      0.1596
     83  C        114.4580  113.0460  139.3610 C.2   397  LEU397      0.2287
     84  O        114.9000  113.1020  140.5230 O.2   397  LEU397     -0.2864
     85  CB       111.9920  113.2850  138.7650 C.3   397  LEU397      0.0297
     86  CG       111.4710  112.4590  139.9280 C.3   397  LEU397      0.0022
     87  CD1      111.0640  113.3830  141.0300 C.3   397  LEU397      0.0001
     88  CD2      110.3090  111.5980  139.4940 C.3   397  LEU397      0.0001
     89  N        115.3030  120.1940  144.8140 N.3   436  TYR436     -0.1241
     90  CA       114.1710  120.4960  143.9390 C.3   436  TYR436      0.1605
     91  C        113.8450  121.9760  143.9090 C.2   436  TYR436      0.2264
     92  O        113.4920  122.5090  142.8590 O.2   436  TYR436     -0.2867
     93  CB       112.9210  119.7820  144.4000 C.3   436  TYR436      0.0534
     94  CG       112.8520  118.3240  144.1960 C.ar  436  TYR436     -0.0201
     95  CD1      113.6350  117.6840  143.2610 C.ar  436  TYR436     -0.0009
     96  CD2      111.9870  117.5790  144.9670 C.ar  436  TYR436     -0.0009
     97  CE1      113.5440  116.3330  143.1000 C.ar  436  TYR436      0.0417
     98  CE2      111.8910  116.2520  144.8210 C.ar  436  TYR436      0.0417
     99  CZ       112.6640  115.6320  143.8930 C.ar  436  TYR436      0.1957
    100  OH       112.5220  114.2890  143.7880 O.3   436  TYR436     -0.2866
    101  N        114.1250  124.2770  140.7560 N.3   440  SER440     -0.1217
    102  CA       112.8950  124.8530  140.2350 C.3   440  SER440      0.1889
    103  C        113.0370  126.3510  140.0460 C.2   440  SER440      0.2288
    104  O        112.4690  126.9170  139.1090 O.2   440  SER440     -0.2866
    105  CB       111.7420  124.5350  141.1730 C.3   440  SER440      0.2089
    106  OG       111.5640  123.1370  141.2860 O.3   440  SER440     -0.2183
    107  N        108.5810  125.2560  145.2910 N.3   555  ILE555     -0.1245
    108  CA       108.5890  124.3610  144.1330 C.3   555  ILE555      0.1561
    109  C        107.3690  124.6030  143.2570 C.2   555  ILE555      0.2260
    110  O        107.4870  124.7240  142.0330 O.2   555  ILE555     -0.2867
    111  CB       108.6570  122.8900  144.5770 C.3   555  ILE555      0.0252
    112  CG1      109.9950  122.5550  145.1970 C.3   555  ILE555      0.0019
    113  CG2      108.4560  121.9630  143.4180 C.3   555  ILE555      0.0019
    114  CD1      109.9560  121.2480  145.9060 C.3   555  ILE555      0.0001
    115  N        107.7570  126.2490  139.5240 N.3   559  LEU559     -0.1245
    116  CA       107.3890  125.4600  138.3570 C.3   559  LEU559      0.1561
    117  C        106.2130  126.0770  137.6160 C.2   559  LEU559      0.2260
    118  O        106.1250  125.9640  136.3910 O.2   559  LEU559     -0.2867
    119  CB       107.0800  124.0300  138.7610 C.3   559  LEU559      0.0270
    120  CG       108.3170  123.2670  139.1880 C.3   559  LEU559      0.0019
    121  CD1      107.9100  121.9220  139.6940 C.3   559  LEU559      0.0001
    122  CD2      109.2560  123.1360  138.0290 C.3   559  LEU559      0.0001
@<TRIPOS>BOND
     1     1     2    1
     2    32    33    1
     3     2     5    1
     4     2     3    1
     5    33    34    1
     6    33    36    1
     7     4     3    2
     8    37    36    1
     9    37    38    1
    10    42    40    1
    11    39    40    2
    12    39    38    1
    13     5     6    1
    14     3     7   am
    15    34    35    2
    16    40    41    1
    17     7     8    1
    18     8     9    1
    19     8    11    1
    20    24    25    1
    21    10     9    2
    22     9    18   am
    23    20    21    2
    24    20    19    1
    25    18    19    1
    26    11    12    1
    27    43    44    1
    28    25    26    1
    29    25    28    1
    30    26    27    2
    31    19    22    1
    32    13    12   ar
    33    13    15   ar
    34    12    14   ar
    35    22    23    1
    36    45    44    1
    37    45    46    2
    38    15    17   ar
    39    44    47    1
    40    28    29    1
    41    47    48    1
    42    14    16   ar
    43    17    16   ar
    44    29    31    1
    45    29    30    1
    46    49    50    1
    47    51    50    1
    48    51    52    2
    49    50    53    1
    50    53    54    1
    51    57    58    1
    52    55    54    1
    53    54    56    1
    54    72    70    1
    55    58    59    1
    56    58    61    1
    57    67    66    1
    58    67    68    2
    59    65    59   am
    60    65    66    1
    61    69    70    1
    62    69    66    1
    63    70    71    1
    64    59    60    2
    65    62    61    1
    66    62    64    1
    67    62    63    1
    68    73    74    1
    69   118   117    2
    70    74    77    1
    71    74    75    1
    72    77    78    1
    73   117   116    1
    74    81    75   am
    75    81    82    1
    76    75    76    2
    77   122   120    1
    78    78    79    1
    79    78    80    1
    80   116   119    1
    81   116   115    1
    82   119   120    1
    83    85    82    1
    84    85    86    1
    85    82    83    1
    86   104   103    2
    87   120   121    1
    88    83    84    2
    89    88    86    1
    90    86    87    1
    91   103   102    1
    92   102   101    1
    93   102   105    1
    94   105   106    1
    95   110   109    2
    96    92    91    2
    97    97    95   ar
    98    97    99   ar
    99   109   108    1
   100    95    94   ar
   101   113   111    1
   102   100    99    1
   103    99    98   ar
   104    91    90    1
   105    90    93    1
   106    90    89    1
   107   108   111    1
   108   108   107    1
   109    94    93    1
   110    94    96   ar
   111   111   112    1
   112    98    96   ar
   113   112   114    1
