@<TRIPOS>MOLECULE
tmp/6hijA04.pdb
 135 126 0 0 0
SMALL
GASTEIGER

@<TRIPOS>ATOM
      1  N        113.8190  127.0110  140.9020 N.3   441  MET441     -0.1245
      2  CA       114.1310  128.4130  140.6400 C.3   441  MET441      0.1570
      3  C        115.0210  128.5550  139.4130 C.2   441  MET441      0.2261
      4  O        114.9160  129.5390  138.6650 O.2   441  MET441     -0.2867
      5  CB       114.8020  129.0490  141.8470 C.3   441  MET441      0.0387
      6  CG       114.8810  130.5420  141.7290 C.3   441  MET441      0.0595
      7  SD       115.6390  131.3510  143.1190 S.3   441  MET441     -0.1393
      8  CE       117.3530  131.0280  142.7710 C.3   441  MET441      0.0692
      9  N        112.7060  128.3620  136.5900 N.3   444  ALA444     -0.1231
     10  CA       111.8570  129.5430  136.4830 C.3   444  ALA444      0.1694
     11  C        112.6140  130.7030  135.8630 C.2   444  ALA444      0.2591
     12  O        112.0420  131.5080  135.1250 O.2   444  ALA444     -0.2718
     13  CB       111.3170  129.9330  137.8520 C.3   444  ALA444      0.0304
     14  N        113.9070  130.8080  136.1490 N.am  445  ILE445     -0.1980
     15  CA       114.6970  131.8860  135.5630 C.3   445  ILE445      0.1595
     16  C        115.1300  131.5270  134.1440 C.2   445  ILE445      0.2287
     17  O        115.1860  132.3840  133.2560 O.2   445  ILE445     -0.2864
     18  CB       115.8880  132.2160  136.4810 C.3   445  ILE445      0.0276
     19  CG1      115.3630  132.8140  137.7800 C.3   445  ILE445      0.0022
     20  CG2      116.8490  133.1730  135.8480 C.3   445  ILE445      0.0022
     21  CD1      116.4140  133.1260  138.7860 C.3   445  ILE445      0.0001
     22  N        114.6490  131.2090  127.4070 N.3   449  GLN449     -0.1245
     23  CA       115.7840  132.0240  127.0020 C.3   449  GLN449      0.1566
     24  C        116.6550  131.2280  126.0470 C.2   449  GLN449      0.2260
     25  O        116.4680  130.0190  125.8940 O.2   449  GLN449     -0.2867
     26  CB       116.6080  132.4920  128.1980 C.3   449  GLN449      0.0367
     27  CG       115.9140  133.5210  129.0460 C.3   449  GLN449      0.0905
     28  CD       116.7990  134.0350  130.1450 C.2   449  GLN449      0.2608
     29  OE1      117.9300  133.5850  130.3000 O.2   449  GLN449     -0.2717
     30  NE2      116.2940  134.9860  130.9190 N.am  449  GLN449     -0.0878
     31  N        122.6450  134.9020  136.8860 N.3   458  LEU458     -0.1245
     32  CA       121.5480  135.3900  137.7100 C.3   458  LEU458      0.1561
     33  C        121.1890  134.4050  138.8180 C.2   458  LEU458      0.2260
     34  O        120.8700  134.8250  139.9380 O.2   458  LEU458     -0.2867
     35  CB       120.3490  135.6820  136.8180 C.3   458  LEU458      0.0270
     36  CG       119.1590  136.3820  137.4480 C.3   458  LEU458      0.0019
     37  CD1      119.6070  137.7000  138.0170 C.3   458  LEU458      0.0001
     38  CD2      118.1030  136.6170  136.3990 C.3   458  LEU458      0.0001
     39  N        121.4020  135.3270  142.8710 N.3   462  CYS462     -0.1235
     40  CA       120.3070  135.0070  143.7910 C.3   462  CYS462      0.1677
     41  C        120.7640  134.0930  144.9240 C.2   462  CYS462      0.2270
     42  O        120.3750  134.2870  146.0750 O.2   462  CYS462     -0.2867
     43  CB       119.1520  134.3680  143.0300 C.3   462  CYS462      0.0956
     44  SG       118.3460  135.4810  141.8850 S.3   462  CYS462     -0.0801
     45  N        122.8180  135.9680  147.5340 N.3   465  PHE465     -0.1227
     46  CA       121.9790  136.7880  148.4050 C.3   465  PHE465      0.1736
     47  C        121.0690  135.9400  149.2840 C.2   465  PHE465      0.2595
     48  O        120.5010  136.4420  150.2560 O.2   465  PHE465     -0.2718
     49  CB       121.1750  137.7920  147.5970 C.3   465  PHE465      0.0547
     50  CG       121.9740  138.9680  147.1700 C.ar  465  PHE465     -0.0202
     51  CD1      122.2600  139.9690  148.0730 C.ar  465  PHE465     -0.0042
     52  CD2      122.4440  139.0810  145.8820 C.ar  465  PHE465     -0.0042
     53  CE1      122.9970  141.0570  147.6970 C.ar  465  PHE465     -0.0003
     54  CE2      123.1820  140.1600  145.4950 C.ar  465  PHE465     -0.0003
     55  CZ       123.4580  141.1520  146.3970 C.ar  465  PHE465     -0.0000
     56  N        120.9020  134.6600  148.9600 N.am  466  MET466     -0.1979
     57  CA       120.1530  133.7780  149.8520 C.3   466  MET466      0.1605
     58  C        121.0210  133.2510  150.9870 C.2   466  MET466      0.2287
     59  O        120.5380  133.0470  152.1100 O.2   466  MET466     -0.2864
     60  CB       119.5650  132.6160  149.0660 C.3   466  MET466      0.0413
     61  CG       118.3970  132.9820  148.2180 C.3   466  MET466      0.0598
     62  SD       117.7280  131.6230  147.2810 S.3   466  MET466     -0.1393
     63  CE       116.4080  132.4930  146.4770 C.3   466  MET466      0.0692
     64  N        121.2460  135.2510  154.2530 N.3   469  PHE469     -0.1241
     65  CA       120.0910  135.0840  155.1140 C.3   469  PHE469      0.1605
     66  C        119.8400  133.6430  155.5030 C.2   469  PHE469      0.2264
     67  O        118.8030  133.3690  156.1070 O.2   469  PHE469     -0.2867
     68  CB       118.8580  135.6500  154.4290 C.3   469  PHE469      0.0534
     69  CG       118.9130  137.1200  154.2470 C.ar  469  PHE469     -0.0203
     70  CD1      118.5830  137.9650  155.2830 C.ar  469  PHE469     -0.0042
     71  CD2      119.3220  137.6610  153.0510 C.ar  469  PHE469     -0.0042
     72  CE1      118.6450  139.3170  155.1200 C.ar  469  PHE469     -0.0003
     73  CE2      119.3870  139.0140  152.8850 C.ar  469  PHE469     -0.0003
     74  CZ       119.0440  139.8420  153.9180 C.ar  469  PHE469     -0.0000
     75  N        113.4140  139.7400  154.2650 N.3   486  LEU486     -0.1245
     76  CA       113.9750  139.0710  153.0990 C.3   486  LEU486      0.1561
     77  C        114.4020  137.6520  153.4140 C.2   486  LEU486      0.2260
     78  O        114.7530  136.9010  152.5040 O.2   486  LEU486     -0.2867
     79  CB       115.1670  139.8460  152.5570 C.3   486  LEU486      0.0270
     80  CG       114.9270  141.1510  151.8240 C.3   486  LEU486      0.0019
     81  CD1      116.2420  141.8200  151.5950 C.3   486  LEU486      0.0001
     82  CD2      114.2750  140.8510  150.5080 C.3   486  LEU486      0.0001
     83  N        112.5290  134.6560  151.5760 N.3   489  PHE489     -0.1227
     84  CA       112.7100  134.3670  150.1640 C.3   489  PHE489      0.1736
     85  C        113.7740  133.3150  149.9090 C.2   489  PHE489      0.2596
     86  O        113.8940  132.8520  148.7720 O.2   489  PHE489     -0.2718
     87  CB       113.0940  135.6380  149.4060 C.3   489  PHE489      0.0547
     88  CG       111.9850  136.6380  149.2710 C.ar  489  PHE489     -0.0202
     89  CD1      110.6750  136.2900  149.5010 C.ar  489  PHE489     -0.0042
     90  CD2      112.2640  137.9340  148.8970 C.ar  489  PHE489     -0.0042
     91  CE1      109.6660  137.2120  149.3720 C.ar  489  PHE489     -0.0003
     92  CE2      111.2560  138.8620  148.7640 C.ar  489  PHE489     -0.0003
     93  CZ       109.9560  138.4960  149.0030 C.ar  489  PHE489     -0.0000
     94  N        114.5330  132.9210  150.9230 N.am  490  SER490     -0.1952
     95  CA       115.7830  132.2070  150.7150 C.3   490  SER490      0.1924
     96  C        115.6340  130.7240  151.0110 C.2   490  SER490      0.2314
     97  O        115.3190  130.3370  152.1350 O.2   490  SER490     -0.2863
     98  CB       116.8810  132.8250  151.5710 C.3   490  SER490      0.2116
     99  OG       116.5300  132.7960  152.9210 O.3   490  SER490     -0.2180
    100  N        107.4980  126.8140  147.3180 N.3   554  MET554     -0.1245
    101  CA       108.3990  127.4540  146.3620 C.3   554  MET554      0.1570
    102  C        108.6180  126.5830  145.1310 C.2   554  MET554      0.2261
    103  O        108.7880  127.1080  144.0280 O.2   554  MET554     -0.2867
    104  CB       109.7260  127.8230  147.0130 C.3   554  MET554      0.0387
    105  CG       109.5880  128.9360  148.0200 C.3   554  MET554      0.0595
    106  SD       111.1250  129.4680  148.7710 S.3   554  MET554     -0.1393
    107  CE       111.7890  130.4730  147.4570 C.3   554  MET554      0.0692
    108  N        107.5970  128.1640  141.5660 N.3   558  PHE558     -0.1241
    109  CA       108.6480  128.2820  140.5650 C.3   558  PHE558      0.1605
    110  C        108.3680  127.4190  139.3430 C.2   558  PHE558      0.2264
    111  O        108.6610  127.8310  138.2160 O.2   558  PHE558     -0.2867
    112  CB       109.9860  127.9390  141.1980 C.3   558  PHE558      0.0534
    113  CG       110.5460  129.0420  142.0400 C.ar  558  PHE558     -0.0203
    114  CD1      110.2190  130.3560  141.7800 C.ar  558  PHE558     -0.0042
    115  CD2      111.3630  128.7620  143.1150 C.ar  558  PHE558     -0.0042
    116  CE1      110.7250  131.3640  142.5510 C.ar  558  PHE558     -0.0003
    117  CE2      111.8630  129.7680  143.8930 C.ar  558  PHE558     -0.0003
    118  CZ       111.5440  131.0680  143.6120 C.ar  558  PHE558     -0.0000
    119  N        105.7460  129.3770  137.3660 N.3   561  ILE561     -0.1245
    120  CA       106.3460  130.4780  136.6110 C.3   561  ILE561      0.1561
    121  C        107.1230  129.9500  135.4090 C.2   561  ILE561      0.2260
    122  O        107.0810  130.5410  134.3240 O.2   561  ILE561     -0.2867
    123  CB       107.2200  131.3490  137.5310 C.3   561  ILE561      0.0252
    124  CG1      106.3480  132.0510  138.5600 C.3   561  ILE561      0.0019
    125  CG2      107.9530  132.4150  136.7640 C.3   561  ILE561      0.0019
    126  CD1      107.1270  132.7700  139.6200 C.3   561  ILE561      0.0001
    127  N        106.2490  130.8210  131.5230 N.3   565  LYS565     -0.1245
    128  CA       107.2430  131.3800  130.6150 C.3   565  LYS565      0.1561
    129  C        107.4190  130.5090  129.3840 C.2   565  LYS565      0.2260
    130  O        107.8000  131.0090  128.3230 O.2   565  LYS565     -0.2867
    131  CB       108.5780  131.5800  131.3200 C.3   565  LYS565      0.0271
    132  CG       108.5930  132.7590  132.2490 C.3   565  LYS565      0.0035
    133  CD       109.9360  132.9020  132.8990 C.3   565  LYS565      0.0206
    134  CE       110.9530  133.3220  131.8720 C.3   565  LYS565      0.1093
    135  NZ       112.2730  133.6220  132.4680 N.3   565  LYS565     -0.1314
@<TRIPOS>BOND
     1    25    24    2
     2    24    23    1
     3    23    22    1
     4    23    26    1
     5    26    27    1
     6   130   129    2
     7    27    28    1
     8   129   128    1
     9    28    29    2
    10    28    30   am
    11   128   131    1
    12   128   127    1
    13   131   132    1
    14   134   135    1
    15   134   133    1
    16   132   133    1
    17    17    16    2
    18    16    15    1
    19   122   121    2
    20    12    11    2
    21   121   120    1
    22    15    14    1
    23    15    18    1
    24    20    18    1
    25    11    14   am
    26    11    10    1
    27    38    36    1
    28    18    19    1
    29    10     9    1
    30    10    13    1
    31   120   119    1
    32   120   123    1
    33   125   123    1
    34    35    36    1
    35    35    32    1
    36    31    32    1
    37    36    37    1
    38   123   124    1
    39    32    33    1
    40    19    21    1
    41   111   110    2
    42   124   126    1
    43     4     3    2
    44    33    34    2
    45   110   109    1
    46     3     2    1
    47   109   112    1
    48   109   108    1
    49     2     1    1
    50     2     5    1
    51   112   113    1
    52     6     5    1
    53     6     7    1
    54   114   113   ar
    55   114   116   ar
    56    44    43    1
    57   113   115   ar
    58   116   118   ar
    59     8     7    1
    60    39    40    1
    61    43    40    1
    62   115   117   ar
    63   118   117   ar
    64    40    41    1
    65   103   102    2
    66    41    42    2
    67   102   101    1
    68    54    52   ar
    69    54    55   ar
    70    52    50   ar
    71   101   104    1
    72   101   100    1
    73    55    53   ar
    74    63    62    1
    75   104   105    1
    76    50    49    1
    77    50    51   ar
    78    62    61    1
    79   107   106    1
    80    45    46    1
    81    49    46    1
    82    53    51   ar
    83   105   106    1
    84    61    60    1
    85    46    47    1
    86    92    90   ar
    87    92    93   ar
    88    86    85    2
    89    90    88   ar
    90    56    47   am
    91    56    57    1
    92    93    91   ar
    93    60    57    1
    94    88    87    1
    95    88    89   ar
    96    47    48    2
    97    91    89   ar
    98    87    84    1
    99    57    58    1
   100    85    84    1
   101    85    94   am
   102    84    83    1
   103    82    80    1
   104    95    94    1
   105    95    96    1
   106    95    98    1
   107    58    59    2
   108    96    97    2
   109    98    99    1
   110    81    80    1
   111    80    79    1
   112    78    77    2
   113    79    76    1
   114    73    71   ar
   115    73    74   ar
   116    71    69   ar
   117    76    77    1
   118    76    75    1
   119    74    72   ar
   120    69    68    1
   121    69    70   ar
   122    64    65    1
   123    68    65    1
   124    65    66    1
   125    72    70   ar
   126    66    67    2
