@<TRIPOS>MOLECULE
tmp/6hijA09.pdb
 92 92 0 0 0
SMALL
GASTEIGER

@<TRIPOS>ATOM
      1  N        116.9690  113.2910  142.6540 N.3   401  MET401     -0.1245
      2  CA       116.8100  112.3090  143.7190 C.3   401  MET401      0.1570
      3  C        118.1180  111.6110  144.0430 C.2   401  MET401      0.2261
      4  O        118.4190  111.3910  145.2170 O.2   401  MET401     -0.2867
      5  CB       115.7630  111.2600  143.3550 C.3   401  MET401      0.0387
      6  CG       114.3560  111.7300  143.4980 C.3   401  MET401      0.0595
      7  SD       113.1060  110.5270  143.0370 S.3   401  MET401     -0.1393
      8  CE       113.2980  109.3500  144.3660 C.3   401  MET401      0.0692
      9  N        115.2430  113.8400  153.1360 N.3   429  PHE429     -0.1241
     10  CA       114.1140  114.5310  152.5300 C.3   429  PHE429      0.1605
     11  C        114.3570  116.0280  152.4430 C.2   429  PHE429      0.2264
     12  O        113.9680  116.6600  151.4610 O.2   429  PHE429     -0.2867
     13  CB       112.8490  114.2270  153.3200 C.3   429  PHE429      0.0534
     14  CG       111.6320  114.8730  152.7740 C.ar  429  PHE429     -0.0203
     15  CD1      111.0780  114.4370  151.5950 C.ar  429  PHE429     -0.0042
     16  CD2      111.0190  115.8950  153.4570 C.ar  429  PHE429     -0.0042
     17  CE1      109.9460  115.0320  151.0940 C.ar  429  PHE429     -0.0003
     18  CE2      109.8890  116.4900  152.9650 C.ar  429  PHE429     -0.0003
     19  CZ       109.3520  116.0590  151.7830 C.ar  429  PHE429     -0.0000
     20  N        116.7120  116.6160  149.5780 N.3   432  MET432     -0.1230
     21  CA       116.0150  116.4420  148.3110 C.3   432  MET432      0.1702
     22  C        115.0960  117.6210  148.0110 C.2   432  MET432      0.2592
     23  O        115.0050  118.0670  146.8610 O.2   432  MET432     -0.2718
     24  CB       115.2400  115.1340  148.3330 C.3   432  MET432      0.0401
     25  CG       114.6260  114.7740  147.0210 C.3   432  MET432      0.0596
     26  SD       113.7950  113.1920  147.1130 S.3   432  MET432     -0.1393
     27  CE       115.2060  112.1020  147.2220 C.3   432  MET432      0.0692
     28  N        114.4450  118.1750  149.0370 N.am  433  MET433     -0.1979
     29  CA       113.5500  119.3060  148.8170 C.3   433  MET433      0.1605
     30  C        114.3170  120.5750  148.4890 C.2   433  MET433      0.2287
     31  O        113.8680  121.3710  147.6600 O.2   433  MET433     -0.2864
     32  CB       112.6580  119.5300  150.0320 C.3   433  MET433      0.0413
     33  CG       111.6130  118.4770  150.2200 C.3   433  MET433      0.0598
     34  SD       110.4090  118.4770  148.9080 S.3   433  MET433     -0.1393
     35  CE       109.5130  119.9470  149.3550 C.3   433  MET433      0.0692
     36  N        107.6790  120.9000  166.6870 N.3   541  PRO541     -0.2102
     37  CA       107.8630  120.2550  165.3730 C.3   541  PRO541      0.1504
     38  C        107.2960  121.0380  164.2010 C.2   541  PRO541      0.2575
     39  O        107.6650  120.7670  163.0470 O.2   541  PRO541     -0.2718
     40  CB       107.1630  118.9040  165.5480 C.3   541  PRO541      0.0282
     41  CG       106.2330  119.0960  166.6580 C.3   541  PRO541      0.0208
     42  CD       106.9080  120.0350  167.5930 C.3   541  PRO541      0.0893
     43  N        106.4290  122.0210  164.4520 N.am  542  TRP542     -0.1977
     44  CA       106.0710  122.9430  163.3820 C.3   542  TRP542      0.1640
     45  C        107.2680  123.7830  162.9670 C.2   542  TRP542      0.2290
     46  O        107.3970  124.1460  161.7940 O.2   542  TRP542     -0.2864
     47  CB       104.9010  123.8340  163.7910 C.3   542  TRP542      0.0576
     48  CG       104.5170  124.7950  162.7110 C.ar  542  TRP542      0.0006
     49  CD1      104.6790  126.1430  162.7230 C.ar  542  TRP542      0.0946
     50  CD2      103.9740  124.4680  161.4280 C.ar  542  TRP542      0.0152
     51  NE1      104.2370  126.6830  161.5430 N.ar  542  TRP542     -0.2442
     52  CE2      103.8010  125.6720  160.7300 C.ar  542  TRP542      0.0810
     53  CE3      103.6000  123.2740  160.8110 C.ar  542  TRP542      0.0012
     54  CZ2      103.2770  125.7170  159.4460 C.ar  542  TRP542      0.0191
     55  CZ3      103.0830  123.3200  159.5400 C.ar  542  TRP542      0.0001
     56  CH2      102.9250  124.5320  158.8700 C.ar  542  TRP542      0.0015
     57  N        108.6090  121.5270  160.3030 N.3   545  TRP545     -0.1241
     58  CA       107.9140  121.1900  159.0650 C.3   545  TRP545      0.1605
     59  C        107.4300  122.4190  158.3100 C.2   545  TRP545      0.2264
     60  O        107.0220  122.3070  157.1450 O.2   545  TRP545     -0.2867
     61  CB       106.7620  120.2380  159.3460 C.3   545  TRP545      0.0550
     62  CG       107.2420  118.9210  159.8020 C.ar  545  TRP545      0.0003
     63  CD1      107.1720  118.4160  161.0580 C.ar  545  TRP545      0.0946
     64  CD2      107.9370  117.9540  159.0190 C.ar  545  TRP545      0.0152
     65  NE1      107.7470  117.1750  161.1020 N.ar  545  TRP545     -0.2442
     66  CE2      108.2300  116.8720  159.8580 C.ar  545  TRP545      0.0810
     67  CE3      108.3250  117.8910  157.6830 C.ar  545  TRP545      0.0012
     68  CZ2      108.8930  115.7430  159.4060 C.ar  545  TRP545      0.0191
     69  CZ3      108.9830  116.7740  157.2390 C.ar  545  TRP545      0.0001
     70  CH2      109.2600  115.7150  158.0940 C.ar  545  TRP545      0.0015
     71  N        109.6840  122.6680  155.3500 N.3   548  HIS548     -0.1226
     72  CA       109.3710  121.7980  154.2250 C.3   548  HIS548      0.1752
     73  C        108.1330  122.2660  153.4770 C.2   548  HIS548      0.2595
     74  O        108.0590  122.1190  152.2520 O.2   548  HIS548     -0.2718
     75  CB       109.1940  120.3660  154.6990 C.3   548  HIS548      0.0759
     76  CG       110.4450  119.7620  155.2340 C.ar  548  HIS548      0.0818
     77  ND1      110.8140  119.8720  156.5520 N.ar  548  HIS548     -0.2268
     78  CD2      111.4220  119.0570  154.6270 C.ar  548  HIS548      0.1154
     79  CE1      111.9620  119.2510  156.7390 C.ar  548  HIS548      0.1986
     80  NE2      112.3530  118.7460  155.5860 N.ar  548  HIS548     -0.2212
     81  N        107.1560  122.8570  154.1730 N.am  549  VAL549     -0.1980
     82  CA       106.0000  123.3470  153.4210 C.3   549  VAL549      0.1595
     83  C        106.3520  124.6330  152.6810 C.2   549  VAL549      0.2287
     84  O        105.8040  124.9060  151.6070 O.2   549  VAL549     -0.2864
     85  CB       104.7480  123.5100  154.3050 C.3   549  VAL549      0.0276
     86  CG1      104.4460  122.2220  155.0420 C.3   549  VAL549      0.0022
     87  CG2      104.8420  124.6780  155.2370 C.3   549  VAL549      0.0022
     88  N        108.0490  123.2890  149.5690 N.3   552  ALA552     -0.1245
     89  CA       107.0780  122.7320  148.6350 C.3   552  ALA552      0.1562
     90  C        106.2980  123.8270  147.9250 C.2   552  ALA552      0.2260
     91  O        106.0280  123.7250  146.7210 O.2   552  ALA552     -0.2867
     92  CB       106.1290  121.7890  149.3610 C.3   552  ALA552      0.0290
@<TRIPOS>BOND
     1     1     2    1
     2     7     6    1
     3     7     8    1
     4     5     6    1
     5     5     2    1
     6     2     3    1
     7     3     4    2
     8    91    90    2
     9    23    22    2
    10    25    26    1
    11    25    24    1
    12    26    27    1
    13    31    30    2
    14    90    89    1
    15    22    21    1
    16    22    28   am
    17    21    24    1
    18    21    20    1
    19    30    29    1
    20    89    92    1
    21    89    88    1
    22    29    28    1
    23    29    32    1
    24    34    35    1
    25    34    33    1
    26    32    33    1
    27    17    15   ar
    28    17    19   ar
    29    12    11    2
    30    15    14   ar
    31    84    83    2
    32    19    18   ar
    33    74    73    2
    34    11    10    1
    35    10     9    1
    36    10    13    1
    37    83    82    1
    38    14    13    1
    39    14    16   ar
    40    18    16   ar
    41    82    81    1
    42    82    85    1
    43    73    81   am
    44    73    72    1
    45    72    75    1
    46    72    71    1
    47    85    86    1
    48    85    87    1
    49    78    76   ar
    50    78    80   ar
    51    75    76    1
    52    76    77   ar
    53    80    79   ar
    54    77    79   ar
    55    60    59    2
    56    69    67   ar
    57    69    70   ar
    58    67    64   ar
    59    70    68   ar
    60    59    58    1
    61    56    54   ar
    62    56    55   ar
    63    64    62   ar
    64    64    66   ar
    65    58    61    1
    66    58    57    1
    67    61    62    1
    68    68    66   ar
    69    54    52   ar
    70    55    53   ar
    71    62    63   ar
    72    66    65   ar
    73    52    50   ar
    74    52    51   ar
    75    53    50   ar
    76    63    65   ar
    77    50    48   ar
    78    51    49   ar
    79    46    45    2
    80    48    49   ar
    81    48    47    1
    82    45    44    1
    83    39    38    2
    84    44    47    1
    85    44    43    1
    86    38    43   am
    87    38    37    1
    88    37    40    1
    89    37    36    1
    90    40    41    1
    91    41    42    1
    92    36    42    1
