@<TRIPOS>MOLECULE
tmp/6hijA02.pdb
 77 73 0 0 0
SMALL
GASTEIGER

@<TRIPOS>ATOM
      1  N        130.6370  113.8510  122.3950 N.3   140  PHE140     -0.1241
      2  CA       131.3900  112.7940  123.0620 C.3   140  PHE140      0.1605
      3  C        131.4000  111.5030  122.2530 C.2   140  PHE140      0.2264
      4  O        132.3880  110.7610  122.2790 O.2   140  PHE140     -0.2867
      5  CB       130.8380  112.5480  124.4660 C.3   140  PHE140      0.0534
      6  CG       131.0460  113.7010  125.4030 C.ar  140  PHE140     -0.0203
      7  CD1      132.3110  113.9880  125.8990 C.ar  140  PHE140     -0.0042
      8  CD2      129.9780  114.4870  125.8050 C.ar  140  PHE140     -0.0042
      9  CE1      132.5100  115.0540  126.7660 C.ar  140  PHE140     -0.0003
     10  CE2      130.1690  115.5500  126.6750 C.ar  140  PHE140     -0.0003
     11  CZ       131.4370  115.8320  127.1550 C.ar  140  PHE140     -0.0000
     12  N        126.3440  110.4290  128.4110 N.3   310  PRO310     -0.2102
     13  CA       126.8130  109.8520  129.6780 C.3   310  PRO310      0.1504
     14  C        127.5610  110.8390  130.5500 C.2   310  PRO310      0.2575
     15  O        127.6070  110.6560  131.7670 O.2   310  PRO310     -0.2718
     16  CB       127.7110  108.7030  129.2090 C.3   310  PRO310      0.0282
     17  CG       128.2800  109.2020  127.9250 C.3   310  PRO310      0.0208
     18  CD       127.2050  110.0440  127.2790 C.3   310  PRO310      0.0893
     19  N        128.1400  111.8890  129.9710 N.am  311  GLN311     -0.1980
     20  CA       129.1290  112.6660  130.7080 C.3   311  GLN311      0.1601
     21  C        128.4830  113.5660  131.7500 C.2   311  GLN311      0.2287
     22  O        128.8350  113.5010  132.9300 O.2   311  GLN311     -0.2864
     23  CB       129.9760  113.4800  129.7440 C.3   311  GLN311      0.0394
     24  CG       130.8010  112.6190  128.8140 C.3   311  GLN311      0.0908
     25  CD       131.8930  111.8570  129.5320 C.2   311  GLN311      0.2608
     26  OE1      132.5110  112.3700  130.4640 O.2   311  GLN311     -0.2717
     27  NE2      132.1410  110.6270  129.1000 N.am  311  GLN311     -0.0878
     28  N        126.6960  111.1760  134.4570 N.3   314  ILE314     -0.1231
     29  CA       127.5300  110.3310  135.3050 C.3   314  ILE314      0.1692
     30  C        128.5030  111.1780  136.1170 C.2   314  ILE314      0.2591
     31  O        128.7930  110.8660  137.2800 O.2   314  ILE314     -0.2718
     32  CB       128.2400  109.2620  134.4460 C.3   314  ILE314      0.0266
     33  CG1      127.2200  108.2680  133.8880 C.3   314  ILE314      0.0019
     34  CG2      129.2830  108.4840  135.2190 C.3   314  ILE314      0.0020
     35  CD1      126.4480  107.5250  134.9500 C.3   314  ILE314      0.0001
     36  N        128.9830  112.2870  135.5460 N.am  315  ALA315     -0.1980
     37  CA       130.0010  113.0880  136.2100 C.3   315  ALA315      0.1597
     38  C        129.4470  113.8000  137.4350 C.2   315  ALA315      0.2287
     39  O        130.1790  114.0400  138.3990 O.2   315  ALA315     -0.2864
     40  CB       130.5890  114.0880  135.2210 C.3   315  ALA315      0.0319
     41  N        129.5920  111.1700  140.0960 N.3   318  ILE318     -0.1231
     42  CA       130.9790  110.9540  140.5140 C.3   318  ILE318      0.1692
     43  C        131.4570  112.0850  141.4200 C.2   318  ILE318      0.2591
     44  O        132.0840  111.8410  142.4590 O.2   318  ILE318     -0.2718
     45  CB       131.8910  110.7830  139.2850 C.3   318  ILE318      0.0266
     46  CG1      131.5160  109.5190  138.5140 C.3   318  ILE318      0.0019
     47  CG2      133.3420  110.7170  139.6910 C.3   318  ILE318      0.0020
     48  CD1      131.6520  108.2560  139.3220 C.3   318  ILE318      0.0001
     49  N        131.1280  113.3300  141.0700 N.am  319  VAL319     -0.1980
     50  CA       131.5020  114.4740  141.9000 C.3   319  VAL319      0.1595
     51  C        130.7400  114.4600  143.2220 C.2   319  VAL319      0.2287
     52  O        131.2930  114.8060  144.2710 O.2   319  VAL319     -0.2864
     53  CB       131.2990  115.7730  141.0980 C.3   319  VAL319      0.0276
     54  CG1      131.3850  116.9980  141.9560 C.3   319  VAL319      0.0022
     55  CG2      132.3760  115.8620  140.0520 C.3   319  VAL319      0.0022
     56  N        132.5580  111.7490  145.3610 N.3   322  VAL322     -0.1231
     57  CA       133.8760  112.2070  145.8040 C.3   322  VAL322      0.1692
     58  C        133.7450  113.2980  146.8600 C.2   322  VAL322      0.2591
     59  O        134.4410  113.2810  147.8820 O.2   322  VAL322     -0.2718
     60  CB       134.7100  112.6700  144.6000 C.3   322  VAL322      0.0266
     61  CG1      135.9740  113.3480  145.0490 C.3   322  VAL322      0.0020
     62  CG2      135.0670  111.4760  143.7580 C.3   322  VAL322      0.0020
     63  N        132.8050  114.2210  146.6730 N.am  323  LEU323     -0.1980
     64  CA       132.6260  115.2780  147.6560 C.3   323  LEU323      0.1596
     65  C        131.9810  114.7570  148.9330 C.2   323  LEU323      0.2287
     66  O        132.2910  115.2490  150.0210 O.2   323  LEU323     -0.2864
     67  CB       131.8110  116.4020  147.0410 C.3   323  LEU323      0.0297
     68  CG       131.6730  117.6450  147.8900 C.3   323  LEU323      0.0022
     69  CD1      133.0280  118.1880  148.2150 C.3   323  LEU323      0.0001
     70  CD2      130.9330  118.6310  147.0980 C.3   323  LEU323      0.0001
     71  N        134.8680  113.3000  150.7840 N.3   326  VAL326     -0.1245
     72  CA       135.7330  114.3450  151.3340 C.3   326  VAL326      0.1561
     73  C        135.1090  114.9590  152.5850 C.2   326  VAL326      0.2260
     74  O        135.7880  115.1690  153.5950 O.2   326  VAL326     -0.2867
     75  CB       136.0420  115.4040  150.2610 C.3   326  VAL326      0.0252
     76  CG1      136.7180  116.5980  150.8570 C.3   326  VAL326      0.0019
     77  CG2      136.9620  114.8240  149.2330 C.3   326  VAL326      0.0019
@<TRIPOS>BOND
     1     3     4    2
     2     3     2    1
     3     1     2    1
     4     2     5    1
     5     5     6    1
     6     6     8   ar
     7     6     7   ar
     8     8    10   ar
     9     7     9   ar
    10    10    11   ar
    11     9    11   ar
    12    18    17    1
    13    18    12    1
    14    17    16    1
    15    12    13    1
    16    24    25    1
    17    24    23    1
    18    27    25   am
    19    16    13    1
    20    25    26    2
    21    13    14    1
    22    23    20    1
    23    19    14   am
    24    19    20    1
    25    14    15    2
    26    20    21    1
    27    21    22    2
    28    33    32    1
    29    33    35    1
    30    32    34    1
    31    32    29    1
    32    28    29    1
    33    40    37    1
    34    29    30    1
    35    36    30   am
    36    36    37    1
    37    30    31    2
    38    37    38    1
    39    38    39    2
    40    46    45    1
    41    46    48    1
    42    45    47    1
    43    45    42    1
    44    55    53    1
    45    41    42    1
    46    42    43    1
    47    49    43   am
    48    49    50    1
    49    53    50    1
    50    53    54    1
    51    43    44    2
    52    50    51    1
    53    51    52    2
    54    62    60    1
    55    60    61    1
    56    60    57    1
    57    56    57    1
    58    57    58    1
    59    63    58   am
    60    63    64    1
    61    58    59    2
    62    67    64    1
    63    67    68    1
    64    70    68    1
    65    64    65    1
    66    68    69    1
    67    65    66    2
    68    77    75    1
    69    75    76    1
    70    75    72    1
    71    71    72    1
    72    72    73    1
    73    73    74    2
