@<TRIPOS>MOLECULE
tmp/6hijA07.pdb
 98 93 0 0 0
SMALL
GASTEIGER

@<TRIPOS>ATOM
      1  N        103.0380  112.7340  126.8760 N.3   295  LEU295     -0.1231
      2  CA       103.9050  112.7420  128.0470 C.3   295  LEU295      0.1693
      3  C        104.8010  111.5110  128.0710 C.2   295  LEU295      0.2591
      4  O        105.9900  111.6150  128.3950 O.2   295  LEU295     -0.2718
      5  CB       103.0550  112.8450  129.3060 C.3   295  LEU295      0.0284
      6  CG       103.7030  113.0950  130.6530 C.3   295  LEU295      0.0019
      7  CD1      102.7590  113.9460  131.4330 C.3   295  LEU295      0.0001
      8  CD2      103.9060  111.7980  131.3900 C.3   295  LEU295      0.0001
      9  N        104.2670  110.3580  127.6600 N.am  296  ARG296     -0.1980
     10  CA       105.0510  109.1310  127.6420 C.3   296  ARG296      0.1597
     11  C        106.1630  109.1970  126.6080 C.2   296  ARG296      0.2287
     12  O        107.3090  108.8470  126.9010 O.2   296  ARG296     -0.2864
     13  CB       104.1420  107.9370  127.3720 C.3   296  ARG296      0.0334
     14  CG       104.8570  106.6050  127.4290 C.3   296  ARG296      0.0492
     15  CD       103.8980  105.4410  127.2150 C.3   296  ARG296      0.2205
     16  NE       102.8930  105.3580  128.2730 N.pl3 296  ARG296     -0.0865
     17  CZ       101.5860  105.5170  128.0840 C.cat 296  ARG296      0.5346
     18  NH1      101.1090  105.7550  126.8700 N.pl3 296  ARG296      0.1354
     19  NH2      100.7530  105.4290  129.1110 N.pl3 296  ARG296      0.1354
     20  N        108.8160  111.9940  127.6170 N.3   299  SER299     -0.1202
     21  CA       109.6180  111.5380  128.7420 C.3   299  SER299      0.2020
     22  C        110.5430  110.3960  128.3460 C.2   299  SER299      0.2618
     23  O        111.6840  110.3250  128.8150 O.2   299  SER299     -0.2717
     24  CB       108.7020  111.1130  129.8770 C.3   299  SER299      0.2103
     25  OG       109.4620  110.6360  130.9600 O.3   299  SER299     -0.2182
     26  N        110.0880  109.5230  127.4420 N.am  300  LYS300     -0.1979
     27  CA       110.9270  108.4350  126.9540 C.3   300  LYS300      0.1596
     28  C        112.0970  108.9510  126.1320 C.2   300  LYS300      0.2287
     29  O        113.2310  108.4880  126.3060 O.2   300  LYS300     -0.2864
     30  CB       110.0800  107.4760  126.1290 C.3   300  LYS300      0.0298
     31  CG       110.8160  106.2910  125.5760 C.3   300  LYS300      0.0038
     32  CD       109.8390  105.3790  124.8610 C.3   300  LYS300      0.0206
     33  CE       110.5310  104.1790  124.2550 C.3   300  LYS300      0.1093
     34  NZ       109.5510  103.2930  123.5760 N.3   300  LYS300     -0.1314
     35  N        114.5790  110.7040  128.5330 N.3   303  PHE303     -0.1241
     36  CA       115.3380  109.7630  129.3500 C.3   303  PHE303      0.1605
     37  C        116.3620  109.0090  128.5160 C.2   303  PHE303      0.2264
     38  O        117.4620  108.7070  128.9930 O.2   303  PHE303     -0.2867
     39  CB       114.3950  108.7900  130.0470 C.3   303  PHE303      0.0534
     40  CG       115.0870  107.8440  130.9650 C.ar  303  PHE303     -0.0203
     41  CD1      115.5480  108.2730  132.1940 C.ar  303  PHE303     -0.0042
     42  CD2      115.2810  106.5250  130.6020 C.ar  303  PHE303     -0.0042
     43  CE1      116.1920  107.4050  133.0450 C.ar  303  PHE303     -0.0003
     44  CE2      115.9230  105.6500  131.4490 C.ar  303  PHE303     -0.0003
     45  CZ       116.3810  106.0920  132.6720 C.ar  303  PHE303     -0.0000
     46  N        109.6190  115.0670  134.5250 N.3   393  LEU393     -0.1231
     47  CA       109.6050  113.6950  135.0060 C.3   393  LEU393      0.1693
     48  C        110.8200  112.9210  134.5200 C.2   393  LEU393      0.2592
     49  O        111.1850  111.9030  135.1130 O.2   393  LEU393     -0.2718
     50  CB       108.3090  113.0290  134.5490 C.3   393  LEU393      0.0284
     51  CG       107.9270  111.6240  134.9800 C.3   393  LEU393      0.0019
     52  CD1      107.7630  111.5840  136.4750 C.3   393  LEU393      0.0001
     53  CD2      106.6460  111.2330  134.2920 C.3   393  LEU393      0.0001
     54  N        111.4770  113.3980  133.4710 N.am  394  SER394     -0.1952
     55  CA       112.6030  112.6840  132.8970 C.3   394  SER394      0.1924
     56  C        113.9590  113.1710  133.3800 C.2   394  SER394      0.2314
     57  O        114.7720  112.3600  133.8150 O.2   394  SER394     -0.2863
     58  CB       112.5580  112.7860  131.3790 C.3   394  SER394      0.2116
     59  OG       113.7000  112.1800  130.8250 O.3   394  SER394     -0.2180
     60  N        113.6250  114.8490  137.8260 N.3   397  LEU397     -0.1231
     61  CA       113.3250  114.0060  138.9830 C.3   397  LEU397      0.1678
     62  C        114.4580  113.0460  139.3610 C.2   397  LEU397      0.2434
     63  O        114.9000  113.1020  140.5230 O.2   397  LEU397     -0.2733
     64  CB       111.9920  113.2850  138.7650 C.3   397  LEU397      0.0284
     65  CG       111.4710  112.4590  139.9280 C.3   397  LEU397      0.0019
     66  CD1      111.0640  113.3830  141.0300 C.3   397  LEU397      0.0001
     67  CD2      110.3090  111.5980  139.4940 C.3   397  LEU397      0.0001
     68  N        114.9870  112.1670  138.4810 N.am  398  PRO398     -0.2729
     69  CA       116.0050  111.2280  138.9720 C.3   398  PRO398      0.1401
     70  C        117.3610  111.8580  139.2300 C.2   398  PRO398      0.2269
     71  O        118.0390  111.4440  140.1820 O.2   398  PRO398     -0.2865
     72  CB       116.0920  110.1830  137.8570 C.3   398  PRO398      0.0296
     73  CG       115.7650  110.9020  136.6680 C.3   398  PRO398      0.0237
     74  CD       114.7400  111.9100  137.0460 C.3   398  PRO398      0.0939
     75  N        116.9690  113.2910  142.6540 N.3   401  MET401     -0.1230
     76  CA       116.8100  112.3090  143.7190 C.3   401  MET401      0.1702
     77  C        118.1180  111.6110  144.0430 C.2   401  MET401      0.2592
     78  O        118.4190  111.3910  145.2170 O.2   401  MET401     -0.2718
     79  CB       115.7630  111.2600  143.3550 C.3   401  MET401      0.0401
     80  CG       114.3560  111.7300  143.4980 C.3   401  MET401      0.0596
     81  SD       113.1060  110.5270  143.0370 S.3   401  MET401     -0.1393
     82  CE       113.2980  109.3500  144.3660 C.3   401  MET401      0.0692
     83  N        118.9000  111.2430  143.0260 N.am  402  LEU402     -0.1980
     84  CA       120.0750  110.4080  143.2810 C.3   402  LEU402      0.1596
     85  C        121.2070  111.1170  144.0370 C.2   402  LEU402      0.2287
     86  O        121.7430  110.5060  144.9810 O.2   402  LEU402     -0.2864
     87  CB       120.5520  109.7680  141.9700 C.3   402  LEU402      0.0297
     88  CG       120.0000  108.3870  141.5740 C.3   402  LEU402      0.0022
     89  CD1      120.4450  107.3590  142.5960 C.3   402  LEU402      0.0001
     90  CD2      118.4690  108.3190  141.3810 C.3   402  LEU402      0.0001
     91  N        120.3330  111.4340  147.9550 N.3   405  ILE405     -0.1245
     92  CA       120.4280  110.1250  148.5940 C.3   405  ILE405      0.1561
     93  C        121.8850  109.7370  148.8050 C.2   405  ILE405      0.2260
     94  O        122.2600  109.2330  149.8740 O.2   405  ILE405     -0.2867
     95  CB       119.6750  109.0750  147.7570 C.3   405  ILE405      0.0252
     96  CG1      118.1820  109.3800  147.7460 C.3   405  ILE405      0.0019
     97  CG2      119.8930  107.6900  148.2970 C.3   405  ILE405      0.0019
     98  CD1      117.4060  108.5670  146.7400 C.3   405  ILE405      0.0001
@<TRIPOS>BOND
     1    34    33    1
     2    33    32    1
     3    32    31    1
     4    31    30    1
     5    30    27    1
     6    28    29    2
     7    28    27    1
     8    11    12    2
     9    11    10    1
    10    18    17    1
    11     1     2    1
    12    27    26    1
    13    15    14    1
    14    15    16    1
    15    13    14    1
    16    13    10    1
    17    26    22   am
    18    20    21    1
    19    10     9    1
    20     9     3   am
    21     2     3    1
    22     2     5    1
    23     3     4    2
    24    17    16    2
    25    17    19    1
    26    22    21    1
    27    22    23    2
    28    37    38    2
    29    37    36    1
    30    35    36    1
    31    21    24    1
    32     5     6    1
    33    36    39    1
    34    24    25    1
    35    39    40    1
    36    42    40   ar
    37    42    44   ar
    38     6     8    1
    39     6     7    1
    40    59    58    1
    41    40    41   ar
    42    58    55    1
    43    44    45   ar
    44    41    43   ar
    45    45    43   ar
    46    55    56    1
    47    55    54    1
    48    56    57    2
    49    54    48   am
    50    53    51    1
    51    48    47    1
    52    48    49    2
    53    46    47    1
    54    50    51    1
    55    50    47    1
    56    51    52    1
    57    73    74    1
    58    73    72    1
    59    74    68    1
    60    60    61    1
    61    72    69    1
    62    68    69    1
    63    68    62   am
    64    64    61    1
    65    64    65    1
    66    69    70    1
    67    61    62    1
    68    70    71    2
    69    62    63    2
    70    67    65    1
    71    65    66    1
    72    90    88    1
    73    88    87    1
    74    88    89    1
    75    87    84    1
    76    75    76    1
    77    83    84    1
    78    83    77   am
    79    81    80    1
    80    81    82    1
    81    84    85    1
    82    79    80    1
    83    79    76    1
    84    76    77    1
    85    85    86    2
    86    77    78    2
    87    98    96    1
    88    96    95    1
    89    95    97    1
    90    95    92    1
    91    91    92    1
    92    92    93    1
    93    93    94    2
