@<TRIPOS>MOLECULE
tmp/6hijA01.pdb
 87 83 0 0 0
SMALL
GASTEIGER

@<TRIPOS>ATOM
      1  N        125.5600  123.7070  156.8200 N.3   349  PHE349     -0.1241
      2  CA       125.5860  124.8190  155.8800 C.3   349  PHE349      0.1605
      3  C        126.2360  124.4270  154.5690 C.2   349  PHE349      0.2264
      4  O        125.7570  124.8140  153.4960 O.2   349  PHE349     -0.2867
      5  CB       126.3180  125.9930  156.4990 C.3   349  PHE349      0.0534
      6  CG       126.3500  127.1980  155.6420 C.ar  349  PHE349     -0.0203
      7  CD1      125.2220  127.9550  155.4630 C.ar  349  PHE349     -0.0042
      8  CD2      127.5180  127.5960  155.0370 C.ar  349  PHE349     -0.0042
      9  CE1      125.2590  129.0660  154.6840 C.ar  349  PHE349     -0.0003
     10  CE2      127.5530  128.7130  154.2590 C.ar  349  PHE349     -0.0003
     11  CZ       126.4260  129.4470  154.0830 C.ar  349  PHE349     -0.0000
     12  N        123.8950  125.2790  144.9330 N.3   357  PHE357     -0.1241
     13  CA       124.7790  125.6110  143.8190 C.3   357  PHE357      0.1605
     14  C        124.9330  124.4740  142.8260 C.2   357  PHE357      0.2264
     15  O        125.2520  124.7180  141.6620 O.2   357  PHE357     -0.2867
     16  CB       126.1350  126.0360  144.3240 C.3   357  PHE357      0.0534
     17  CG       126.1810  127.4420  144.7210 C.ar  357  PHE357     -0.0203
     18  CD1      126.4160  128.4160  143.7820 C.ar  357  PHE357     -0.0042
     19  CD2      125.9570  127.8120  146.0090 C.ar  357  PHE357     -0.0042
     20  CE1      126.4500  129.7200  144.1500 C.ar  357  PHE357     -0.0003
     21  CE2      125.9880  129.1000  146.3580 C.ar  357  PHE357     -0.0003
     22  CZ       126.2370  130.0610  145.4390 C.ar  357  PHE357     -0.0000
     23  N        124.4770  133.1910  135.6300 N.3   457  LEU457     -0.1245
     24  CA       124.9640  134.2800  136.4660 C.3   457  LEU457      0.1561
     25  C        123.8770  134.8090  137.3850 C.2   457  LEU457      0.2260
     26  O        124.1380  135.0950  138.5570 O.2   457  LEU457     -0.2867
     27  CB       125.5040  135.3950  135.5850 C.3   457  LEU457      0.0270
     28  CG       126.0260  136.6290  136.2940 C.3   457  LEU457      0.0019
     29  CD1      127.1480  136.2390  137.2020 C.3   457  LEU457      0.0001
     30  CD2      126.4990  137.6100  135.2610 C.3   457  LEU457      0.0001
     31  N        123.3970  132.4990  140.2650 N.3   460  THR460     -0.1203
     32  CA       124.4540  132.5890  141.2630 C.3   460  THR460      0.1994
     33  C        124.3180  133.8500  142.1160 C.2   460  THR460      0.2617
     34  O        124.5740  133.8080  143.3260 O.2   460  THR460     -0.2717
     35  CB       125.8060  132.5240  140.5770 C.3   460  THR460      0.1784
     36  OG1      125.8060  131.4270  139.6620 O.3   460  THR460     -0.2211
     37  CG2      126.8410  132.2210  141.5810 C.3   460  THR460      0.0376
     38  N        123.8740  134.9660  141.5180 N.am  461  ILE461     -0.1979
     39  CA       123.6220  136.1830  142.2970 C.3   461  ILE461      0.1595
     40  C        122.5020  135.9550  143.3060 C.2   461  ILE461      0.2287
     41  O        122.6310  136.3090  144.4850 O.2   461  ILE461     -0.2864
     42  CB       123.2970  137.3760  141.3790 C.3   461  ILE461      0.0276
     43  CG1      124.4360  137.6640  140.4150 C.3   461  ILE461      0.0022
     44  CG2      123.0280  138.6140  142.1810 C.3   461  ILE461      0.0022
     45  CD1      125.7120  137.9750  141.0580 C.3   461  ILE461      0.0001
     46  N        123.8680  133.8710  146.2320 N.3   464  VAL464     -0.1231
     47  CA       124.7510  134.5130  147.2050 C.3   464  VAL464      0.1692
     48  C        123.9930  135.5540  148.0090 C.2   464  VAL464      0.2592
     49  O        124.4460  135.9830  149.0740 O.2   464  VAL464     -0.2718
     50  CB       126.0050  135.1020  146.5440 C.3   464  VAL464      0.0266
     51  CG1      126.6850  134.0410  145.7760 C.3   464  VAL464      0.0020
     52  CG2      125.6900  136.2700  145.6920 C.3   464  VAL464      0.0020
     53  N        122.8180  135.9680  147.5340 N.am  465  PHE465     -0.1976
     54  CA       121.9790  136.7880  148.4050 C.3   465  PHE465      0.1639
     55  C        121.0690  135.9400  149.2840 C.2   465  PHE465      0.2290
     56  O        120.5010  136.4420  150.2560 O.2   465  PHE465     -0.2864
     57  CB       121.1750  137.7920  147.5970 C.3   465  PHE465      0.0560
     58  CG       121.9740  138.9680  147.1700 C.ar  465  PHE465     -0.0200
     59  CD1      122.2600  139.9690  148.0730 C.ar  465  PHE465     -0.0042
     60  CD2      122.4440  139.0810  145.8820 C.ar  465  PHE465     -0.0042
     61  CE1      122.9970  141.0570  147.6970 C.ar  465  PHE465     -0.0003
     62  CE2      123.1820  140.1600  145.4950 C.ar  465  PHE465     -0.0003
     63  CZ       123.4580  141.1520  146.3970 C.ar  465  PHE465     -0.0000
     64  N        122.3030  133.0110  150.7180 N.3   467  MET467     -0.1230
     65  CA       123.1400  132.3750  151.7290 C.3   467  MET467      0.1702
     66  C        123.5530  133.3330  152.8270 C.2   467  MET467      0.2592
     67  O        124.0560  132.8900  153.8610 O.2   467  MET467     -0.2718
     68  CB       124.3910  131.7870  151.1120 C.3   467  MET467      0.0401
     69  CG       124.1600  130.6350  150.2160 C.3   467  MET467      0.0596
     70  SD       125.7810  130.1300  149.6970 S.3   467  MET467     -0.1393
     71  CE       126.2180  131.5820  148.7970 C.3   467  MET467      0.0692
     72  N        123.4080  134.6380  152.6160 N.am  468  ILE468     -0.1980
     73  CA       123.5900  135.5590  153.7270 C.3   468  ILE468      0.1595
     74  C        122.4740  135.3590  154.7350 C.2   468  ILE468      0.2287
     75  O        122.7150  135.2400  155.9390 O.2   468  ILE468     -0.2864
     76  CB       123.6420  137.0090  153.2270 C.3   468  ILE468      0.0276
     77  CG1      124.7220  137.1680  152.1810 C.3   468  ILE468      0.0022
     78  CG2      123.9830  137.9240  154.3500 C.3   468  ILE468      0.0022
     79  CD1      124.6330  138.4690  151.4620 C.3   468  ILE468      0.0001
     80  N        125.9950  132.8730  158.6260 N.3   473  LEU473     -0.1245
     81  CA       126.8490  134.0500  158.5560 C.3   473  LEU473      0.1561
     82  C        126.3400  135.1510  159.4730 C.2   473  LEU473      0.2260
     83  O        127.0560  135.5990  160.3690 O.2   473  LEU473     -0.2867
     84  CB       126.9380  134.5540  157.1240 C.3   473  LEU473      0.0270
     85  CG       127.4680  133.6100  156.0580 C.3   473  LEU473      0.0019
     86  CD1      127.4960  134.3630  154.7760 C.3   473  LEU473      0.0001
     87  CD2      128.8230  133.0960  156.3920 C.3   473  LEU473      0.0001
@<TRIPOS>BOND
     1    30    28    1
     2    27    28    1
     3    27    24    1
     4    23    24    1
     5    28    29    1
     6    24    25    1
     7    25    26    2
     8    36    35    1
     9    31    32    1
    10    43    45    1
    11    43    42    1
    12    35    32    1
    13    35    37    1
    14    32    33    1
    15    42    44    1
    16    42    39    1
    17    38    33   am
    18    38    39    1
    19    15    14    2
    20    33    34    2
    21    39    40    1
    22    14    13    1
    23    40    41    2
    24    18    20   ar
    25    18    17   ar
    26    13    16    1
    27    13    12    1
    28    20    22   ar
    29    16    17    1
    30    17    19   ar
    31    22    21   ar
    32    62    60   ar
    33    62    63   ar
    34    52    50    1
    35    51    50    1
    36    60    58   ar
    37    19    21   ar
    38    46    47    1
    39    63    61   ar
    40    50    47    1
    41    58    57    1
    42    58    59   ar
    43    47    48    1
    44    53    48   am
    45    53    54    1
    46    57    54    1
    47    61    59   ar
    48    48    49    2
    49    54    55    1
    50    71    70    1
    51    55    56    2
    52    70    69    1
    53    69    68    1
    54    64    65    1
    55    68    65    1
    56    79    77    1
    57    65    66    1
    58    77    76    1
    59    72    66   am
    60    72    73    1
    61    66    67    2
    62    76    73    1
    63    76    78    1
    64     4     3    2
    65    73    74    1
    66    11    10   ar
    67    11     9   ar
    68    10     8   ar
    69     3     2    1
    70     9     7   ar
    71    74    75    2
    72    86    85    1
    73     8     6   ar
    74     7     6   ar
    75     6     5    1
    76     2     5    1
    77     2     1    1
    78    85    87    1
    79    85    84    1
    80    84    81    1
    81    81    80    1
    82    81    82    1
    83    82    83    2
