@<TRIPOS>MOLECULE
tmp/6hijA03.pdb
 122 120 0 0 0
SMALL
GASTEIGER

@<TRIPOS>ATOM
      1  N        112.6530  135.2390  154.1850 N.3   488  TYR488     -0.1227
      2  CA       111.6530  134.2520  153.8060 C.3   488  TYR488      0.1736
      3  C        111.7940  133.8630  152.3460 C.2   488  TYR488      0.2595
      4  O        111.2580  132.8400  151.9140 O.2   488  TYR488     -0.2718
      5  CB       110.2540  134.7870  154.0950 C.3   488  TYR488      0.0548
      6  CG       110.0100  134.9790  155.5640 C.ar  488  TYR488     -0.0200
      7  CD1      109.6940  133.9040  156.3780 C.ar  488  TYR488     -0.0009
      8  CD2      110.1200  136.2300  156.1430 C.ar  488  TYR488     -0.0009
      9  CE1      109.4860  134.0720  157.7260 C.ar  488  TYR488      0.0417
     10  CE2      109.9130  136.4080  157.4890 C.ar  488  TYR488      0.0417
     11  CZ       109.5970  135.3270  158.2730 C.ar  488  TYR488      0.1957
     12  OH       109.3890  135.5080  159.6170 O.3   488  TYR488     -0.2866
     13  N        112.5290  134.6560  151.5760 N.am  489  PHE489     -0.1976
     14  CA       112.7100  134.3670  150.1640 C.3   489  PHE489      0.1639
     15  C        113.7740  133.3150  149.9090 C.2   489  PHE489      0.2290
     16  O        113.8940  132.8520  148.7720 O.2   489  PHE489     -0.2864
     17  CB       113.0940  135.6380  149.4060 C.3   489  PHE489      0.0560
     18  CG       111.9850  136.6380  149.2710 C.ar  489  PHE489     -0.0200
     19  CD1      110.6750  136.2900  149.5010 C.ar  489  PHE489     -0.0042
     20  CD2      112.2640  137.9340  148.8970 C.ar  489  PHE489     -0.0042
     21  CE1      109.6660  137.2120  149.3720 C.ar  489  PHE489     -0.0003
     22  CE2      111.2560  138.8620  148.7640 C.ar  489  PHE489     -0.0003
     23  CZ       109.9560  138.4960  149.0030 C.ar  489  PHE489     -0.0000
     24  N        117.9360  129.0160  153.7520 N.3   493  ARG493     -0.1231
     25  CA       117.4720  129.2510  155.1150 C.3   493  ARG493      0.1694
     26  C        116.4800  128.1910  155.5430 C.2   493  ARG493      0.2592
     27  O        116.5540  127.6980  156.6700 O.2   493  ARG493     -0.2718
     28  CB       116.8650  130.6440  155.2390 C.3   493  ARG493      0.0321
     29  CG       116.4570  131.0790  156.6330 C.3   493  ARG493      0.0489
     30  CD       114.9620  131.0320  156.8360 C.3   493  ARG493      0.2205
     31  NE       114.5890  131.4730  158.1710 N.pl3 493  ARG493     -0.0865
     32  CZ       113.3860  131.2980  158.7000 C.cat 493  ARG493      0.5346
     33  NH1      112.4380  130.6910  158.0060 N.pl3 493  ARG493      0.1354
     34  NH2      113.1320  131.7190  159.9280 N.pl3 493  ARG493      0.1354
     35  N        115.5970  127.7690  154.6380 N.am  494  TYR494     -0.1976
     36  CA       114.6340  126.7360  154.9940 C.3   494  TYR494      0.1639
     37  C        115.2930  125.3750  155.1020 C.2   494  TYR494      0.2290
     38  O        115.0400  124.6400  156.0640 O.2   494  TYR494     -0.2864
     39  CB       113.4980  126.6990  153.9890 C.3   494  TYR494      0.0560
     40  CG       112.6640  127.9340  154.0400 C.ar  494  TYR494     -0.0198
     41  CD1      111.8450  128.1830  155.1170 C.ar  494  TYR494     -0.0009
     42  CD2      112.6670  128.8330  153.0000 C.ar  494  TYR494     -0.0009
     43  CE1      111.0870  129.3060  155.1740 C.ar  494  TYR494      0.0417
     44  CE2      111.9040  129.9550  153.0450 C.ar  494  TYR494      0.0417
     45  CZ       111.1160  130.1810  154.1310 C.ar  494  TYR494      0.1957
     46  OH       110.3430  131.3020  154.1820 O.3   494  TYR494     -0.2866
     47  N        106.4290  122.0210  164.4520 N.3   542  TRP542     -0.1241
     48  CA       106.0710  122.9430  163.3820 C.3   542  TRP542      0.1605
     49  C        107.2680  123.7830  162.9670 C.2   542  TRP542      0.2264
     50  O        107.3970  124.1460  161.7940 O.2   542  TRP542     -0.2867
     51  CB       104.9010  123.8340  163.7910 C.3   542  TRP542      0.0550
     52  CG       104.5170  124.7950  162.7110 C.ar  542  TRP542      0.0003
     53  CD1      104.6790  126.1430  162.7230 C.ar  542  TRP542      0.0946
     54  CD2      103.9740  124.4680  161.4280 C.ar  542  TRP542      0.0152
     55  NE1      104.2370  126.6830  161.5430 N.ar  542  TRP542     -0.2442
     56  CE2      103.8010  125.6720  160.7300 C.ar  542  TRP542      0.0810
     57  CE3      103.6000  123.2740  160.8110 C.ar  542  TRP542      0.0012
     58  CZ2      103.2770  125.7170  159.4460 C.ar  542  TRP542      0.0191
     59  CZ3      103.0830  123.3200  159.5400 C.ar  542  TRP542      0.0001
     60  CH2      102.9250  124.5320  158.8700 C.ar  542  TRP542      0.0015
     61  N        107.4910  123.6080  158.9180 N.3   546  LYS546     -0.1245
     62  CA       107.1390  124.7890  158.1410 C.3   546  LYS546      0.1561
     63  C        108.2030  125.1060  157.1110 C.2   546  LYS546      0.2260
     64  O        107.8930  125.6980  156.0740 O.2   546  LYS546     -0.2867
     65  CB       106.8920  125.9990  159.0340 C.3   546  LYS546      0.0271
     66  CG       108.0930  126.5720  159.7200 C.3   546  LYS546      0.0035
     67  CD       107.6690  127.7260  160.5900 C.3   546  LYS546      0.0206
     68  CE       108.8400  128.3260  161.3180 C.3   546  LYS546      0.1093
     69  NZ       108.4040  129.4410  162.1950 N.3   546  LYS546     -0.1314
     70  N        107.1560  122.8570  154.1730 N.3   549  VAL549     -0.1231
     71  CA       106.0000  123.3470  153.4210 C.3   549  VAL549      0.1692
     72  C        106.3520  124.6330  152.6810 C.2   549  VAL549      0.2591
     73  O        105.8040  124.9060  151.6070 O.2   549  VAL549     -0.2718
     74  CB       104.7480  123.5100  154.3050 C.3   549  VAL549      0.0266
     75  CG1      104.4460  122.2220  155.0420 C.3   549  VAL549      0.0020
     76  CG2      104.8420  124.6780  155.2370 C.3   549  VAL549      0.0020
     77  N        107.3260  125.4000  153.1850 N.am  550  ALA550     -0.1980
     78  CA       107.7960  126.5600  152.4380 C.3   550  ALA550      0.1597
     79  C        108.5650  126.1400  151.2000 C.2   550  ALA550      0.2287
     80  O        108.4260  126.7540  150.1370 O.2   550  ALA550     -0.2864
     81  CB       108.6630  127.4410  153.3200 C.3   550  ALA550      0.0319
     82  N        105.9680  124.9080  148.6320 N.3   553  CYS553     -0.1221
     83  CA       105.2710  126.0000  147.9650 C.3   553  CYS553      0.1808
     84  C        106.1950  126.7690  147.0270 C.2   553  CYS553      0.2601
     85  O        105.7420  127.2940  146.0050 O.2   553  CYS553     -0.2717
     86  CB       104.6370  126.9310  148.9870 C.3   553  CYS553      0.0970
     87  SG       103.2680  126.1990  149.9010 S.3   553  CYS553     -0.0800
     88  N        107.4980  126.8140  147.3180 N.am  554  MET554     -0.1979
     89  CA       108.3990  127.4540  146.3620 C.3   554  MET554      0.1605
     90  C        108.6180  126.5830  145.1310 C.2   554  MET554      0.2287
     91  O        108.7880  127.1080  144.0280 O.2   554  MET554     -0.2864
     92  CB       109.7260  127.8230  147.0130 C.3   554  MET554      0.0413
     93  CG       109.5880  128.9360  148.0200 C.3   554  MET554      0.0598
     94  SD       111.1250  129.4680  148.7710 S.3   554  MET554     -0.1393
     95  CE       111.7890  130.4730  147.4570 C.3   554  MET554      0.0692
     96  N        105.3570  127.3280  143.0830 N.3   557  ILE557     -0.1231
     97  CA       105.3750  128.6580  142.4730 C.3   557  ILE557      0.1692
     98  C        106.4130  128.7430  141.3580 C.2   557  ILE557      0.2592
     99  O        106.1380  129.2850  140.2810 O.2   557  ILE557     -0.2718
    100  CB       105.6040  129.7300  143.5510 C.3   557  ILE557      0.0266
    101  CG1      104.3830  129.8260  144.4480 C.3   557  ILE557      0.0019
    102  CG2      105.8870  131.0780  142.9460 C.3   557  ILE557      0.0020
    103  CD1      104.6120  130.6470  145.6680 C.3   557  ILE557      0.0001
    104  N        107.5970  128.1640  141.5660 N.am  558  PHE558     -0.1976
    105  CA       108.6480  128.2820  140.5650 C.3   558  PHE558      0.1639
    106  C        108.3680  127.4190  139.3430 C.2   558  PHE558      0.2290
    107  O        108.6610  127.8310  138.2160 O.2   558  PHE558     -0.2864
    108  CB       109.9860  127.9390  141.1980 C.3   558  PHE558      0.0560
    109  CG       110.5460  129.0420  142.0400 C.ar  558  PHE558     -0.0200
    110  CD1      110.2190  130.3560  141.7800 C.ar  558  PHE558     -0.0042
    111  CD2      111.3630  128.7620  143.1150 C.ar  558  PHE558     -0.0042
    112  CE1      110.7250  131.3640  142.5510 C.ar  558  PHE558     -0.0003
    113  CE2      111.8630  129.7680  143.8930 C.ar  558  PHE558     -0.0003
    114  CZ       111.5440  131.0680  143.6120 C.ar  558  PHE558     -0.0000
    115  N        105.7460  129.3770  137.3660 N.3   561  ILE561     -0.1245
    116  CA       106.3460  130.4780  136.6110 C.3   561  ILE561      0.1561
    117  C        107.1230  129.9500  135.4090 C.2   561  ILE561      0.2260
    118  O        107.0810  130.5410  134.3240 O.2   561  ILE561     -0.2867
    119  CB       107.2200  131.3490  137.5310 C.3   561  ILE561      0.0252
    120  CG1      106.3480  132.0510  138.5600 C.3   561  ILE561      0.0019
    121  CG2      107.9530  132.4150  136.7640 C.3   561  ILE561      0.0019
    122  CD1      107.1270  132.7700  139.6200 C.3   561  ILE561      0.0001
@<TRIPOS>BOND
     1   118   117    2
     2   117   116    1
     3   116   115    1
     4   116   119    1
     5   121   119    1
     6   119   120    1
     7   107   106    2
     8   120   122    1
     9   106   105    1
    10    99    98    2
    11   105   108    1
    12   105   104    1
    13   108   109    1
    14    98   104   am
    15    98    97    1
    16   110   109   ar
    17   110   112   ar
    18   109   111   ar
    19    97    96    1
    20    97   100    1
    21   112   114   ar
    22   102   100    1
    23   111   113   ar
    24   100   101    1
    25   114   113   ar
    26    91    90    2
    27   101   103    1
    28    90    89    1
    29    85    84    2
    30    89    92    1
    31    89    88    1
    32    92    93    1
    33    84    88   am
    34    84    83    1
    35    95    94    1
    36    83    82    1
    37    83    86    1
    38    93    94    1
    39    22    20   ar
    40    22    23   ar
    41    16    15    2
    42    20    18   ar
    43    86    87    1
    44    23    21   ar
    45    18    17    1
    46    18    19   ar
    47    21    19   ar
    48    17    14    1
    49    15    14    1
    50    80    79    2
    51    14    13    1
    52    79    78    1
    53    13     3   am
    54    73    72    2
    55     4     3    2
    56     3     2    1
    57    78    77    1
    58    78    81    1
    59    72    77   am
    60    72    71    1
    61    42    44   ar
    62    42    40   ar
    63    44    45   ar
    64    71    70    1
    65    71    74    1
    66    24    25    1
    67     2     5    1
    68     2     1    1
    69    39    40    1
    70    39    36    1
    71    40    41   ar
    72     5     6    1
    73    45    46    1
    74    45    43   ar
    75    74    75    1
    76    74    76    1
    77    35    36    1
    78    35    26   am
    79    36    37    1
    80    37    38    2
    81    25    28    1
    82    25    26    1
    83    41    43   ar
    84    28    29    1
    85    26    27    2
    86     6     8   ar
    87     6     7   ar
    88    64    63    2
    89     8    10   ar
    90     7     9   ar
    91    29    30    1
    92    30    31    1
    93    63    62    1
    94    10    11   ar
    95     9    11   ar
    96    33    32    1
    97    62    61    1
    98    62    65    1
    99    31    32    2
   100    11    12    1
   101    32    34    1
   102    60    58   ar
   103    60    59   ar
   104    65    66    1
   105    58    56   ar
   106    59    57   ar
   107    66    67    1
   108    67    68    1
   109    56    54   ar
   110    56    55   ar
   111    57    54   ar
   112    68    69    1
   113    54    52   ar
   114    55    53   ar
   115    50    49    2
   116    52    53   ar
   117    52    51    1
   118    49    48    1
   119    48    51    1
   120    48    47    1
