@<TRIPOS>MOLECULE
tmp/6hisB00.pdb
 105 106 0 0 0
SMALL
GASTEIGER

@<TRIPOS>ATOM
      1  N        150.1430  134.9580  152.2650 N.3    35  ASP35      -0.1225
      2  CA       150.9940  134.2390  151.3270 C.3    35  ASP35       0.1805
      3  C        150.1190  133.5900  150.2650 C.2    35  ASP35       0.2598
      4  O        149.0640  133.0360  150.5820 O.2    35  ASP35      -0.2718
      5  CB       151.8370  133.1940  152.0560 C.3    35  ASP35       0.1424
      6  CG       152.9200  132.5860  151.1840 C.2    35  ASP35       0.3668
      7  OD1      153.0990  133.0150  150.0230 O.co2  35  ASP35      -0.2456
      8  OD2      153.6180  131.6730  151.6710 O.co2  35  ASP35      -0.2456
      9  N        150.5490  133.6630  149.0100 N.am   36  VAL36      -0.1966
     10  CA       149.7670  133.1750  147.8790 C.3    36  VAL36       0.1727
     11  C        150.5770  132.1960  147.0490 C.2    36  VAL36       0.2616
     12  O        151.7220  132.4830  146.6880 O.2    36  VAL36      -0.2715
     13  CB       149.3100  134.3370  146.9800 C.3    36  VAL36       0.0290
     14  CG1      148.6170  133.8300  145.7210 C.3    36  VAL36       0.0023
     15  CG2      148.4110  135.2480  147.7290 C.3    36  VAL36       0.0023
     16  N        149.9990  131.0370  146.7620 N.am   37  ILE37      -0.1977
     17  CA       150.5120  130.1780  145.7080 C.3    37  ILE37       0.1596
     18  C        149.3480  130.0180  144.7460 C.2    37  ILE37       0.2287
     19  O        148.3080  129.4640  145.1210 O.2    37  ILE37      -0.2864
     20  CB       150.9830  128.8070  146.2190 C.3    37  ILE37       0.0276
     21  CG1      151.2240  127.8110  145.0810 C.3    37  ILE37       0.0022
     22  CG2      149.9600  128.2300  147.1750 C.3    37  ILE37       0.0022
     23  CD1      151.9860  126.5350  145.4800 C.3    37  ILE37       0.0001
     24  N        146.2410  128.3290  146.5970 N.3    56  TRP56      -0.1227
     25  CA       146.6430  127.7250  147.8590 C.3    56  TRP56       0.1737
     26  C        147.0130  128.8990  148.7530 C.2    56  TRP56       0.2595
     27  O        148.0010  129.5890  148.4880 O.2    56  TRP56      -0.2718
     28  CB       147.8260  126.7790  147.6590 C.3    56  TRP56       0.0564
     29  CG       147.4440  125.5140  146.9800 C.ar   56  TRP56       0.0003
     30  CD1      146.2190  125.2060  146.4990 C.ar   56  TRP56       0.0946
     31  CD2      148.2980  124.4210  146.6270 C.ar   56  TRP56       0.0152
     32  NE1      146.2360  123.9790  145.8990 N.ar   56  TRP56      -0.2442
     33  CE2      147.5030  123.4740  145.9630 C.ar   56  TRP56       0.0810
     34  CE3      149.6510  124.1440  146.8190 C.ar   56  TRP56       0.0012
     35  CZ2      148.0080  122.2750  145.4910 C.ar   56  TRP56       0.0191
     36  CZ3      150.1520  122.9550  146.3390 C.ar   56  TRP56       0.0001
     37  CH2      149.3320  122.0300  145.6960 C.ar   56  TRP56       0.0015
     38  N        146.2250  129.1300  149.7980 N.am   57  TYR57      -0.1962
     39  CA       146.2770  130.3820  150.5440 C.3    57  TYR57       0.1771
     40  C        146.7040  130.1670  151.9920 C.2    57  TYR57       0.2619
     41  O        146.5020  129.0870  152.5500 O.2    57  TYR57      -0.2715
     42  CB       144.9040  131.0310  150.4730 C.3    57  TYR57       0.0574
     43  CG       144.7620  132.3600  151.1200 C.ar   57  TYR57      -0.0198
     44  CD1      145.3090  133.4780  150.5370 C.ar   57  TYR57      -0.0009
     45  CD2      144.0540  132.5070  152.2930 C.ar   57  TYR57      -0.0009
     46  CE1      145.1560  134.7060  151.1020 C.ar   57  TYR57       0.0417
     47  CE2      143.9010  133.7310  152.8670 C.ar   57  TYR57       0.0417
     48  CZ       144.4620  134.8220  152.2810 C.ar   57  TYR57       0.1957
     49  OH       144.2960  136.0410  152.8800 O.3    57  TYR57      -0.2866
     50  N        147.3300  131.1790  152.5800 N.am   58  ARG58      -0.1977
     51  CA       147.8030  131.0680  153.9500 C.3    58  ARG58       0.1597
     52  C        147.5750  132.3340  154.7610 C.2    58  ARG58       0.2287
     53  O        147.5350  133.4420  154.2250 O.2    58  ARG58      -0.2864
     54  CB       149.2890  130.6990  153.9700 C.3    58  ARG58       0.0334
     55  CG       149.5570  129.2050  154.0480 C.3    58  ARG58       0.0492
     56  CD       151.0410  128.9170  154.2030 C.3    58  ARG58       0.2205
     57  NE       151.6440  129.7140  155.2670 N.pl3  58  ARG58      -0.0865
     58  CZ       152.5240  130.6900  155.0630 C.cat  58  ARG58       0.5346
     59  NH1      152.9080  130.9910  153.8310 N.pl3  58  ARG58       0.1354
     60  NH2      153.0220  131.3630  156.0920 N.pl3  58  ARG58       0.1354
     61  N        146.0910  127.6380  157.1750 N.3   119  TYR119     -0.1241
     62  CA       146.1360  127.2080  155.7860 C.3   119  TYR119      0.1605
     63  C        144.7260  126.8650  155.3220 C.2   119  TYR119      0.2264
     64  O        143.9600  126.2640  156.0760 O.2   119  TYR119     -0.2867
     65  CB       147.0070  125.9650  155.6010 C.3   119  TYR119      0.0534
     66  CG       148.4810  126.1100  155.8700 C.ar  119  TYR119     -0.0201
     67  CD1      149.0930  127.3490  155.9130 C.ar  119  TYR119     -0.0009
     68  CD2      149.2650  124.9830  156.0620 C.ar  119  TYR119     -0.0009
     69  CE1      150.4460  127.4560  156.1550 C.ar  119  TYR119      0.0417
     70  CE2      150.6060  125.0820  156.3010 C.ar  119  TYR119      0.0417
     71  CZ       151.1910  126.3170  156.3460 C.ar  119  TYR119      0.1957
     72  OH       152.5380  126.4050  156.5880 O.3   119  TYR119     -0.2866
     73  N        154.2060  137.3860  153.9650 N.3   161  TRP161     -0.1227
     74  CA       154.7490  136.3620  154.8450 C.3   161  TRP161      0.1737
     75  C        156.2170  136.0780  154.5560 C.2   161  TRP161      0.2595
     76  O        156.9750  135.7360  155.4700 O.2   161  TRP161     -0.2718
     77  CB       153.8940  135.1000  154.7560 C.3   161  TRP161      0.0564
     78  CG       154.4710  133.9020  155.4340 C.ar  161  TRP161      0.0003
     79  CD1      154.8390  132.7370  154.8410 C.ar  161  TRP161      0.0946
     80  CD2      154.8000  133.7700  156.8170 C.ar  161  TRP161      0.0152
     81  NE1      155.3490  131.8770  155.7720 N.ar  161  TRP161     -0.2442
     82  CE2      155.3330  132.4880  156.9950 C.ar  161  TRP161      0.0810
     83  CE3      154.6850  134.6050  157.9250 C.ar  161  TRP161      0.0012
     84  CZ2      155.7580  132.0190  158.2290 C.ar  161  TRP161      0.0191
     85  CZ3      155.1260  134.1470  159.1320 C.ar  161  TRP161      0.0001
     86  CH2      155.6340  132.8650  159.2850 C.ar  161  TRP161      0.0015
     87  N        156.6490  136.2110  153.3070 N.am  162  ARG162     -0.1980
     88  CA       158.0680  136.1050  153.0000 C.3   162  ARG162      0.1597
     89  C        158.4470  137.1430  151.9460 C.2   162  ARG162      0.2287
     90  O        157.6760  138.0560  151.6420 O.2   162  ARG162     -0.2864
     91  CB       158.4350  134.6840  152.5650 C.3   162  ARG162      0.0334
     92  CG       157.8290  134.2310  151.2700 C.3   162  ARG162      0.0492
     93  CD       158.2820  132.8220  150.9760 C.3   162  ARG162      0.2205
     94  NE       157.8420  132.3680  149.6610 N.pl3 162  ARG162     -0.0865
     95  CZ       156.6680  131.7960  149.4310 C.cat 162  ARG162      0.5346
     96  NH1      155.8250  131.6150  150.4310 N.pl3 162  ARG162      0.1354
     97  NH2      156.3380  131.4060  148.2070 N.pl3 162  ARG162      0.1354
     98  N        157.4930  132.3340  141.7770 N.3   170  ASP170     -0.1239
     99  CA       156.8840  131.0720  142.1900 C.3   170  ASP170      0.1674
    100  C        156.0830  130.4650  141.0470 C.2   170  ASP170      0.2266
    101  O        154.9830  130.9120  140.7160 O.2   170  ASP170     -0.2867
    102  CB       156.0260  131.3150  143.4300 C.3   170  ASP170      0.1410
    103  CG       155.6540  130.0330  144.1770 C.2   170  ASP170      0.3668
    104  OD1      155.5370  128.9500  143.5700 O.co2 170  ASP170     -0.2456
    105  OD2      155.5380  130.1060  145.4180 O.co2 170  ASP170     -0.2456
@<TRIPOS>BOND
     1   101   100    2
     2   100    99    1
     3    98    99    1
     4    99   102    1
     5   102   103    1
     6   104   103   ar
     7   103   105   ar
     8    18    19    2
     9    18    17    1
    10    21    23    1
    11    21    20    1
    12    35    37   ar
    13    35    33   ar
    14    37    36   ar
    15    17    20    1
    16    17    16    1
    17    14    13    1
    18    32    33   ar
    19    32    30   ar
    20    33    31   ar
    21    20    22    1
    22    36    34   ar
    23    30    29   ar
    24    24    25    1
    25    31    34   ar
    26    31    29   ar
    27    12    11    2
    28    16    11   am
    29    13    15    1
    30    13    10    1
    31    29    28    1
    32    11    10    1
    33    28    25    1
    34    25    26    1
    35    10     9    1
    36    97    95    1
    37    27    26    2
    38    26    38   am
    39     9     3   am
    40    95    94    2
    41    95    96    1
    42    94    93    1
    43    38    39    1
    44     7     6   ar
    45     3     4    2
    46     3     2    1
    47    42    39    1
    48    42    43    1
    49    44    46   ar
    50    44    43   ar
    51    39    40    1
    52    93    92    1
    53    46    48   ar
    54    43    45   ar
    55     6     8   ar
    56     6     5    1
    57    92    91    1
    58     2     5    1
    59     2     1    1
    60    90    89    2
    61    89    88    1
    62    40    41    2
    63    40    50   am
    64    48    47   ar
    65    48    49    1
    66    45    47   ar
    67    91    88    1
    68    50    51    1
    69    88    87    1
    70    87    75   am
    71    59    58    1
    72    51    54    1
    73    51    52    1
    74    73    74    1
    75    54    55    1
    76    55    56    1
    77    56    57    1
    78    53    52    2
    79    75    74    1
    80    75    76    2
    81    77    74    1
    82    77    78    1
    83    79    78   ar
    84    79    81   ar
    85    58    57    2
    86    58    60    1
    87    63    62    1
    88    63    64    2
    89    78    80   ar
    90    65    62    1
    91    65    66    1
    92    81    82   ar
    93    62    61    1
    94    66    67   ar
    95    66    68   ar
    96    67    69   ar
    97    68    70   ar
    98    69    71   ar
    99    70    71   ar
   100    71    72    1
   101    80    82   ar
   102    80    83   ar
   103    82    84   ar
   104    83    85   ar
   105    84    86   ar
   106    85    86   ar
