@<TRIPOS>MOLECULE
tmp/6hizI00.pdb
 107 100 0 0 0
SMALL
GASTEIGER

@<TRIPOS>ATOM
      1  N        306.3030  281.0370  188.4240 N.3   123  ARG123     -0.1245
      2  CA       306.2620  282.1390  189.3790 C.3   123  ARG123      0.1563
      3  C        307.3920  283.1610  189.2100 C.2   123  ARG123      0.2260
      4  O        307.9650  283.6180  190.1980 O.2   123  ARG123     -0.2867
      5  CB       306.2910  281.6010  190.8060 C.3   123  ARG123      0.0307
      6  CG       305.1000  280.7690  191.1840 C.3   123  ARG123      0.0489
      7  CD       305.1860  280.3750  192.6470 C.3   123  ARG123      0.2205
      8  NE       304.2400  279.3070  192.9160 N.pl3 123  ARG123     -0.0865
      9  CZ       302.9590  279.5040  193.2010 C.cat 123  ARG123      0.5346
     10  NH1      302.4680  280.7380  193.2740 N.pl3 123  ARG123      0.1354
     11  NH2      302.1710  278.4610  193.4200 N.pl3 123  ARG123      0.1354
     12  N        298.9170  283.5450  190.6810 N.3   162  LYS162     -0.1245
     13  CA       299.9640  282.5820  190.9580 C.3   162  LYS162      0.1561
     14  C        301.1590  283.2940  191.6090 C.2   162  LYS162      0.2260
     15  O        301.7340  282.8200  192.5950 O.2   162  LYS162     -0.2867
     16  CB       300.3660  281.8530  189.6770 C.3   162  LYS162      0.0271
     17  CG       299.8340  280.4160  189.5880 C.3   162  LYS162      0.0035
     18  CD       300.6280  279.5140  190.5210 C.3   162  LYS162      0.0206
     19  CE       300.6940  278.1060  189.9960 C.3   162  LYS162      0.1093
     20  NZ       299.3100  277.5890  189.7690 N.3   162  LYS162     -0.1314
     21  N        291.6180  279.9570  192.0450 N.3   193  PHE193     -0.1241
     22  CA       292.9320  280.5880  192.1490 C.3   193  PHE193      0.1605
     23  C        292.8360  282.0290  192.6220 C.2   193  PHE193      0.2264
     24  O        293.6400  282.4770  193.4560 O.2   193  PHE193     -0.2867
     25  CB       293.6690  280.5360  190.8180 C.3   193  PHE193      0.0534
     26  CG       294.3970  279.2520  190.5900 C.ar  193  PHE193     -0.0203
     27  CD1      295.6440  279.0470  191.1440 C.ar  193  PHE193     -0.0042
     28  CD2      293.8320  278.2440  189.8230 C.ar  193  PHE193     -0.0042
     29  CE1      296.3130  277.8580  190.9390 C.ar  193  PHE193     -0.0003
     30  CE2      294.4990  277.0470  189.6120 C.ar  193  PHE193     -0.0003
     31  CZ       295.7380  276.8530  190.1710 C.ar  193  PHE193     -0.0000
     32  N        292.1200  282.1700  196.3930 N.3   196  LYS196     -0.1245
     33  CA       293.2880  281.7820  197.1910 C.3   196  LYS196      0.1561
     34  C        294.3220  282.9000  197.2560 C.2   196  LYS196      0.2260
     35  O        294.8480  283.2190  198.3330 O.2   196  LYS196     -0.2867
     36  CB       293.9420  280.5140  196.6440 C.3   196  LYS196      0.0271
     37  CG       295.0080  279.9480  197.5630 C.3   196  LYS196      0.0035
     38  CD       295.7740  278.8060  196.9090 C.3   196  LYS196      0.0206
     39  CE       295.0900  277.4610  197.1320 C.3   196  LYS196      0.1093
     40  NZ       295.8130  276.3460  196.4630 N.3   196  LYS196     -0.1314
     41  N        295.5200  285.0060  200.6470 N.3   200  ARG200     -0.1245
     42  CA       296.8940  285.1510  201.1410 C.3   200  ARG200      0.1563
     43  C        297.2450  286.6120  201.3440 C.2   200  ARG200      0.2260
     44  O        297.7110  286.9890  202.4150 O.2   200  ARG200     -0.2867
     45  CB       297.9190  284.5530  200.1970 C.3   200  ARG200      0.0307
     46  CG       297.8730  283.0840  200.0190 C.3   200  ARG200      0.0489
     47  CD       298.8970  282.7460  198.9640 C.3   200  ARG200      0.2205
     48  NE       298.5330  281.5840  198.1680 N.pl3 200  ARG200     -0.0865
     49  CZ       298.9860  281.3640  196.9400 C.cat 200  ARG200      0.5346
     50  NH1      299.8040  282.2320  196.3660 N.pl3 200  ARG200      0.1354
     51  NH2      298.6200  280.2770  196.2830 N.pl3 200  ARG200      0.1354
     52  N        287.1090  275.2530  194.9180 N.3   225  GLU225     -0.1245
     53  CA       287.9260  274.3560  195.7150 C.3   225  GLU225      0.1567
     54  C        288.0590  274.8420  197.1570 C.2   225  GLU225      0.2260
     55  O        288.3480  276.0130  197.4120 O.2   225  GLU225     -0.2867
     56  CB       289.2710  274.1500  195.0290 C.3   225  GLU225      0.0388
     57  CG       290.4840  274.8080  195.6270 C.3   225  GLU225      0.1160
     58  CD       291.7410  274.4600  194.8300 C.2   225  GLU225      0.3649
     59  OE1      291.7030  273.4570  194.0710 O.co2 225  GLU225     -0.2457
     60  OE2      292.7550  275.1930  194.9520 O.co2 225  GLU225     -0.2457
     61  N        289.9140  274.5870  199.8570 N.3   227  ARG227     -0.1245
     62  CA       291.1210  275.2300  200.3640 C.3   227  ARG227      0.1563
     63  C        291.1210  276.7250  200.1120 C.2   227  ARG227      0.2260
     64  O        291.4080  277.5230  201.0070 O.2   227  ARG227     -0.2867
     65  CB       292.3470  274.6160  199.7070 C.3   227  ARG227      0.0307
     66  CG       293.6590  275.0830  200.2660 C.3   227  ARG227      0.0489
     67  CD       294.3880  273.8730  200.7240 C.3   227  ARG227      0.2205
     68  NE       295.6990  273.7290  200.1180 N.pl3 227  ARG227     -0.0865
     69  CZ       296.3680  272.5850  200.1380 C.cat 227  ARG227      0.5346
     70  NH1      295.8210  271.5160  200.7070 N.pl3 227  ARG227      0.1354
     71  NH2      297.5710  272.5040  199.5920 N.pl3 227  ARG227      0.1354
     72  N        300.6370  271.6510  204.6390 N.3   274  LYS274     -0.1231
     73  CA       300.1660  271.5900  203.2590 C.3   274  LYS274      0.1693
     74  C        300.2780  272.9150  202.5230 C.2   274  LYS274      0.2592
     75  O        300.2920  272.9330  201.2950 O.2   274  LYS274     -0.2718
     76  CB       298.7080  271.1260  203.2010 C.3   274  LYS274      0.0285
     77  CG       298.4730  269.6690  203.5740 C.3   274  LYS274      0.0035
     78  CD       296.9800  269.3710  203.6780 C.3   274  LYS274      0.0206
     79  CE       296.7140  267.9590  204.1730 C.3   274  LYS274      0.1093
     80  NZ       295.2610  267.6310  204.1450 N.3   274  LYS274     -0.1314
     81  N        300.3480  274.0210  203.2580 N.am  275  LEU275     -0.1966
     82  CA       300.3900  275.3380  202.6280 C.3   275  LEU275      0.1728
     83  C        301.8130  275.8640  202.4350 C.2   275  LEU275      0.2616
     84  O        302.6890  275.6130  203.2690 O.2   275  LEU275     -0.2715
     85  CB       299.5790  276.3360  203.4440 C.3   275  LEU275      0.0311
     86  CG       298.0930  276.0070  203.5770 C.3   275  LEU275      0.0022
     87  CD1      297.3890  277.1490  204.2760 C.3   275  LEU275      0.0001
     88  CD2      297.4560  275.7230  202.2170 C.3   275  LEU275      0.0001
     89  N        302.0370  276.5800  201.3290 N.am  276  ARG276     -0.1963
     90  CA       303.3330  277.1820  201.0340 C.3   276  ARG276      0.1729
     91  C        303.5650  278.3610  201.9600 C.2   276  ARG276      0.2616
     92  O        304.6570  278.5440  202.4970 O.2   276  ARG276     -0.2715
     93  CB       303.4040  277.6270  199.5800 C.3   276  ARG276      0.0348
     94  CG       304.8120  277.8170  199.0450 C.3   276  ARG276      0.0492
     95  CD       304.7920  278.2750  197.5890 C.3   276  ARG276      0.2205
     96  NE       304.5910  279.7180  197.4520 N.pl3 276  ARG276     -0.0865
     97  CZ       303.4250  280.2980  197.1780 C.cat 276  ARG276      0.5346
     98  NH1      302.3400  279.5640  197.0040 N.pl3 276  ARG276      0.1354
     99  NH2      303.3390  281.6150  197.0740 N.pl3 276  ARG276      0.1354
    100  N        302.5250  279.1650  202.1390 N.am  277  ILE277     -0.1977
    101  CA       302.5030  280.1820  203.1910 C.3   277  ILE277      0.1596
    102  C        301.5050  279.7490  204.2720 C.2   277  ILE277      0.2287
    103  O        300.3350  279.5120  203.9650 O.2   277  ILE277     -0.2864
    104  CB       302.1100  281.5710  202.6440 C.3   277  ILE277      0.0276
    105  CG1      303.0740  281.9930  201.5310 C.3   277  ILE277      0.0022
    106  CG2      302.0450  282.6090  203.7740 C.3   277  ILE277      0.0022
    107  CD1      302.7120  283.3090  200.8780 C.3   277  ILE277      0.0001
@<TRIPOS>BOND
     1     1     2    1
     2     3     2    1
     3     3     4    2
     4     2     5    1
     5    17    16    1
     6    17    18    1
     7    30    28   ar
     8    30    31   ar
     9    16    13    1
    10    20    19    1
    11    28    26   ar
    12    19    18    1
    13    31    29   ar
    14    26    25    1
    15    26    27   ar
    16    12    13    1
    17     5     6    1
    18    25    22    1
    19    29    27   ar
    20    13    14    1
    21     6     7    1
    22    14    15    2
    23    21    22    1
    24    22    23    1
    25    23    24    2
    26     7     8    1
    27     8     9    2
    28     9    10    1
    29     9    11    1
    30    59    58   ar
    31    58    60   ar
    32    58    57    1
    33    52    53    1
    34    56    57    1
    35    56    53    1
    36    53    54    1
    37    51    49    1
    38    50    49    1
    39    32    33    1
    40    40    39    1
    41    36    33    1
    42    36    37    1
    43    38    39    1
    44    38    37    1
    45    49    48    2
    46    98    97    1
    47    99    97    1
    48    54    55    2
    49    97    96    2
    50    33    34    1
    51    34    35    2
    52    96    95    1
    53    95    94    1
    54    48    47    1
    55    47    46    1
    56    94    93    1
    57    93    90    1
    58    71    69    1
    59    65    66    1
    60    65    62    1
    61    61    62    1
    62    46    45    1
    63    63    62    1
    64    63    64    2
    65    68    69    2
    66    68    67    1
    67    69    70    1
    68    45    42    1
    69    66    67    1
    70    41    42    1
    71   107   105    1
    72    90    89    1
    73    90    91    1
    74    42    43    1
    75    75    74    2
    76    89    83   am
    77    43    44    2
    78   105   104    1
    79    91   100   am
    80    91    92    2
    81   100   101    1
    82    88    86    1
    83    83    82    1
    84    83    84    2
    85    74    81   am
    86    74    73    1
    87    82    81    1
    88    82    85    1
    89   104   101    1
    90   104   106    1
    91   101   102    1
    92    76    73    1
    93    76    77    1
    94    73    72    1
    95    85    86    1
    96    77    78    1
    97    86    87    1
    98    78    79    1
    99   103   102    2
   100    80    79    1
