@<TRIPOS>MOLECULE
tmp/6hizW00.pdb
 216 208 0 0 0
SMALL
GASTEIGER

@<TRIPOS>ATOM
      1  N        274.1280  155.2480  171.8720 N.3    69  MET69      -0.1245
      2  CA       275.1230  155.1810  172.9110 C.3    69  MET69       0.1570
      3  C        275.6760  153.7730  172.9250 C.2    69  MET69       0.2261
      4  O        274.9340  152.8200  172.6970 O.2    69  MET69      -0.2867
      5  CB       274.4970  155.5530  174.2460 C.3    69  MET69       0.0387
      6  CG       275.4920  155.9000  175.3570 C.3    69  MET69       0.0595
      7  SD       276.0120  157.6460  175.4650 S.3    69  MET69      -0.1393
      8  CE       274.7030  158.4220  174.5270 C.3    69  MET69       0.0692
      9  N        290.4650  165.4800  178.6350 N.3    87  GLY87      -0.1210
     10  CA       290.5260  166.2760  179.8370 C.3    87  GLY87       0.1956
     11  C        289.4780  165.9640  180.8840 C.2    87  GLY87       0.2612
     12  O        289.8210  165.5120  181.9730 O.2    87  GLY87      -0.2717
     13  N        288.2090  166.1540  180.5670 N.am   88  ARG88      -0.1965
     14  CA       287.1790  165.8470  181.5420 C.3    88  ARG88       0.1729
     15  C        286.4660  164.5360  181.2750 C.2    88  ARG88       0.2616
     16  O        285.5250  164.2100  181.9970 O.2    88  ARG88      -0.2715
     17  CB       286.1600  166.9780  181.6220 C.3    88  ARG88       0.0348
     18  CG       286.7380  168.2640  182.1890 C.3    88  ARG88       0.0492
     19  CD       286.2920  168.5160  183.6220 C.3    88  ARG88       0.2205
     20  NE       286.4390  169.9350  183.9410 N.pl3  88  ARG88      -0.0865
     21  CZ       285.4350  170.8100  183.9610 C.cat  88  ARG88       0.5346
     22  NH1      284.1920  170.4110  183.7090 N.pl3  88  ARG88       0.1354
     23  NH2      285.6740  172.0850  184.2510 N.pl3  88  ARG88       0.1354
     24  N        286.8730  163.7990  180.2420 N.am   89  VAL89      -0.1977
     25  CA       286.0550  162.6870  179.7460 C.3    89  VAL89       0.1596
     26  C        285.6890  161.6770  180.8200 C.2    89  VAL89       0.2287
     27  O        284.5720  161.1580  180.8470 O.2    89  VAL89      -0.2864
     28  CB       286.7550  161.9730  178.6010 C.3    89  VAL89       0.0276
     29  CG1      286.2170  160.5590  178.4140 C.3    89  VAL89       0.0022
     30  CG2      286.5750  162.7750  177.3340 C.3    89  VAL89       0.0022
     31  N        284.8600  161.9990  183.8440 N.3    91  GLN91      -0.1231
     32  CA       283.9110  162.4340  184.8720 C.3    91  GLN91       0.1698
     33  C        282.5690  161.7090  184.8470 C.2    91  GLN91       0.2592
     34  O        281.7590  161.8410  185.7650 O.2    91  GLN91      -0.2718
     35  CB       283.6390  163.9210  184.7310 C.3    91  GLN91       0.0381
     36  CG       282.7670  164.2420  183.5450 C.3    91  GLN91       0.0905
     37  CD       282.6250  165.7230  183.3300 C.2    91  GLN91       0.2608
     38  OE1      282.7940  166.5180  184.2610 O.2    91  GLN91      -0.2717
     39  NE2      282.3240  166.1130  182.0940 N.am   91  GLN91      -0.0878
     40  N        282.3220  160.9880  183.7640 N.am   92  THR92      -0.1953
     41  CA       281.0900  160.2420  183.5780 C.3    92  THR92       0.1897
     42  C        281.3190  158.7730  183.9510 C.2    92  THR92       0.2313
     43  O        280.3980  157.9600  183.9460 O.2    92  THR92      -0.2863
     44  CB       280.6080  160.4000  182.1160 C.3    92  THR92       0.1794
     45  OG1      280.3940  161.7910  181.8480 O.3    92  THR92      -0.2208
     46  CG2      279.3190  159.6670  181.8560 C.3    92  THR92       0.0378
     47  N        280.2980  154.8380  179.0350 N.3   100  GLY100     -0.1210
     48  CA       279.4990  155.1190  177.8540 C.3   100  GLY100      0.1956
     49  C        280.1870  156.0290  176.8690 C.2   100  GLY100      0.2612
     50  O        281.0660  156.8090  177.2320 O.2   100  GLY100     -0.2717
     51  N        279.7940  155.9260  175.6120 N.am  101  PHE101     -0.1962
     52  CA       280.2290  156.8670  174.6010 C.3   101  PHE101      0.1771
     53  C        279.1010  157.0980  173.6240 C.2   101  PHE101      0.2619
     54  O        278.4950  156.1430  173.1280 O.2   101  PHE101     -0.2715
     55  CB       281.4730  156.3680  173.8770 C.3   101  PHE101      0.0574
     56  CG       282.7550  156.5960  174.6280 C.ar  101  PHE101     -0.0200
     57  CD1      283.2970  157.8680  174.7240 C.ar  101  PHE101     -0.0042
     58  CD2      283.4390  155.5300  175.2160 C.ar  101  PHE101     -0.0042
     59  CE1      284.4950  158.0780  175.4030 C.ar  101  PHE101     -0.0003
     60  CE2      284.6340  155.7340  175.9040 C.ar  101  PHE101     -0.0003
     61  CZ       285.1590  157.0100  175.9950 C.ar  101  PHE101     -0.0000
     62  N        278.8010  158.3550  173.3500 N.am  102  LEU102     -0.1977
     63  CA       277.8270  158.6550  172.3280 C.3   102  LEU102      0.1596
     64  C        278.5410  158.5710  171.0030 C.2   102  LEU102      0.2287
     65  O        279.5780  159.1970  170.8050 O.2   102  LEU102     -0.2864
     66  CB       277.2100  160.0320  172.5360 C.3   102  LEU102      0.0297
     67  CG       276.3220  160.5380  171.3960 C.3   102  LEU102      0.0022
     68  CD1      275.0660  159.7180  171.2630 C.3   102  LEU102      0.0001
     69  CD2      275.9630  161.9790  171.6170 C.3   102  LEU102      0.0001
     70  N        278.8240  159.7360  167.6680 N.3   104  ARG104     -0.1245
     71  CA       278.2840  160.8780  166.9310 C.3   104  ARG104      0.1563
     72  C        278.5710  160.6710  165.4630 C.2   104  ARG104      0.2260
     73  O        279.3150  159.7510  165.1160 O.2   104  ARG104     -0.2867
     74  CB       278.9020  162.1960  167.3750 C.3   104  ARG104      0.0307
     75  CG       278.9960  162.4280  168.8560 C.3   104  ARG104      0.0489
     76  CD       278.4110  163.7830  169.1720 C.3   104  ARG104      0.2205
     77  NE       279.3790  164.7310  169.7080 N.pl3 104  ARG104     -0.0865
     78  CZ       279.2730  166.0510  169.5760 C.cat 104  ARG104      0.5346
     79  NH1      278.2540  166.5950  168.9100 N.pl3 104  ARG104      0.1354
     80  NH2      280.1960  166.8360  170.1090 N.pl3 104  ARG104      0.1354
     81  N        283.9190  175.5720  174.2060 N.3   143  THR143     -0.1203
     82  CA       284.2800  174.7720  175.3680 C.3   143  THR143      0.1994
     83  C        283.2160  173.7250  175.6250 C.2   143  THR143      0.2618
     84  O        282.0230  174.0220  175.5760 O.2   143  THR143     -0.2717
     85  CB       284.4480  175.6240  176.6270 C.3   143  THR143      0.1784
     86  OG1      285.6400  176.4040  176.5120 O.3   143  THR143     -0.2211
     87  CG2      284.5780  174.7380  177.8710 C.3   143  THR143      0.0376
     88  N        283.6380  172.4930  175.8670 N.am  144  GLY144     -0.1942
     89  CA       282.7330  171.5120  176.4180 C.3   144  GLY144      0.2014
     90  C        281.8020  170.7860  175.4630 C.2   144  GLY144      0.2639
     91  O        280.8580  170.1500  175.9170 O.2   144  GLY144     -0.2714
     92  N        282.0560  170.8540  174.1590 N.am  145  CYS145     -0.1953
     93  CA       281.4160  169.9410  173.2140 C.3   145  CYS145      0.1843
     94  C        282.2910  168.7020  173.1350 C.2   145  CYS145      0.2626
     95  O        283.1190  168.4840  173.9880 O.2   145  CYS145     -0.2714
     96  CB       281.2290  170.5920  171.8580 C.3   145  CYS145      0.0997
     97  SG       282.2490  172.0440  171.6440 S.3   145  CYS145     -0.0797
     98  N        282.0910  167.8510  172.1560 N.am  146  GLY146     -0.1940
     99  CA       282.7190  166.5430  172.2000 C.3   146  GLY146      0.2014
    100  C        284.2160  166.3940  171.9790 C.2   146  GLY146      0.2639
    101  O        284.6720  165.2610  171.8470 O.2   146  GLY146     -0.2714
    102  N        284.9780  167.4800  171.9210 N.am  147  LYS147     -0.1963
    103  CA       286.3450  167.3730  171.4200 C.3   147  LYS147      0.1728
    104  C        287.2460  166.3090  172.0920 C.2   147  LYS147      0.2617
    105  O        287.6390  165.3230  171.4500 O.2   147  LYS147     -0.2715
    106  CB       287.0190  168.7210  171.5040 C.3   147  LYS147      0.0311
    107  CG       286.6130  169.6610  170.4060 C.3   147  LYS147      0.0038
    108  CD       287.1900  171.0480  170.6390 C.3   147  LYS147      0.0206
    109  CE       286.9070  171.5630  172.0210 C.3   147  LYS147      0.1093
    110  NZ       286.9950  173.0200  172.0270 N.3   147  LYS147     -0.1314
    111  N        287.5790  166.4910  173.3650 N.am  148  SER148     -0.1936
    112  CA       288.4370  165.5260  174.0510 C.3   148  SER148      0.2055
    113  C        287.8660  164.1180  173.9710 C.2   148  SER148      0.2643
    114  O        288.6060  163.1350  173.8430 O.2   148  SER148     -0.2714
    115  CB       288.6360  165.9010  175.5190 C.3   148  SER148      0.2130
    116  OG       289.5010  167.0110  175.6910 O.3   148  SER148     -0.2179
    117  N        286.5420  164.0210  174.0480 N.am  149  ALA149     -0.1963
    118  CA       285.8530  162.7380  173.9370 C.3   149  ALA149      0.1728
    119  C        286.0420  162.1190  172.5460 C.2   149  ALA149      0.2616
    120  O        286.3650  160.9340  172.4090 O.2   149  ALA149     -0.2715
    121  CB       284.3820  162.9060  174.2470 C.3   149  ALA149      0.0334
    122  N        285.8320  162.9240  171.5150 N.am  150  LEU150     -0.1977
    123  CA       286.0690  162.4930  170.1480 C.3   150  LEU150      0.1596
    124  C        287.4950  161.9580  169.9780 C.2   150  LEU150      0.2287
    125  O        287.7170  160.9370  169.3180 O.2   150  LEU150     -0.2864
    126  CB       285.8200  163.6450  169.1860 C.3   150  LEU150      0.0297
    127  CG       285.6970  163.2210  167.7360 C.3   150  LEU150      0.0022
    128  CD1      284.6450  162.1450  167.6370 C.3   150  LEU150      0.0001
    129  CD2      285.3010  164.3800  166.8710 C.3   150  LEU150      0.0001
    130  N        287.7760  158.5520  171.5020 N.3   153  GLN153     -0.1245
    131  CA       287.2050  157.5660  170.6250 C.3   153  GLN153      0.1566
    132  C        288.1660  157.2100  169.5040 C.2   153  GLN153      0.2260
    133  O        288.3260  156.0330  169.1850 O.2   153  GLN153     -0.2867
    134  CB       285.8790  158.0610  170.0770 C.3   153  GLN153      0.0367
    135  CG       284.7650  157.9350  171.0850 C.3   153  GLN153      0.0905
    136  CD       283.4810  158.5680  170.6040 C.2   153  GLN153      0.2608
    137  OE1      283.4900  159.6800  170.0710 O.2   153  GLN153     -0.2717
    138  NE2      282.3660  157.8570  170.7710 N.am  153  GLN153     -0.0878
    139  N        291.4970  170.5490  169.8490 N.3   349  THR349     -0.1203
    140  CA       291.7080  171.8710  170.3910 C.3   349  THR349      0.1994
    141  C        291.1610  171.9010  171.8330 C.2   349  THR349      0.2619
    142  O        290.2660  171.1220  172.1740 O.2   349  THR349     -0.2717
    143  CB       291.0270  172.8880  169.4690 C.3   349  THR349      0.1784
    144  OG1      291.9190  173.2240  168.4020 O.3   349  THR349     -0.2211
    145  CG2      290.6010  174.1470  170.2020 C.3   349  THR349      0.0376
    146  N        291.6990  172.7460  172.7000 N.am  350  THR350     -0.1938
    147  CA       291.0770  172.9160  174.0050 C.3   350  THR350      0.2028
    148  C        290.8230  174.3900  174.3150 C.2   350  THR350      0.2642
    149  O        291.7270  175.2170  174.2910 O.2   350  THR350     -0.2714
    150  CB       291.9180  172.2960  175.1320 C.3   350  THR350      0.1808
    151  OG1      291.3510  172.6460  176.4030 O.3   350  THR350     -0.2208
    152  CG2      293.3340  172.8090  175.0770 C.3   350  THR350      0.0379
    153  N        289.5690  174.7000  174.5870 N.am  351  ARG351     -0.1963
    154  CA       289.1270  176.0230  174.9850 C.3   351  ARG351      0.1729
    155  C        288.9900  176.1980  176.5150 C.2   351  ARG351      0.2616
    156  O        288.3160  177.1300  176.9760 O.2   351  ARG351     -0.2715
    157  CB       287.8250  176.3600  174.3080 C.3   351  ARG351      0.0348
    158  CG       287.9040  176.2830  172.8010 C.3   351  ARG351      0.0492
    159  CD       288.5740  177.4790  172.2170 C.3   351  ARG351      0.2205
    160  NE       288.4190  177.4880  170.7730 N.pl3 351  ARG351     -0.0865
    161  CZ       288.9170  178.4340  169.9890 C.cat 351  ARG351      0.5346
    162  NH1      289.5960  179.4440  170.5140 N.pl3 351  ARG351      0.1354
    163  NH2      288.7380  178.3720  168.6800 N.pl3 351  ARG351      0.1354
    164  N        289.5920  175.2890  177.2890 N.am  352  ASP352     -0.1971
    165  CA       289.4330  175.1820  178.7570 C.3   352  ASP352      0.1709
    166  C        289.8360  176.3930  179.6090 C.2   352  ASP352      0.2293
    167  O        289.7890  176.3380  180.8270 O.2   352  ASP352     -0.2864
    168  CB       290.2170  173.9810  179.2710 C.3   352  ASP352      0.1436
    169  CG       289.7250  173.5140  180.6330 C.2   352  ASP352      0.3671
    170  OD1      288.4880  173.4900  180.8350 O.co2 352  ASP352     -0.2456
    171  OD2      290.5640  173.2030  181.5120 O.co2 352  ASP352     -0.2456
    172  N        275.4330  169.2050  171.0350 N.3   396  PHE396     -0.1241
    173  CA       274.4820  168.1820  170.6560 C.3   396  PHE396      0.1605
    174  C        273.2780  168.7740  169.9290 C.2   396  PHE396      0.2264
    175  O        272.7550  169.8130  170.3450 O.2   396  PHE396     -0.2867
    176  CB       274.0040  167.4590  171.8990 C.3   396  PHE396      0.0534
    177  CG       275.0420  166.6090  172.5350 C.ar  396  PHE396     -0.0203
    178  CD1      276.0640  166.0620  171.7790 C.ar  396  PHE396     -0.0042
    179  CD2      275.0020  166.3390  173.8960 C.ar  396  PHE396     -0.0042
    180  CE1      277.0370  165.2570  172.3650 C.ar  396  PHE396     -0.0003
    181  CE2      275.9770  165.5260  174.4940 C.ar  396  PHE396     -0.0003
    182  CZ       276.9920  164.9850  173.7190 C.ar  396  PHE396     -0.0000
    183  N        272.0590  160.8030  175.0470 N.3   404  PHE404     -0.1241
    184  CA       273.0490  161.0260  176.0820 C.3   404  PHE404      0.1605
    185  C        272.4150  161.2030  177.4590 C.2   404  PHE404      0.2264
    186  O        272.8250  160.5530  178.4200 O.2   404  PHE404     -0.2867
    187  CB       273.9120  162.2290  175.7380 C.3   404  PHE404      0.0534
    188  CG       275.0460  162.4290  176.6800 C.ar  404  PHE404     -0.0203
    189  CD1      276.0030  161.4330  176.8480 C.ar  404  PHE404     -0.0042
    190  CD2      275.1570  163.6020  177.4190 C.ar  404  PHE404     -0.0042
    191  CE1      277.0620  161.6000  177.7400 C.ar  404  PHE404     -0.0003
    192  CE2      276.2190  163.7850  178.3180 C.ar  404  PHE404     -0.0003
    193  CZ       277.1740  162.7800  178.4770 C.ar  404  PHE404     -0.0000
    194  N        277.3910  169.6010  175.7490 N.3   444  PRO444     -0.2102
    195  CA       277.5900  168.3360  176.4740 C.3   444  PRO444      0.1504
    196  C        278.1210  168.4970  177.8900 C.2   444  PRO444      0.2575
    197  O        277.5560  167.8930  178.8080 O.2   444  PRO444     -0.2718
    198  CB       278.6210  167.5970  175.6260 C.3   444  PRO444      0.0282
    199  CG       278.5270  168.1850  174.3020 C.3   444  PRO444      0.0208
    200  CD       278.0620  169.6040  174.4460 C.3   444  PRO444      0.0893
    201  N        279.1640  169.2950  178.0810 N.am  445  GLN445     -0.1980
    202  CA       279.6850  169.5200  179.4230 C.3   445  GLN445      0.1601
    203  C        278.6220  170.1580  180.3000 C.2   445  GLN445      0.2287
    204  O        278.4810  169.8290  181.4870 O.2   445  GLN445     -0.2864
    205  CB       280.9180  170.4000  179.3940 C.3   445  GLN445      0.0394
    206  CG       281.3510  170.8190  180.7510 C.3   445  GLN445      0.0908
    207  CD       281.7640  169.6460  181.6140 C.2   445  GLN445      0.2608
    208  OE1      282.4750  168.7560  181.1590 O.2   445  GLN445     -0.2717
    209  NE2      281.3260  169.6450  182.8720 N.am  445  GLN445     -0.0878
    210  N        276.1720  167.3540  181.3510 N.3   448  VAL448     -0.1245
    211  CA       276.7030  166.5890  182.4750 C.3   448  VAL448      0.1561
    212  C        276.5330  167.3560  183.7750 C.2   448  VAL448      0.2260
    213  O        275.9780  166.8670  184.7900 O.2   448  VAL448     -0.2867
    214  CB       278.1720  166.2830  182.2880 C.3   448  VAL448      0.0252
    215  CG1      278.7890  165.8900  183.6130 C.3   448  VAL448      0.0019
    216  CG2      278.3500  165.1870  181.2610 C.3   448  VAL448      0.0019
@<TRIPOS>BOND
     1    73    72    2
     2    72    71    1
     3   129   127    1
     4    71    74    1
     5    71    70    1
     6    74    75    1
     7   128   127    1
     8   127   126    1
     9   144   143    1
    10   163   161    1
    11    75    76    1
    12    79    78    1
    13    76    77    1
    14   133   132    2
    15   126   123    1
    16   125   124    2
    17   143   145    1
    18   143   140    1
    19   132   131    1
    20    78    77    2
    21    78    80    1
    22   139   140    1
    23   174   175    2
    24   174   173    1
    25   124   123    1
    26   161   162    1
    27   161   160    2
    28   137   136    2
    29   134   131    1
    30   134   135    1
    31   123   122    1
    32   140   141    1
    33   107   108    1
    34   107   106    1
    35   136   138   am
    36   136   135    1
    37   131   130    1
    38   108   109    1
    39   173   172    1
    40   173   176    1
    41   160   159    1
    42    65    64    2
    43    64    63    1
    44    68    67    1
    45    67    69    1
    46    67    66    1
    47   103   106    1
    48   103   102    1
    49   103   104    1
    50   105   104    2
    51   122   119   am
    52    97    96    1
    53   178   180   ar
    54   178   177   ar
    55   141   142    2
    56   141   146   am
    57   101   100    2
    58    96    93    1
    59     1     2    1
    60   176   177    1
    61   102   100   am
    62   100    99    1
    63   109   110    1
    64   104   111   am
    65    98    99    1
    66    98    94   am
    67   159   158    1
    68    63    66    1
    69    63    62    1
    70   180   182   ar
    71   120   119    2
    72   177   179   ar
    73   119   118    1
    74     4     3    2
    75   146   147    1
    76   158   157    1
    77     2     3    1
    78     2     5    1
    79    54    53    2
    80    94    93    1
    81    94    95    2
    82    93    92    1
    83    62    53   am
    84   111   112    1
    85    53    52    1
    86   182   181   ar
    87   114   113    2
    88    55    52    1
    89    55    56    1
    90   179   181   ar
    91   118   117    1
    92   118   121    1
    93   113   117   am
    94   113   112    1
    95   147   148    1
    96   147   150    1
    97   112   115    1
    98    92    90   am
    99    81    82    1
   100     5     6    1
   101   149   148    2
   102   199   200    1
   103   199   198    1
   104   157   154    1
   105   148   153   am
   106   200   194    1
   107     8     7    1
   108   153   154    1
   109    52    51    1
   110    56    57   ar
   111    56    58   ar
   112    57    59   ar
   113   154   155    1
   114   183   184    1
   115   152   150    1
   116   150   151    1
   117    58    60   ar
   118     6     7    1
   119    82    83    1
   120    82    85    1
   121    59    61   ar
   122    90    91    2
   123    90    89    1
   124   115   116    1
   125    84    83    2
   126    51    49   am
   127    83    88   am
   128   198   195    1
   129   187   184    1
   130   187   188    1
   131   194   195    1
   132    88    89    1
   133    60    61   ar
   134   184   185    1
   135   195   196    1
   136    86    85    1
   137   155   156    2
   138   155   164   am
   139    85    87    1
   140   188   189   ar
   141   188   190   ar
   142   189   191   ar
   143    49    50    2
   144    49    48    1
   145   164   165    1
   146    30    28    1
   147   190   192   ar
   148   185   186    2
   149   191   193   ar
   150    48    47    1
   151   196   201   am
   152   196   197    2
   153   201   202    1
   154   192   193   ar
   155    29    28    1
   156    28    25    1
   157     9    10    1
   158   165   168    1
   159   165   166    1
   160   168   169    1
   161   205   202    1
   162   205   206    1
   163   202   203    1
   164   166   167    2
   165    25    24    1
   166    25    26    1
   167    10    11    1
   168    24    15   am
   169   203   204    2
   170    13    11   am
   171    13    14    1
   172   169   170   ar
   173   169   171   ar
   174   206   207    1
   175    26    27    2
   176    11    12    2
   177   208   207    2
   178   216   214    1
   179    15    14    1
   180    15    16    2
   181   210   211    1
   182    14    17    1
   183   207   209   am
   184    17    18    1
   185    45    44    1
   186    46    44    1
   187    39    37   am
   188    44    41    1
   189    18    19    1
   190   214   211    1
   191   214   215    1
   192   211   212    1
   193    37    36    1
   194    37    38    2
   195    36    35    1
   196    41    40    1
   197    41    42    1
   198    19    20    1
   199    22    21    1
   200    40    33   am
   201   212   213    2
   202    31    32    1
   203    20    21    2
   204    43    42    2
   205    21    23    1
   206    35    32    1
   207    33    32    1
   208    33    34    2
