@<TRIPOS>MOLECULE
tmp/6hj5A01.pdb
 95 86 0 0 0
SMALL
GASTEIGER

@<TRIPOS>ATOM
      1  N         33.6340   59.2420   31.2250 N.3    38  THR38      -0.1218
      2  CA        34.9130   59.7600   30.7680 C.3    38  THR38       0.1862
      3  C         35.4740   60.6880   31.8340 C.2    38  THR38       0.2287
      4  O         34.8080   61.6460   32.2310 O.2    38  THR38      -0.2866
      5  CB        34.7480   60.4960   29.4430 C.3    38  THR38       0.1770
      6  OG1       34.3160   59.5620   28.4420 O.3    38  THR38      -0.2211
      7  CG2       36.0640   61.1250   29.0310 C.3    38  THR38       0.0375
      8  N         39.1340   61.6600   31.7470 N.3    40  LEU40      -0.1231
      9  CA        40.2860   62.3910   31.2430 C.3    40  LEU40       0.1693
     10  C         39.9400   63.0360   29.9110 C.2    40  LEU40       0.2592
     11  O         39.1950   62.4620   29.1090 O.2    40  LEU40      -0.2718
     12  CB        41.4940   61.4620   31.0760 C.3    40  LEU40       0.0284
     13  CG        41.9320   60.7140   32.3330 C.3    40  LEU40       0.0019
     14  CD1       43.1820   59.9190   32.0280 C.3    40  LEU40       0.0001
     15  CD2       42.1710   61.6990   33.4730 C.3    40  LEU40       0.0001
     16  N         40.4950   64.2230   29.6710 N.am   41  VAL41      -0.1966
     17  CA        40.3610   64.8870   28.3810 C.3    41  VAL41       0.1727
     18  C         41.7520   65.1770   27.8270 C.2    41  VAL41       0.2616
     19  O         42.7200   65.3570   28.5740 O.2    41  VAL41      -0.2715
     20  CB        39.5070   66.1760   28.4670 C.3    41  VAL41       0.0290
     21  CG1       38.6070   66.1420   29.6920 C.3    41  VAL41       0.0023
     22  CG2       40.3720   67.4310   28.4530 C.3    41  VAL41       0.0023
     23  N         41.8480   65.1950   26.4970 N.am   42  VAL42      -0.1977
     24  CA        43.1310   65.3660   25.8240 C.3    42  VAL42       0.1596
     25  C         43.6590   66.7740   26.0600 C.2    42  VAL42       0.2287
     26  O         42.9470   67.7650   25.8480 O.2    42  VAL42      -0.2864
     27  CB        42.9900   65.0860   24.3200 C.3    42  VAL42       0.0276
     28  CG1       44.0100   65.9000   23.5310 C.3    42  VAL42       0.0022
     29  CG2       43.1790   63.6260   24.0320 C.3    42  VAL42       0.0022
     30  N         42.3550   56.1370   21.0320 N.3    86  GLN86      -0.1245
     31  CA        42.9130   57.2420   21.7930 C.3    86  GLN86       0.1566
     32  C         43.2180   56.7700   23.2140 C.2    86  GLN86       0.2260
     33  O         42.4040   56.0950   23.8450 O.2    86  GLN86      -0.2867
     34  CB        41.9280   58.4100   21.8000 C.3    86  GLN86       0.0367
     35  CG        42.2810   59.5290   22.7490 C.3    86  GLN86       0.0905
     36  CD        41.0490   60.2860   23.2140 C.2    86  GLN86       0.2608
     37  OE1       40.1780   59.7390   23.9070 O.2    86  GLN86      -0.2717
     38  NE2       40.9580   61.5410   22.8200 N.am   86  GLN86      -0.0878
     39  N         44.7970   58.3720   26.9180 N.3    88  ILE88      -0.1245
     40  CA        45.1520   59.5780   27.6610 C.3    88  ILE88       0.1561
     41  C         45.7600   59.1530   28.9900 C.2    88  ILE88       0.2260
     42  O         45.2110   58.2770   29.6710 O.2    88  ILE88      -0.2867
     43  CB        43.9240   60.4710   27.9020 C.3    88  ILE88       0.0252
     44  CG1       43.1710   60.7310   26.5990 C.3    88  ILE88       0.0019
     45  CG2       44.3320   61.7960   28.5420 C.3    88  ILE88       0.0019
     46  CD1       41.9700   61.6590   26.7840 C.3    88  ILE88       0.0001
     47  N         43.3980   56.1730   30.3720 N.3   100  GLN100     -0.1245
     48  CA        42.0320   56.0500   29.8830 C.3   100  GLN100      0.1566
     49  C         42.1080   55.6430   28.4210 C.2   100  GLN100      0.2260
     50  O         42.5850   56.4220   27.5850 O.2   100  GLN100     -0.2867
     51  CB        41.2750   57.3650   30.0540 C.3   100  GLN100      0.0367
     52  CG        39.8780   57.3510   29.4690 C.3   100  GLN100      0.0905
     53  CD        39.2060   58.7040   29.5760 C.2   100  GLN100      0.2608
     54  OE1       38.6600   59.0640   30.6280 O.2   100  GLN100     -0.2717
     55  NE2       39.2520   59.4710   28.4880 N.am  100  GLN100     -0.0878
     56  N         40.1870   54.8230   25.1030 N.3   102  ASN102     -0.1240
     57  CA        38.9150   55.1030   24.4480 C.3   102  ASN102      0.1653
     58  C         38.5130   53.8960   23.6080 C.2   102  ASN102      0.2266
     59  O         39.1690   53.5910   22.6080 O.2   102  ASN102     -0.2867
     60  CB        39.0560   56.3530   23.5860 C.3   102  ASN102      0.1155
     61  CG        37.7280   56.9140   23.1540 C.2   102  ASN102      0.2627
     62  OD1       36.7300   56.1970   23.0670 O.2   102  ASN102     -0.2716
     63  ND2       37.7040   58.2150   22.8820 N.am  102  ASN102     -0.0877
     64  N         35.3060   53.6300   22.3280 N.3   104  THR104     -0.1203
     65  CA        34.0210   54.0070   21.7330 C.3   104  THR104      0.1994
     66  C         33.8450   53.4080   20.3350 C.2   104  THR104      0.2617
     67  O         32.7280   53.0370   19.9510 O.2   104  THR104     -0.2717
     68  CB        33.9070   55.5360   21.6630 C.3   104  THR104      0.1784
     69  OG1       33.9930   56.0980   22.9800 O.3   104  THR104     -0.2211
     70  CG2       32.5870   55.9780   21.0190 C.3   104  THR104      0.0376
     71  N         34.9250   53.3380   19.5460 N.am  105  MET105     -0.1979
     72  CA        34.8620   52.7210   18.2250 C.3   105  MET105      0.1605
     73  C         34.7220   51.2120   18.3660 C.2   105  MET105      0.2287
     74  O         35.4140   50.5780   19.1640 O.2   105  MET105     -0.2864
     75  CB        36.1110   53.0280   17.4000 C.3   105  MET105      0.0413
     76  CG        36.4190   54.4930   17.2180 C.3   105  MET105      0.0598
     77  SD        35.2130   55.2110   16.1180 S.3   105  MET105     -0.1393
     78  CE        34.0910   56.0130   17.2680 C.3   105  MET105      0.0692
     79  N         29.9030   56.7460   24.3040 N.3   132  LYS132     -0.1245
     80  CA        31.3040   56.6350   24.6670 C.3   132  LYS132      0.1561
     81  C         31.5280   55.4420   25.5940 C.2   132  LYS132      0.2260
     82  O         30.6610   55.0630   26.3830 O.2   132  LYS132     -0.2867
     83  CB        31.7810   57.9340   25.3140 C.3   132  LYS132      0.0271
     84  CG        31.6980   59.1500   24.3920 C.3   132  LYS132      0.0035
     85  CD        31.8950   60.4530   25.1640 C.3   132  LYS132      0.0206
     86  CE        31.7290   61.6840   24.2740 C.3   132  LYS132      0.1093
     87  NZ        30.3280   61.8570   23.7920 N.3   132  LYS132     -0.1314
     88  N         35.0370   53.4050   27.7070 N.3   134  ASN134     -0.1240
     89  CA        36.4500   53.4610   28.0380 C.3   134  ASN134      0.1653
     90  C         36.8590   52.2390   28.8370 C.2   134  ASN134      0.2266
     91  O         36.0340   51.5860   29.4770 O.2   134  ASN134     -0.2867
     92  CB        36.8140   54.6970   28.8740 C.3   134  ASN134      0.1155
     93  CG        36.3990   55.9950   28.2210 C.2   134  ASN134      0.2627
     94  OD1       36.9020   56.3670   27.1610 O.2   134  ASN134     -0.2716
     95  ND2       35.4840   56.7030   28.8670 N.am  134  ASN134     -0.0877
@<TRIPOS>BOND
     1    77    76    1
     2    77    78    1
     3    76    75    1
     4    75    72    1
     5    72    73    1
     6    72    71    1
     7    73    74    2
     8    71    66   am
     9    67    66    2
    10    66    65    1
    11    70    68    1
    12    30    31    1
    13    68    65    1
    14    68    69    1
    15    65    64    1
    16    31    34    1
    17    31    32    1
    18    34    35    1
    19    59    58    2
    20    35    36    1
    21    38    36   am
    22    63    61   am
    23    62    61    2
    24    61    60    1
    25    36    37    2
    26    32    33    2
    27    28    27    1
    28    60    57    1
    29    58    57    1
    30    87    86    1
    31    29    27    1
    32    86    85    1
    33    79    80    1
    34    27    24    1
    35    84    85    1
    36    84    83    1
    37    57    56    1
    38    80    83    1
    39    80    81    1
    40    81    82    2
    41    24    25    1
    42    24    23    1
    43    26    25    2
    44    23    18   am
    45    44    46    1
    46    44    43    1
    47    39    40    1
    48    94    93    2
    49    50    49    2
    50    40    43    1
    51    40    41    1
    52    88    89    1
    53    18    17    1
    54    18    19    2
    55    43    45    1
    56    89    90    1
    57    89    92    1
    58    93    95   am
    59    93    92    1
    60    17    20    1
    61    17    16    1
    62    49    48    1
    63     6     5    1
    64    22    20    1
    65    20    21    1
    66    55    53   am
    67    90    91    2
    68    41    42    2
    69     7     5    1
    70    11    10    2
    71     5     2    1
    72    52    53    1
    73    52    51    1
    74    53    54    2
    75    16    10   am
    76    48    51    1
    77    48    47    1
    78    10     9    1
    79     2     1    1
    80     2     3    1
    81    12     9    1
    82    12    13    1
    83     9     8    1
    84     3     4    2
    85    14    13    1
    86    13    15    1
