@<TRIPOS>MOLECULE
tmp/6hjcA01.pdb
 93 85 0 0 0
SMALL
GASTEIGER

@<TRIPOS>ATOM
      1  N         53.3550   35.1640   42.1980 N.3    17  VAL17      -0.1245
      2  CA        52.7170   35.3520   43.4950 C.3    17  VAL17       0.1561
      3  C         53.5250   34.7040   44.6130 C.2    17  VAL17       0.2260
      4  O         53.7720   35.3200   45.6540 O.2    17  VAL17      -0.2867
      5  CB        51.2670   34.8170   43.4910 C.3    17  VAL17       0.0252
      6  CG1       50.6280   35.0130   44.8560 C.3    17  VAL17       0.0019
      7  CG2       50.4500   35.5060   42.4110 C.3    17  VAL17       0.0019
      8  N         55.3200   30.5330   46.0640 N.3    19  ASN19      -0.1240
      9  CA        55.3620   29.0700   46.0100 C.3    19  ASN19       0.1653
     10  C         55.6680   28.5780   44.5970 C.2    19  ASN19       0.2266
     11  O         55.1920   27.5230   44.1710 O.2    19  ASN19      -0.2867
     12  CB        54.0570   28.4580   46.5320 C.3    19  ASN19       0.1155
     13  CG        54.2020   26.9890   46.8880 C.2    19  ASN19       0.2627
     14  OD1       55.3130   26.4660   46.9610 O.2    19  ASN19      -0.2716
     15  ND2       53.0770   26.3180   47.1130 N.am   19  ASN19      -0.0877
     16  N         54.6400   29.8080   41.7750 N.3    21  SER21      -0.1202
     17  CA        53.4310   29.8120   40.9640 C.3    21  SER21       0.2020
     18  C         52.9730   31.2510   40.7680 C.2    21  SER21       0.2619
     19  O         53.4960   32.1820   41.3870 O.2    21  SER21      -0.2717
     20  CB        52.3200   28.9680   41.6010 C.3    21  SER21       0.2103
     21  OG        51.8540   29.5560   42.8030 O.3    21  SER21      -0.2182
     22  N         51.9900   31.4230   39.8990 N.am   22  GLY22      -0.1942
     23  CA        51.4710   32.7390   39.6110 C.3    22  GLY22       0.2014
     24  C         50.1380   32.6870   38.9020 C.2    22  GLY22       0.2638
     25  O         49.4470   31.6670   38.9080 O.2    22  GLY22      -0.2714
     26  N         49.7820   33.8100   38.2810 N.am   23  LEU23      -0.1977
     27  CA        48.4930   33.9710   37.6230 C.3    23  LEU23       0.1596
     28  C         48.7030   34.4380   36.1910 C.2    23  LEU23       0.2287
     29  O         49.4850   35.3610   35.9430 O.2    23  LEU23      -0.2864
     30  CB        47.6090   34.9710   38.3760 C.3    23  LEU23       0.0297
     31  CG        47.1930   34.5740   39.7930 C.3    23  LEU23       0.0022
     32  CD1       46.4070   35.6910   40.4580 C.3    23  LEU23       0.0001
     33  CD2       46.3820   33.2890   39.7720 C.3    23  LEU23       0.0001
     34  N         40.9390   29.2750   47.9800 N.3    48  GLN48      -0.1245
     35  CA        41.6470   29.3960   46.7110 C.3    48  GLN48       0.1566
     36  C         41.1120   30.5530   45.8800 C.2    48  GLN48       0.2260
     37  O         41.8660   31.1670   45.1160 O.2    48  GLN48      -0.2867
     38  CB        41.5510   28.0870   45.9290 C.3    48  GLN48       0.0367
     39  CG        42.2850   26.9310   46.5800 C.3    48  GLN48       0.0905
     40  CD        42.1790   25.6490   45.7830 C.2    48  GLN48       0.2608
     41  OE1       43.1800   24.9810   45.5270 O.2    48  GLN48      -0.2717
     42  NE2       40.9600   25.2920   45.3930 N.am   48  GLN48      -0.0878
     43  N         42.5130   33.6740   47.7690 N.3    51  MET51      -0.1230
     44  CA        43.9500   33.8080   47.5580 C.3    51  MET51       0.1702
     45  C         44.2540   34.4500   46.2090 C.2    51  MET51       0.2592
     46  O         45.1320   35.3140   46.1070 O.2    51  MET51      -0.2718
     47  CB        44.6270   32.4420   47.6680 C.3    51  MET51       0.0401
     48  CG        46.1210   32.4780   47.4070 C.3    51  MET51       0.0596
     49  SD        46.9950   33.5420   48.5700 S.3    51  MET51      -0.1393
     50  CE        48.4750   33.9140   47.6350 C.3    51  MET51       0.0692
     51  N         43.5280   34.0490   45.1630 N.am   52  ALA52      -0.1980
     52  CA        43.7580   34.6260   43.8430 C.3    52  ALA52       0.1597
     53  C         43.2640   36.0660   43.7740 C.2    52  ALA52       0.2287
     54  O         43.9060   36.9190   43.1510 O.2    52  ALA52      -0.2864
     55  CB        43.0800   33.7730   42.7720 C.3    52  ALA52       0.0319
     56  N         45.6920   38.3790   45.6610 N.3    55  SER55      -0.1217
     57  CA        46.9770   38.5080   44.9810 C.3    55  SER55       0.1889
     58  C         46.9280   39.5980   43.9190 C.2    55  SER55       0.2288
     59  O         47.8760   40.3790   43.7760 O.2    55  SER55      -0.2866
     60  CB        47.3840   37.1720   44.3580 C.3    55  SER55       0.2089
     61  OG        47.6090   36.1870   45.3520 O.3    55  SER55      -0.2183
     62  N         43.9710   21.8320   42.5970 N.3    80  ASP80      -0.1225
     63  CA        44.3430   23.0870   43.2340 C.3    80  ASP80       0.1805
     64  C         44.4020   24.2460   42.2510 C.2    80  ASP80       0.2598
     65  O         44.7500   25.3620   42.6470 O.2    80  ASP80      -0.2718
     66  CB        45.6920   22.9430   43.9460 C.3    80  ASP80       0.1424
     67  CG        45.6000   22.1120   45.2100 C.2    80  ASP80       0.3668
     68  OD1       44.5600   22.1860   45.8970 O.co2  80  ASP80      -0.2456
     69  OD2       46.5690   21.3870   45.5170 O.co2  80  ASP80      -0.2456
     70  N         44.0670   24.0090   40.9860 N.am   81  ASN81      -0.1960
     71  CA        44.1380   25.0220   39.9430 C.3    81  ASN81       0.1819
     72  C         42.7610   25.6450   39.7560 C.2    81  ASN81       0.2621
     73  O         41.7920   24.9410   39.4500 O.2    81  ASN81      -0.2715
     74  CB        44.6440   24.4100   38.6380 C.3    81  ASN81       0.1195
     75  CG        46.0300   23.8140   38.7800 C.2    81  ASN81       0.2630
     76  OD1       46.8780   24.3620   39.4840 O.2    81  ASN81      -0.2716
     77  ND2       46.2680   22.6850   38.1200 N.am   81  ASN81      -0.0877
     78  N         42.6790   26.9580   39.9410 N.am   82  ILE82      -0.1977
     79  CA        41.4250   27.6920   39.8480 C.3    82  ILE82       0.1596
     80  C         41.3700   28.4130   38.5090 C.2    82  ILE82       0.2287
     81  O         42.3890   28.8710   37.9760 O.2    82  ILE82      -0.2864
     82  CB        41.2680   28.6780   41.0270 C.3    82  ILE82       0.0276
     83  CG1       39.9310   29.4180   40.9460 C.3    82  ILE82       0.0022
     84  CG2       42.4260   29.6660   41.0620 C.3    82  ILE82       0.0022
     85  CD1       39.7230   30.4200   42.0570 C.3    82  ILE82       0.0001
     86  N         45.5130   29.8560   37.6860 N.3   147  ASN147     -0.1240
     87  CA        46.6990   29.5530   38.4810 C.3   147  ASN147      0.1653
     88  C         47.5400   28.5380   37.7170 C.2   147  ASN147      0.2266
     89  O         47.1510   27.3730   37.5860 O.2   147  ASN147     -0.2867
     90  CB        46.2970   29.0200   39.8530 C.3   147  ASN147      0.1155
     91  CG        47.4920   28.6490   40.7170 C.2   147  ASN147      0.2627
     92  OD1       48.6180   29.0790   40.4640 O.2   147  ASN147     -0.2716
     93  ND2       47.2450   27.8460   41.7470 N.am  147  ASN147     -0.0877
@<TRIPOS>BOND
     1    29    28    2
     2    28    27    1
     3    89    88    2
     4    27    26    1
     5    27    30    1
     6    86    87    1
     7    88    87    1
     8    81    80    2
     9    77    75   am
    10    26    24   am
    11    30    31    1
    12    87    90    1
    13    80    79    1
    14    74    75    1
    15    74    71    1
    16    75    76    2
    17    24    25    2
    18    24    23    1
    19    73    72    2
    20    23    22    1
    21    72    78   am
    22    72    71    1
    23    33    31    1
    24    31    32    1
    25    79    78    1
    26    79    82    1
    27    90    91    1
    28    22    18   am
    29    71    70    1
    30    92    91    2
    31    91    93   am
    32    18    17    1
    33    18    19    2
    34    83    82    1
    35    83    85    1
    36    17    20    1
    37    17    16    1
    38    70    64   am
    39    82    84    1
    40    20    21    1
    41     1     2    1
    42    64    65    2
    43    64    63    1
    44     7     5    1
    45    62    63    1
    46    55    52    1
    47    54    53    2
    48    63    66    1
    49     5     2    1
    50     5     6    1
    51     2     3    1
    52    53    52    1
    53    59    58    2
    54    52    51    1
    55    58    57    1
    56    66    67    1
    57    11    10    2
    58    60    57    1
    59    60    61    1
    60    10     9    1
    61     3     4    2
    62    57    56    1
    63    37    36    2
    64    51    45   am
    65    67    69   ar
    66    67    68   ar
    67    42    40   am
    68    41    40    2
    69    40    39    1
    70    36    35    1
    71    38    39    1
    72    38    35    1
    73     9     8    1
    74     9    12    1
    75    46    45    2
    76    45    44    1
    77    12    13    1
    78    35    34    1
    79    13    14    2
    80    13    15   am
    81    48    47    1
    82    48    49    1
    83    44    47    1
    84    44    43    1
    85    50    49    1
