@<TRIPOS>MOLECULE
tmp/6hjcA03.pdb
 100 96 0 0 0
SMALL
GASTEIGER

@<TRIPOS>ATOM
      1  N         35.7800   31.7300   25.0840 N.3    31  SER31      -0.1217
      2  CA        35.3260   31.4030   26.4270 C.3    31  SER31       0.1889
      3  C         35.9590   30.1040   26.9080 C.2    31  SER31       0.2288
      4  O         36.2940   29.2190   26.1150 O.2    31  SER31      -0.2866
      5  CB        33.8020   31.2860   26.4680 C.3    31  SER31       0.2089
      6  OG        33.3570   30.8940   27.7550 O.3    31  SER31      -0.2183
      7  N         34.7950   28.8330   30.4250 N.3    33  LEU33      -0.1231
      8  CA        33.8060   28.2600   31.3270 C.3    33  LEU33       0.1693
      9  C         32.4140   28.5380   30.7810 C.2    33  LEU33       0.2592
     10  O         32.0980   29.6800   30.4300 O.2    33  LEU33      -0.2718
     11  CB        33.9540   28.8330   32.7380 C.3    33  LEU33       0.0284
     12  CG        35.3480   28.6700   33.3450 C.3    33  LEU33       0.0019
     13  CD1       35.3810   29.1770   34.7740 C.3    33  LEU33       0.0001
     14  CD2       35.7850   27.2190   33.2790 C.3    33  LEU33       0.0001
     15  N         31.5840   27.4940   30.7110 N.am   34  ASN34      -0.1960
     16  CA        30.2680   27.6040   30.1020 C.3    34  ASN34       0.1819
     17  C         29.1180   27.5820   31.0970 C.2    34  ASN34       0.2621
     18  O         28.0150   28.0110   30.7450 O.2    34  ASN34      -0.2715
     19  CB        30.0630   26.4830   29.0720 C.3    34  ASN34       0.1195
     20  CG        31.1280   26.4840   27.9920 C.2    34  ASN34       0.2630
     21  OD1       31.6590   25.4350   27.6280 O.2    34  ASN34      -0.2716
     22  ND2       31.4530   27.6670   27.4810 N.am   34  ASN34      -0.0877
     23  N         29.3400   27.1030   32.3170 N.am   35  HIS35      -0.1959
     24  CA        28.3350   27.2130   33.3650 C.3    35  HIS35       0.1787
     25  C         28.3520   28.6190   33.9530 C.2    35  HIS35       0.2620
     26  O         29.4080   29.2460   34.0630 O.2    35  HIS35      -0.2715
     27  CB        28.5830   26.1720   34.4560 C.3    35  HIS35       0.0785
     28  CG        29.9700   26.2000   35.0190 C.ar   35  HIS35       0.0821
     29  ND1       31.0480   25.6360   34.3700 N.ar   35  HIS35      -0.2267
     30  CD2       30.4540   26.7170   36.1730 C.ar   35  HIS35       0.1154
     31  CE1       32.1370   25.8100   35.0990 C.ar   35  HIS35       0.1986
     32  NE2       31.8030   26.4620   36.1980 N.ar   35  HIS35      -0.2212
     33  N         27.1710   29.1160   34.3260 N.am   36  LYS36      -0.1977
     34  CA        27.0100   30.4950   34.7680 C.3    36  LYS36       0.1596
     35  C         27.1440   30.6540   36.2770 C.2    36  LYS36       0.2287
     36  O         26.6030   31.6120   36.8400 O.2    36  LYS36      -0.2864
     37  CB        25.6530   31.0390   34.3140 C.3    36  LYS36       0.0298
     38  CG        25.1660   30.4910   32.9830 C.3    36  LYS36       0.0038
     39  CD        23.8770   31.1620   32.5320 C.3    36  LYS36       0.0206
     40  CE        23.4400   30.6540   31.1640 C.3    36  LYS36       0.1093
     41  NZ        22.2280   31.3550   30.6580 N.3    36  LYS36      -0.1314
     42  N         27.9680   44.7840   39.2710 N.3    70  TYR70      -0.1241
     43  CA        28.3120   43.3710   39.2180 C.3    70  TYR70       0.1605
     44  C         28.8430   43.0250   37.8370 C.2    70  TYR70       0.2264
     45  O         28.2180   43.3570   36.8250 O.2    70  TYR70      -0.2867
     46  CB        27.0920   42.5050   39.5600 C.3    70  TYR70       0.0534
     47  CG        27.2180   41.0500   39.1700 C.ar   70  TYR70      -0.0201
     48  CD1       28.1810   40.2330   39.7490 C.ar   70  TYR70      -0.0009
     49  CD2       26.3580   40.4860   38.2360 C.ar   70  TYR70      -0.0009
     50  CE1       28.2920   38.8960   39.3970 C.ar   70  TYR70       0.0417
     51  CE2       26.4600   39.1530   37.8800 C.ar   70  TYR70       0.0417
     52  CZ        27.4280   38.3620   38.4620 C.ar   70  TYR70       0.1957
     53  OH        27.5310   37.0350   38.1080 O.3    70  TYR70      -0.2866
     54  N         29.6350   39.9380   35.3990 N.3    72  ALA72      -0.1231
     55  CA        29.2790   38.5330   35.2360 C.3    72  ALA72       0.1694
     56  C         30.5240   37.6570   35.3080 C.2    72  ALA72       0.2592
     57  O         31.4890   37.8660   34.5680 O.2    72  ALA72      -0.2718
     58  CB        28.5550   38.3210   33.9060 C.3    72  ALA72       0.0304
     59  N         30.5020   36.6790   36.2120 N.am   73  MET73      -0.1965
     60  CA        31.6880   35.8860   36.4990 C.3    73  MET73       0.1736
     61  C         31.2960   34.4500   36.8140 C.2    73  MET73       0.2617
     62  O         30.3090   34.2060   37.5120 O.2    73  MET73      -0.2715
     63  CB        32.4750   36.4770   37.6760 C.3    73  MET73       0.0427
     64  CG        33.7820   35.7600   37.9730 C.3    73  MET73       0.0599
     65  SD        34.0290   35.4670   39.7330 S.3    73  MET73      -0.1393
     66  CE        32.6650   34.3630   40.0750 C.3    73  MET73       0.0692
     67  N         32.0830   33.5080   36.2960 N.am   74  SER74      -0.1950
     68  CA        31.9590   32.0970   36.6250 C.3    74  SER74       0.1924
     69  C         33.3420   31.5390   36.9330 C.2    74  SER74       0.2314
     70  O         34.3370   31.9420   36.3240 O.2    74  SER74      -0.2863
     71  CB        31.3100   31.3030   35.4820 C.3    74  SER74       0.2116
     72  OG        31.9900   31.5180   34.2570 O.3    74  SER74      -0.2180
     73  N         36.6280   33.2820   35.0250 N.3    85  GLN85      -0.1245
     74  CA        36.3090   33.9320   33.7610 C.3    85  GLN85       0.1566
     75  C         35.2980   35.0450   33.9950 C.2    85  GLN85       0.2260
     76  O         34.2500   34.8200   34.6090 O.2    85  GLN85      -0.2867
     77  CB        35.7510   32.9330   32.7430 C.3    85  GLN85       0.0367
     78  CG        35.2170   33.5920   31.4780 C.3    85  GLN85       0.0905
     79  CD        34.6270   32.5980   30.4980 C.2    85  GLN85       0.2608
     80  OE1       35.2980   31.6590   30.0670 O.2    85  GLN85      -0.2717
     81  NE2       33.3620   32.7970   30.1440 N.am   85  GLN85      -0.0878
     82  N         32.7930   37.5630   32.0200 N.3    87  ASN87      -0.1240
     83  CA        32.1100   37.8880   30.7700 C.3    87  ASN87       0.1653
     84  C         31.9840   39.4050   30.7080 C.2    87  ASN87       0.2266
     85  O         31.0660   39.9910   31.2860 O.2    87  ASN87      -0.2867
     86  CB        30.7600   37.1860   30.6990 C.3    87  ASN87       0.1155
     87  CG        30.9000   35.6900   30.4930 C.2    87  ASN87       0.2627
     88  OD1       32.0000   35.1430   30.5680 O.2    87  ASN87      -0.2716
     89  ND2       29.7870   35.0200   30.2350 N.am   87  ASN87      -0.0877
     90  N         35.9880   38.3780   27.0450 N.3   142  PHE142     -0.1241
     91  CA        36.2530   37.5480   28.2110 C.3   142  PHE142      0.1605
     92  C         37.5910   37.9080   28.8400 C.2   142  PHE142      0.2264
     93  O         38.5560   38.2250   28.1390 O.2   142  PHE142     -0.2867
     94  CB        36.2400   36.0590   27.8410 C.3   142  PHE142      0.0534
     95  CG        34.9590   35.6050   27.2010 C.ar  142  PHE142     -0.0203
     96  CD1       33.8280   35.3800   27.9670 C.ar  142  PHE142     -0.0042
     97  CD2       34.8870   35.3970   25.8330 C.ar  142  PHE142     -0.0042
     98  CE1       32.6470   34.9590   27.3820 C.ar  142  PHE142     -0.0003
     99  CE2       33.7090   34.9760   25.2420 C.ar  142  PHE142     -0.0003
    100  CZ        32.5880   34.7570   26.0180 C.ar  142  PHE142     -0.0000
@<TRIPOS>BOND
     1     1     2    1
     2    99    97   ar
     3    99   100   ar
     4    97    95   ar
     5   100    98   ar
     6     4     3    2
     7     2     5    1
     8     2     3    1
     9     5     6    1
    10    90    91    1
    11    95    94    1
    12    95    96   ar
    13    98    96   ar
    14    22    20   am
    15    21    20    2
    16    94    91    1
    17    20    19    1
    18    93    92    2
    19    91    92    1
    20    19    16    1
    21    80    79    2
    22    16    15    1
    23    16    17    1
    24    81    79   am
    25    89    87   am
    26     7     8    1
    27    10     9    2
    28    87    88    2
    29    87    86    1
    30    79    78    1
    31    41    40    1
    32    86    83    1
    33    84    83    1
    34    84    85    2
    35    15     9   am
    36    18    17    2
    37    83    82    1
    38     9     8    1
    39    17    23   am
    40    40    39    1
    41     8    11    1
    42    78    77    1
    43    23    24    1
    44    39    38    1
    45    11    12    1
    46    77    74    1
    47    38    37    1
    48    14    12    1
    49    12    13    1
    50    24    25    1
    51    24    27    1
    52    74    75    1
    53    74    73    1
    54    58    55    1
    55    25    26    2
    56    25    33   am
    57    75    76    2
    58    72    71    1
    59    37    34    1
    60    33    34    1
    61    29    28   ar
    62    29    31   ar
    63    27    28    1
    64    57    56    2
    65    34    35    1
    66    28    30   ar
    67    31    32   ar
    68    55    56    1
    69    55    54    1
    70    56    59   am
    71    71    68    1
    72    30    32   ar
    73    59    60    1
    74    35    36    2
    75    67    68    1
    76    67    61   am
    77    70    69    2
    78    60    61    1
    79    60    63    1
    80    68    69    1
    81    61    62    2
    82    45    44    2
    83    63    64    1
    84    44    43    1
    85    51    49   ar
    86    51    52   ar
    87    64    65    1
    88    53    52    1
    89    49    47   ar
    90    52    50   ar
    91    47    46    1
    92    47    48   ar
    93    43    42    1
    94    43    46    1
    95    50    48   ar
    96    65    66    1
