@<TRIPOS>MOLECULE
tmp/6hjeB00.pdb
 115 109 0 0 0
SMALL
GASTEIGER

@<TRIPOS>ATOM
      1  N         16.4370   25.2440   13.1520 N.3    60  PHE60      -0.1241
      2  CA        16.2050   26.5510   12.5640 C.3    60  PHE60       0.1605
      3  C         15.3670   26.3440   11.3090 C.2    60  PHE60       0.2264
      4  O         15.5000   25.3140   10.6610 O.2    60  PHE60      -0.2867
      5  CB        17.5540   27.1500   12.1840 C.3    60  PHE60       0.0534
      6  CG        17.6190   28.6060   12.3400 C.ar   60  PHE60      -0.0203
      7  CD1       16.9570   29.4240   11.4460 C.ar   60  PHE60      -0.0042
      8  CD2       18.3690   29.1730   13.3530 C.ar   60  PHE60      -0.0042
      9  CE1       17.0110   30.7980   11.5770 C.ar   60  PHE60      -0.0003
     10  CE2       18.4410   30.5450   13.4810 C.ar   60  PHE60      -0.0003
     11  CZ        17.7490   31.3560   12.5960 C.ar   60  PHE60      -0.0000
     12  N         12.1790   35.1790   13.3370 N.3    85  LEU85      -0.1245
     13  CA        13.1440   36.2240   13.0160 C.3    85  LEU85       0.1561
     14  C         12.9380   36.9350   11.6520 C.2    85  LEU85       0.2260
     15  O         12.2040   36.4290   10.7350 O.2    85  LEU85      -0.2867
     16  CB        14.5470   35.6560   13.0780 C.3    85  LEU85       0.0270
     17  CG        14.8280   34.9340   14.3950 C.3    85  LEU85       0.0019
     18  CD1       15.1290   33.4600   14.1160 C.3    85  LEU85       0.0001
     19  CD2       15.9460   35.6520   15.1460 C.3    85  LEU85       0.0001
     20  N         15.6930   38.2610    9.5610 N.3    87  MET87      -0.1230
     21  CA        16.6050   37.7560    8.5290 C.3    87  MET87       0.1702
     22  C         17.5240   36.6610    9.0450 C.2    87  MET87       0.2592
     23  O         17.8980   36.6250   10.2150 O.2    87  MET87      -0.2718
     24  CB        17.4820   38.8790    7.9610 C.3    87  MET87       0.0401
     25  CG        17.4320   39.0400    6.4330 C.3    87  MET87       0.0596
     26  SD        17.6930   37.5930    5.3800 S.3    87  MET87      -0.1393
     27  CE        19.4900   37.6120    5.1440 C.3    87  MET87       0.0692
     28  N         17.9050   35.7940    8.1280 N.am   88  CYS88      -0.1956
     29  CA        18.7590   34.6910    8.4130 C.3    88  CYS88       0.1843
     30  C         19.5680   34.3900    7.1780 C.2    88  CYS88       0.2626
     31  O         19.0440   33.9220    6.1690 O.2    88  CYS88      -0.2714
     32  CB        17.9570   33.4750    8.8420 C.3    88  CYS88       0.0997
     33  SG        19.0390   32.0820    9.2110 S.3    88  CYS88      -0.0797
     34  N         20.8720   34.6800    7.2500 N.am   89  GLY89      -0.1940
     35  CA        21.7600   34.4060    6.1330 C.3    89  GLY89       0.2014
     36  C         21.7990   32.9510    5.7010 C.2    89  GLY89       0.2638
     37  O         21.7190   32.6530    4.5210 O.2    89  GLY89      -0.2714
     38  N         21.9750   32.0270    6.6410 N.am   90  HIS90      -0.1973
     39  CA        22.1550   30.6280    6.2410 C.3    90  HIS90       0.1656
     40  C         20.8660   30.0510    5.6370 C.2    90  HIS90       0.2291
     41  O         20.9280   29.3270    4.6600 O.2    90  HIS90      -0.2864
     42  CB        22.7650   29.7260    7.3520 C.3    90  HIS90       0.0771
     43  CG        22.0560   29.7790    8.6660 C.ar   90  HIS90       0.0820
     44  ND1       20.9260   29.0350    8.9330 N.ar   90  HIS90      -0.2267
     45  CD2       22.3460   30.4430    9.8100 C.ar   90  HIS90       0.1154
     46  CE1       20.5190   29.2800   10.1650 C.ar   90  HIS90       0.1986
     47  NE2       21.3680   30.1280   10.7240 N.ar   90  HIS90      -0.2212
     48  N         20.7550   41.5910   11.0110 N.3   176  ASN176     -0.1240
     49  CA        20.5480   41.5390   12.4640 C.3   176  ASN176      0.1653
     50  C         21.6390   42.4270   13.0710 C.2   176  ASN176      0.2266
     51  O         22.6730   42.6500   12.4410 O.2   176  ASN176     -0.2867
     52  CB        20.7110   40.1000   13.0230 C.3   176  ASN176      0.1155
     53  CG        19.7880   39.0850   12.3560 C.2   176  ASN176      0.2627
     54  OD1       18.5610   39.2330   12.3900 O.2   176  ASN176     -0.2716
     55  ND2       20.3720   38.0340   11.7580 N.am  176  ASN176     -0.0877
     56  N         24.7980   43.0190   15.6120 N.3   178  PHE178     -0.1241
     57  CA        25.8660   42.1960   16.1710 C.3   178  PHE178      0.1605
     58  C         26.7630   43.0300   17.0320 C.2   178  PHE178      0.2264
     59  O         26.9500   44.2070   16.7670 O.2   178  PHE178     -0.2867
     60  CB        26.7490   41.5790   15.0680 C.3   178  PHE178      0.0534
     61  CG        26.0590   40.5240   14.2600 C.ar  178  PHE178     -0.0203
     62  CD1       25.1560   40.8710   13.2660 C.ar  178  PHE178     -0.0042
     63  CD2       26.2540   39.1850   14.5450 C.ar  178  PHE178     -0.0042
     64  CE1       24.5060   39.8970   12.5390 C.ar  178  PHE178     -0.0003
     65  CE2       25.6020   38.2150   13.8350 C.ar  178  PHE178     -0.0003
     66  CZ        24.7290   38.5650   12.8240 C.ar  178  PHE178     -0.0000
     67  N         22.8460   39.2670   19.0550 N.3   228  CYS228     -0.1235
     68  CA        23.9380   38.3710   18.6220 C.3   228  CYS228      0.1677
     69  C         25.3350   38.8810   18.9780 C.2   228  CYS228      0.2270
     70  O         25.6240   40.0700   18.8580 O.2   228  CYS228     -0.2867
     71  CB        23.8750   38.1140   17.1160 C.3   228  CYS228      0.0956
     72  SG        22.2400   37.8250   16.4060 S.3   228  CYS228     -0.0801
     73  N         28.9990   32.7230   16.1410 N.3   246  VAL246     -0.1245
     74  CA        27.9620   33.6330   16.5820 C.3   246  VAL246      0.1561
     75  C         27.1530   32.9770   17.7010 C.2   246  VAL246      0.2260
     76  O         26.7010   31.8280   17.5720 O.2   246  VAL246     -0.2867
     77  CB        27.0400   34.0480   15.4330 C.3   246  VAL246      0.0252
     78  CG1       25.8560   34.8140   15.9780 C.3   246  VAL246      0.0019
     79  CG2       27.7990   34.9030   14.4240 C.3   246  VAL246      0.0019
     80  N         23.8680   33.5130   20.1640 N.3   248  PHE248     -0.1241
     81  CA        22.6020   34.2290   20.1250 C.3   248  PHE248      0.1605
     82  C         21.5590   33.4900   20.9500 C.2   248  PHE248      0.2264
     83  O         21.8830   32.4970   21.5810 O.2   248  PHE248     -0.2867
     84  CB        22.1510   34.3810   18.6830 C.3   248  PHE248      0.0534
     85  CG        21.8250   33.0890   18.0170 C.ar  248  PHE248     -0.0203
     86  CD1       22.8360   32.2250   17.6150 C.ar  248  PHE248     -0.0042
     87  CD2       20.5150   32.7300   17.7970 C.ar  248  PHE248     -0.0042
     88  CE1       22.5320   31.0310   16.9990 C.ar  248  PHE248     -0.0003
     89  CE2       20.2140   31.5420   17.1820 C.ar  248  PHE248     -0.0003
     90  CZ        21.2140   30.6910   16.7790 C.ar  248  PHE248     -0.0000
     91  N         25.7720   29.3600   16.4330 N.3   254  ASP254     -0.1239
     92  CA        25.5790   29.0880   15.0230 C.3   254  ASP254      0.1674
     93  C         26.6630   28.1450   14.5610 C.2   254  ASP254      0.2266
     94  O         27.8610   28.4150   14.7570 O.2   254  ASP254     -0.2867
     95  CB        25.6670   30.3990   14.2250 C.3   254  ASP254      0.1410
     96  CG        25.1410   30.2740   12.7880 C.2   254  ASP254      0.3668
     97  OD1       25.2020   29.1770   12.1900 O.co2 254  ASP254     -0.2456
     98  OD2       24.6670   31.3000   12.2490 O.co2 254  ASP254     -0.2456
     99  N         27.7920   32.2030    9.4810 N.3   258  CYS258     -0.1221
    100  CA        26.7020   33.1600    9.7200 C.3   258  CYS258      0.1808
    101  C         26.7370   34.2740    8.6740 C.2   258  CYS258      0.2602
    102  O         27.6260   35.1090    8.6780 O.2   258  CYS258     -0.2717
    103  CB        26.7080   33.7170   11.1590 C.3   258  CYS258      0.0970
    104  SG        25.4160   34.9480   11.5050 S.3   258  CYS258     -0.0800
    105  N         25.7560   34.2820    7.7840 N.am  259  GLY259     -0.1942
    106  CA        25.7000   35.2390    6.6660 C.3   259  GLY259      0.2014
    107  C         25.5430   36.6880    7.0780 C.2   259  GLY259      0.2639
    108  O         26.3200   37.5590    6.6390 O.2   259  GLY259     -0.2714
    109  N         24.5490   36.9690    7.9160 N.am  260  THR260     -0.1950
    110  CA        24.3640   38.3310    8.4100 C.3   260  THR260      0.1897
    111  C         25.5550   38.7510    9.2710 C.2   260  THR260      0.2313
    112  O         25.8840   39.9270    9.3210 O.2   260  THR260     -0.2863
    113  CB        23.0700   38.4960    9.2320 C.3   260  THR260      0.1794
    114  OG1       23.0790   37.6060   10.3550 O.3   260  THR260     -0.2208
    115  CG2       21.8700   38.1760    8.3660 C.3   260  THR260      0.0378
@<TRIPOS>BOND
     1    37    36    2
     2    41    40    2
     3    27    26    1
     4    26    25    1
     5    40    39    1
     6    36    35    1
     7    36    38   am
     8    35    34    1
     9    31    30    2
    10    39    38    1
    11    39    42    1
    12    25    24    1
    13   108   107    2
    14   106   107    1
    15   106   105    1
    16   107   109   am
    17    30    34   am
    18    30    29    1
    19    42    43    1
    20   105   101   am
    21   109   110    1
    22    24    21    1
    23    28    29    1
    24    28    22   am
    25   115   113    1
    26   110   113    1
    27   110   111    1
    28    29    32    1
    29    21    22    1
    30    21    20    1
    31    43    44   ar
    32    43    45   ar
    33   101   102    2
    34   101   100    1
    35    32    33    1
    36    44    46   ar
    37    22    23    2
    38   113   114    1
    39   111   112    2
    40    99   100    1
    41   100   103    1
    42    45    47   ar
    43    46    47   ar
    44     4     3    2
    45    15    14    2
    46    48    49    1
    47   103   104    1
    48     3     2    1
    49     7     9   ar
    50     7     6   ar
    51     9    11   ar
    52    14    13    1
    53    55    53   am
    54     5     6    1
    55     5     2    1
    56    97    96   ar
    57    98    96   ar
    58     6     8   ar
    59    53    54    2
    60    53    52    1
    61    51    50    2
    62    49    52    1
    63    49    50    1
    64    64    66   ar
    65    64    62   ar
    66     2     1    1
    67    11    10   ar
    68    96    95    1
    69    66    65   ar
    70    13    16    1
    71    13    12    1
    72    16    17    1
    73    62    61   ar
    74     8    10   ar
    75    65    63   ar
    76    18    17    1
    77    95    92    1
    78    61    63   ar
    79    61    60    1
    80    17    19    1
    81    79    77    1
    82    93    94    2
    83    93    92    1
    84    92    91    1
    85    60    57    1
    86    77    78    1
    87    77    74    1
    88    56    57    1
    89    73    74    1
    90    57    58    1
    91    72    71    1
    92    74    75    1
    93    59    58    2
    94    90    88   ar
    95    90    89   ar
    96    88    86   ar
    97    71    68    1
    98    89    87   ar
    99    76    75    2
   100    86    85   ar
   101    87    85   ar
   102    85    84    1
   103    68    69    1
   104    68    67    1
   105    84    81    1
   106    70    69    2
   107    81    80    1
   108    81    82    1
   109    82    83    2
