@<TRIPOS>MOLECULE
tmp/6hjfB00.pdb
 115 109 0 0 0
SMALL
GASTEIGER

@<TRIPOS>ATOM
      1  N         16.2330   24.1470   12.9020 N.3    58  PHE58      -0.1241
      2  CA        16.0170   25.4440   12.3150 C.3    58  PHE58       0.1605
      3  C         15.1400   25.1720   11.0950 C.2    58  PHE58       0.2264
      4  O         15.2630   24.1080   10.4960 O.2    58  PHE58      -0.2867
      5  CB        17.3190   26.0880   11.8510 C.3    58  PHE58       0.0534
      6  CG        17.1840   27.5360   11.5360 C.ar   58  PHE58      -0.0203
      7  CD1       16.6850   27.9640   10.2910 C.ar   58  PHE58      -0.0042
      8  CD2       17.4360   28.4890   12.5140 C.ar   58  PHE58      -0.0042
      9  CE1       16.5110   29.3160   10.0330 C.ar   58  PHE58      -0.0003
     10  CE2       17.2910   29.8450   12.2470 C.ar   58  PHE58      -0.0003
     11  CZ        16.8150   30.2610   11.0120 C.ar   58  PHE58      -0.0000
     12  N         13.8690   34.5510   13.2900 N.3    83  LEU83      -0.1245
     13  CA        14.8290   35.5240   12.7830 C.3    83  LEU83       0.1561
     14  C         14.3480   36.2000   11.5300 C.2    83  LEU83       0.2260
     15  O         13.6620   35.5870   10.6740 O.2    83  LEU83      -0.2867
     16  CB        16.1800   34.8750   12.5170 C.3    83  LEU83       0.0270
     17  CG        16.8980   34.3650   13.7620 C.3    83  LEU83       0.0019
     18  CD1       18.0790   33.5320   13.2660 C.3    83  LEU83       0.0001
     19  CD2       17.3870   35.4790   14.6900 C.3    83  LEU83       0.0001
     20  N         16.2150   37.1640    9.0940 N.3    85  MET85      -0.1230
     21  CA        16.8960   36.5560    7.9580 C.3    85  MET85       0.1702
     22  C         17.7760   35.4250    8.4320 C.2    85  MET85       0.2592
     23  O         18.0960   35.3500    9.6070 O.2    85  MET85      -0.2718
     24  CB        17.7360   37.5680    7.1600 C.3    85  MET85       0.0401
     25  CG        17.3360   37.6700    5.7060 C.3    85  MET85       0.0596
     26  SD        17.5780   36.1950    4.6960 S.3    85  MET85      -0.1393
     27  CE        19.3940   36.1150    4.5840 C.3    85  MET85       0.0692
     28  N         18.1120   34.5430    7.4960 N.am   86  CYS86      -0.1956
     29  CA        18.9650   33.4220    7.7350 C.3    86  CYS86       0.1843
     30  C         19.6380   33.0530    6.4400 C.2    86  CYS86       0.2626
     31  O         18.9710   32.7440    5.4310 O.2    86  CYS86      -0.2714
     32  CB        18.2230   32.2080    8.2790 C.3    86  CYS86       0.0997
     33  SG        19.4680   30.9600    8.7400 S.3    86  CYS86      -0.0797
     34  N         20.9640   33.1200    6.4510 N.am   87  GLY87      -0.1940
     35  CA        21.7630   32.8400    5.2980 C.3    87  GLY87       0.2014
     36  C         21.8100   31.3700    4.9740 C.2    87  GLY87       0.2638
     37  O         21.6580   30.9890    3.8050 O.2    87  GLY87      -0.2714
     38  N         22.0120   30.5240    5.9770 N.am   88  HIS88      -0.1973
     39  CA        22.1420   29.1150    5.6740 C.3    88  HIS88       0.1656
     40  C         20.7810   28.6300    5.1780 C.2    88  HIS88       0.2291
     41  O         20.7400   27.8370    4.2510 O.2    88  HIS88      -0.2864
     42  CB        22.7030   28.2460    6.8110 C.3    88  HIS88       0.0771
     43  CG        21.7930   28.1080    7.9820 C.ar   88  HIS88       0.0820
     44  ND1       20.6730   27.3000    7.9660 N.ar   88  HIS88      -0.2267
     45  CD2       21.8040   28.7100    9.1880 C.ar   88  HIS88       0.1154
     46  CE1       20.0520   27.3950    9.1250 C.ar   88  HIS88       0.1986
     47  NE2       20.7210   28.2370    9.8870 N.ar   88  HIS88      -0.2212
     48  N         20.0740   40.0310   10.6450 N.3   174  ASN174     -0.1240
     49  CA        19.7520   40.1290   12.0790 C.3   174  ASN174      0.1653
     50  C         20.8010   41.0310   12.6910 C.2   174  ASN174      0.2266
     51  O         21.8930   41.1660   12.1170 O.2   174  ASN174     -0.2867
     52  CB        19.8480   38.7680   12.7650 C.3   174  ASN174      0.1155
     53  CG        19.1250   37.7070   12.0010 C.2   174  ASN174      0.2627
     54  OD1       17.9150   37.8070   11.8390 O.2   174  ASN174     -0.2716
     55  ND2       19.8600   36.7280   11.4660 N.am  174  ASN174     -0.0877
     56  N         23.6510   41.4630   15.3250 N.3   176  PHE176     -0.1241
     57  CA        24.6080   40.5940   15.9950 C.3   176  PHE176      0.1605
     58  C         25.4050   41.4270   16.9700 C.2   176  PHE176      0.2264
     59  O         25.7260   42.5750   16.6630 O.2   176  PHE176     -0.2867
     60  CB        25.6320   40.0110   15.0160 C.3   176  PHE176      0.0534
     61  CG        25.0890   38.9040   14.1440 C.ar  176  PHE176     -0.0203
     62  CD1       24.3340   39.2090   13.0310 C.ar  176  PHE176     -0.0042
     63  CD2       25.3350   37.5710   14.4470 C.ar  176  PHE176     -0.0042
     64  CE1       23.8220   38.1960   12.2300 C.ar  176  PHE176     -0.0003
     65  CE2       24.8210   36.5650   13.6630 C.ar  176  PHE176     -0.0003
     66  CZ        24.0420   36.8780   12.5590 C.ar  176  PHE176     -0.0000
     67  N         21.3260   37.6140   17.8680 N.3   226  CYS226     -0.1235
     68  CA        22.3970   36.6280   17.6500 C.3   226  CYS226      0.1677
     69  C         23.6840   37.1420   18.2320 C.2   226  CYS226      0.2270
     70  O         23.9240   38.3660   18.1900 O.2   226  CYS226     -0.2867
     71  CB        22.6240   36.3670   16.1730 C.3   226  CYS226      0.0956
     72  SG        21.0960   36.0570   15.2250 S.3   226  CYS226     -0.0801
     73  N         27.8460   30.9970   16.1440 N.3   244  VAL244     -0.1245
     74  CA        26.7840   31.9250   16.4560 C.3   244  VAL244      0.1561
     75  C         25.7920   31.2510   17.4090 C.2   244  VAL244      0.2260
     76  O         25.3610   30.1030   17.1840 O.2   244  VAL244     -0.2867
     77  CB        26.0980   32.4060   15.1750 C.3   244  VAL244      0.0252
     78  CG1       24.8120   33.1610   15.4690 C.3   244  VAL244      0.0019
     79  CG2       27.0770   33.2550   14.3500 C.3   244  VAL244      0.0019
     80  N         22.0710   31.6540   19.1870 N.3   246  PHE246     -0.1241
     81  CA        20.7930   32.3250   18.9160 C.3   246  PHE246      0.1605
     82  C         19.6530   31.4250   19.3890 C.2   246  PHE246      0.2264
     83  O         19.8990   30.3820   19.9970 O.2   246  PHE246     -0.2867
     84  CB        20.6770   32.6140   17.4260 C.3   246  PHE246      0.0534
     85  CG        20.5900   31.3600   16.5850 C.ar  246  PHE246     -0.0203
     86  CD1       21.7200   30.6150   16.3050 C.ar  246  PHE246     -0.0042
     87  CD2       19.3680   30.9400   16.0700 C.ar  246  PHE246     -0.0042
     88  CE1       21.6480   29.4550   15.5640 C.ar  246  PHE246     -0.0003
     89  CE2       19.2780   29.7890   15.2960 C.ar  246  PHE246     -0.0003
     90  CZ        20.4130   29.0490   15.0300 C.ar  246  PHE246     -0.0000
     91  N         24.7530   27.5670   15.7690 N.3   252  ASP252     -0.1239
     92  CA        24.8020   27.3030   14.3420 C.3   252  ASP252      0.1674
     93  C         25.9750   26.3790   14.0910 C.2   252  ASP252      0.2266
     94  O         27.1110   26.6320   14.5560 O.2   252  ASP252     -0.2867
     95  CB        24.9320   28.6170   13.5640 C.3   252  ASP252      0.1410
     96  CG        24.6580   28.4730   12.0860 C.2   252  ASP252      0.3668
     97  OD1       24.6090   27.3440   11.5750 O.co2 252  ASP252     -0.2456
     98  OD2       24.4990   29.5210   11.4090 O.co2 252  ASP252     -0.2456
     99  N         27.2680   30.5430    9.4100 N.3   256  CYS256     -0.1221
    100  CA        26.2190   31.5750    9.5770 C.3   256  CYS256      0.1808
    101  C         26.3290   32.6980    8.5740 C.2   256  CYS256      0.2602
    102  O         27.2410   33.5200    8.6210 O.2   256  CYS256     -0.2717
    103  CB        26.1380   32.1210   10.9890 C.3   256  CYS256      0.0970
    104  SG        24.7710   33.2820   11.2000 S.3   256  CYS256     -0.0800
    105  N         25.3930   32.7320    7.6340 N.am  257  GLY257     -0.1942
    106  CA        25.4990   33.6770    6.5190 C.3   257  GLY257      0.2014
    107  C         25.2620   35.1140    6.9130 C.2   257  GLY257      0.2639
    108  O         25.9770   36.0140    6.4650 O.2   257  GLY257     -0.2714
    109  N         24.2550   35.3690    7.7470 N.am  258  THR258     -0.1950
    110  CA        24.0180   36.7360    8.2310 C.3   258  THR258      0.1897
    111  C         25.1330   37.2140    9.1430 C.2   258  THR258      0.2313
    112  O         25.5030   38.3860    9.1000 O.2   258  THR258     -0.2863
    113  CB        22.6760   36.8890    8.9680 C.3   258  THR258      0.1794
    114  OG1       22.5880   35.9640   10.0450 O.3   258  THR258     -0.2208
    115  CG2       21.5780   36.6590    8.0230 C.3   258  THR258      0.0378
@<TRIPOS>BOND
     1    37    36    2
     2    41    40    2
     3    27    26    1
     4    26    25    1
     5    36    35    1
     6    36    38   am
     7    40    39    1
     8    35    34    1
     9    31    30    2
    10    39    38    1
    11    39    42    1
    12    25    24    1
    13    30    34   am
    14    30    29    1
    15   108   107    2
    16   106   107    1
    17   106   105    1
    18    42    43    1
    19   107   109   am
    20    24    21    1
    21    28    29    1
    22    28    22   am
    23   105   101   am
    24    29    32    1
    25   109   110    1
    26    21    22    1
    27    21    20    1
    28    44    43   ar
    29    44    46   ar
    30    43    45   ar
    31   115   113    1
    32   110   113    1
    33   110   111    1
    34    32    33    1
    35    22    23    2
    36   101   102    2
    37   101   100    1
    38   113   114    1
    39   112   111    2
    40    46    47   ar
    41    45    47   ar
    42    99   100    1
    43   100   103    1
    44     9     7   ar
    45     9    11   ar
    46     7     6   ar
    47     4     3    2
    48    48    49    1
    49    15    14    2
    50   103   104    1
    51    11    10   ar
    52     3     2    1
    53    98    96   ar
    54    55    53   am
    55    14    13    1
    56     6     5    1
    57     6     8   ar
    58    97    96   ar
    59    54    53    2
    60     5     2    1
    61    53    52    1
    62    49    50    1
    63    49    52    1
    64    96    95    1
    65    51    50    2
    66    64    66   ar
    67    64    62   ar
    68    10     8   ar
    69     2     1    1
    70    16    13    1
    71    16    17    1
    72    66    65   ar
    73    13    12    1
    74    62    61   ar
    75    18    17    1
    76    95    92    1
    77    65    63   ar
    78    17    19    1
    79    93    92    1
    80    93    94    2
    81    61    63   ar
    82    61    60    1
    83    92    91    1
    84    79    77    1
    85    60    57    1
    86    90    89   ar
    87    90    88   ar
    88    77    78    1
    89    77    74    1
    90    72    71    1
    91    89    87   ar
    92    56    57    1
    93    88    86   ar
    94    57    58    1
    95    87    85   ar
    96    73    74    1
    97    71    68    1
    98    86    85   ar
    99    74    75    1
   100    85    84    1
   101    59    58    2
   102    76    75    2
   103    84    81    1
   104    68    67    1
   105    68    69    1
   106    70    69    2
   107    81    80    1
   108    81    82    1
   109    82    83    2
