@<TRIPOS>MOLECULE
tmp/6hjjA00.pdb
 201 187 0 0 0
SMALL
GASTEIGER

@<TRIPOS>ATOM
      1  N         -1.1140  -27.5790   -3.1210 N.3    13  LEU13      -0.1231
      2  CA        -0.2810  -28.7570   -3.0180 C.3    13  LEU13       0.1693
      3  C          0.8310  -28.4780   -2.0240 C.2    13  LEU13       0.2592
      4  O          1.2600  -29.3660   -1.2810 O.2    13  LEU13      -0.2718
      5  CB         0.2860  -29.1390   -4.3820 C.3    13  LEU13       0.0284
      6  CG        -0.7320  -29.6210   -5.4140 C.3    13  LEU13       0.0019
      7  CD1       -0.0860  -29.7510   -6.7790 C.3    13  LEU13       0.0001
      8  CD2       -1.3380  -30.9570   -4.9770 C.3    13  LEU13       0.0001
      9  N          1.3050  -27.2360   -2.0180 N.am   14  GLY14      -0.1957
     10  CA         2.4320  -26.8590   -1.1820 C.3    14  GLY14       0.1869
     11  C          2.7650  -25.3780   -1.2490 C.2    14  GLY14       0.2309
     12  O          2.5350  -24.7240   -2.2710 O.2    14  GLY14      -0.2863
     13  N          8.9670  -18.2970   -2.5260 N.3    18  PHE18      -0.1241
     14  CA         8.5850  -17.2360   -3.4510 C.3    18  PHE18       0.1605
     15  C          7.1340  -17.3310   -3.9020 C.2    18  PHE18       0.2264
     16  O          6.6590  -16.5010   -4.6770 O.2    18  PHE18      -0.2867
     17  CB         9.5160  -17.2510   -4.6600 C.3    18  PHE18       0.0534
     18  CG        10.9270  -16.8700   -4.3270 C.ar   18  PHE18      -0.0203
     19  CD1       11.4140  -15.6160   -4.6490 C.ar   18  PHE18      -0.0042
     20  CD2       11.7550  -17.7540   -3.6600 C.ar   18  PHE18      -0.0042
     21  CE1       12.7090  -15.2580   -4.3300 C.ar   18  PHE18      -0.0003
     22  CE2       13.0470  -17.4010   -3.3350 C.ar   18  PHE18      -0.0003
     23  CZ        13.5260  -16.1510   -3.6740 C.ar   18  PHE18      -0.0000
     24  N          2.1840  -23.5430   -4.7580 N.3    21  VAL21      -0.1245
     25  CA         1.8320  -24.4720   -5.8320 C.3    21  VAL21       0.1561
     26  C          0.4180  -25.0090   -5.6200 C.2    21  VAL21       0.2260
     27  O          0.0730  -25.4550   -4.5250 O.2    21  VAL21      -0.2867
     28  CB         2.7950  -25.6640   -5.8980 C.3    21  VAL21       0.0252
     29  CG1        2.5660  -26.4610   -7.1820 C.3    21  VAL21       0.0019
     30  CG2        4.2210  -25.1800   -5.8100 C.3    21  VAL21       0.0019
     31  N         -0.2630  -28.6160  -12.4240 N.3    34  ALA34      -0.1245
     32  CA         0.1540  -27.9190  -11.2190 C.3    34  ALA34       0.1562
     33  C          0.5320  -26.5120  -11.5880 C.2    34  ALA34       0.2260
     34  O          1.3640  -26.2850  -12.4690 O.2    34  ALA34      -0.2867
     35  CB         1.3210  -28.6360  -10.5480 C.3    34  ALA34       0.0290
     36  N          2.2010  -23.1850  -10.3800 N.3    36  LYS36      -0.1245
     37  CA         3.0640  -22.5460   -9.3780 C.3    36  LYS36       0.1561
     38  C          3.0620  -21.0340   -9.5140 C.2    36  LYS36       0.2260
     39  O          3.3370  -20.4860  -10.5870 O.2    36  LYS36      -0.2867
     40  CB         4.5080  -23.0500   -9.4460 C.3    36  LYS36       0.0271
     41  CG         5.4150  -22.2680   -8.4930 C.3    36  LYS36       0.0035
     42  CD         6.7770  -22.9090   -8.3140 C.3    36  LYS36       0.0206
     43  CE         6.6880  -24.1790   -7.4810 C.3    36  LYS36       0.1093
     44  NZ         8.0110  -24.5940   -6.9280 N.3    36  LYS36      -0.1314
     45  N          4.3520  -17.3030   -8.4360 N.3    38  LEU38      -0.1245
     46  CA         5.5040  -16.5760   -7.9020 C.3    38  LEU38       0.1561
     47  C          5.2600  -15.0770   -7.9440 C.2    38  LEU38       0.2260
     48  O          4.7870  -14.5390   -8.9440 O.2    38  LEU38      -0.2867
     49  CB         6.7780  -16.9260   -8.6790 C.3    38  LEU38       0.0270
     50  CG         7.2470  -18.3840   -8.6390 C.3    38  LEU38       0.0019
     51  CD1        8.2030  -18.6650   -9.7820 C.3    38  LEU38       0.0001
     52  CD2        7.9090  -18.7000   -7.3100 C.3    38  LEU38       0.0001
     53  N         10.8280  -12.1310   -6.1630 N.3    43  LEU43      -0.1245
     54  CA        11.9120  -12.5610   -7.0440 C.3    43  LEU43       0.1561
     55  C         12.9030  -11.4180   -7.2820 C.2    43  LEU43       0.2260
     56  O         14.1160  -11.6260   -7.3860 O.2    43  LEU43      -0.2867
     57  CB        11.3520  -13.0550   -8.3810 C.3    43  LEU43       0.0270
     58  CG        10.3640  -14.2280   -8.3880 C.3    43  LEU43       0.0019
     59  CD1        9.5780  -14.2440   -9.6970 C.3    43  LEU43       0.0001
     60  CD2       11.0800  -15.5650   -8.1910 C.3    43  LEU43       0.0001
     61  N         16.5960  -12.6070   -8.3840 N.3    48  VAL48      -0.1245
     62  CA        16.6880  -13.8740   -9.0950 C.3    48  VAL48       0.1561
     63  C         15.6890  -13.9560  -10.2420 C.2    48  VAL48       0.2260
     64  O         15.4150  -15.0440  -10.7640 O.2    48  VAL48      -0.2867
     65  CB        16.4470  -15.0580   -8.1470 C.3    48  VAL48       0.0252
     66  CG1       17.3190  -14.9220   -6.9080 C.3    48  VAL48       0.0019
     67  CG2       14.9800  -15.1240   -7.7570 C.3    48  VAL48       0.0019
     68  N         17.3410  -15.1110  -13.3600 N.3    51  GLN51      -0.1231
     69  CA        17.7480  -16.4990  -13.2310 C.3    51  GLN51       0.1698
     70  C         16.5600  -17.4100  -13.4540 C.2    51  GLN51       0.2592
     71  O         16.6590  -18.4220  -14.1470 O.2    51  GLN51      -0.2718
     72  CB        18.3590  -16.7600  -11.8590 C.3    51  GLN51       0.0381
     73  CG        18.7350  -18.2080  -11.6410 C.3    51  GLN51       0.0905
     74  CD        19.1090  -18.4950  -10.2050 C.2    51  GLN51       0.2608
     75  OE1       19.4090  -17.5800   -9.4360 O.2    51  GLN51      -0.2717
     76  NE2       19.0830  -19.7700   -9.8280 N.am   51  GLN51      -0.0878
     77  N         15.4360  -17.0360  -12.8580 N.am   52  LEU52      -0.1980
     78  CA        14.1740  -17.7350  -13.0690 C.3    52  LEU52       0.1596
     79  C         13.9000  -17.8340  -14.5670 C.2    52  LEU52       0.2287
     80  O         13.5670  -18.9050  -15.0900 O.2    52  LEU52      -0.2864
     81  CB        13.0400  -17.0020  -12.3380 C.3    52  LEU52       0.0297
     82  CG        11.6100  -17.5470  -12.3530 C.3    52  LEU52       0.0022
     83  CD1       10.8640  -17.0710  -13.5950 C.3    52  LEU52       0.0001
     84  CD2       11.6140  -19.0660  -12.2530 C.3    52  LEU52       0.0001
     85  N         16.2970  -20.3200  -16.2170 N.3    55  GLU55      -0.1245
     86  CA        15.9270  -21.6840  -15.8440 C.3    55  GLU55       0.1567
     87  C         14.6620  -22.1440  -16.5630 C.2    55  GLU55       0.2260
     88  O         14.5980  -23.2730  -17.0610 O.2    55  GLU55      -0.2867
     89  CB        15.7360  -21.8010  -14.3310 C.3    55  GLU55       0.0388
     90  CG        17.0230  -21.6470  -13.5260 C.3    55  GLU55       0.1160
     91  CD        16.8070  -21.8310  -12.0300 C.2    55  GLU55       0.3649
     92  OE1       17.7890  -21.7140  -11.2680 O.co2  55  GLU55      -0.2457
     93  OE2       15.6570  -22.0960  -11.6180 O.co2  55  GLU55      -0.2457
     94  N         10.2380  -33.1840  -14.6230 N.3    68  LEU68      -0.1245
     95  CA         8.9060  -32.5790  -14.6150 C.3    68  LEU68       0.1561
     96  C          8.7140  -31.6930  -15.8470 C.2    68  LEU68       0.2260
     97  O          9.5700  -30.8710  -16.1700 O.2    68  LEU68      -0.2867
     98  CB         8.6760  -31.7680  -13.3440 C.3    68  LEU68       0.0270
     99  CG         7.2030  -31.5160  -12.9910 C.3    68  LEU68       0.0019
    100  CD1        6.5460  -32.7440  -12.3260 C.3    68  LEU68       0.0001
    101  CD2        7.0500  -30.2800  -12.1100 C.3    68  LEU68       0.0001
    102  N          3.8440  -20.5510  -13.3430 N.3    82  LEU82      -0.1245
    103  CA         4.4130  -21.6850  -14.0700 C.3    82  LEU82       0.1561
    104  C          3.3810  -22.8030  -14.1620 C.2    82  LEU82       0.2260
    105  O          2.8660  -23.2590  -13.1390 O.2    82  LEU82      -0.2867
    106  CB         5.6920  -22.1890  -13.3930 C.3    82  LEU82       0.0270
    107  CG         6.7190  -21.0910  -13.0600 C.3    82  LEU82       0.0019
    108  CD1        7.8880  -21.6640  -12.2920 C.3    82  LEU82       0.0001
    109  CD2        7.1910  -20.3820  -14.3200 C.3    82  LEU82       0.0001
    110  N          2.7120  -26.5040  -14.8120 N.3    84  CYS84      -0.1221
    111  CA         3.6050  -27.6540  -14.6980 C.3    84  CYS84       0.1808
    112  C          2.8870  -28.9710  -14.6940 C.2    84  CYS84       0.2601
    113  O          1.6970  -29.0490  -14.4160 O.2    84  CYS84      -0.2717
    114  CB         4.4320  -27.5610  -13.4100 C.3    84  CYS84       0.0970
    115  SG         5.4300  -26.0700  -13.3110 S.3    84  CYS84      -0.0800
    116  N          3.6450  -30.0150  -14.9790 N.am   85  GLU85      -0.1965
    117  CA         3.1490  -31.3510  -14.8470 C.3    85  GLU85       0.1733
    118  C          2.7790  -31.5670  -13.3940 C.2    85  GLU85       0.2616
    119  O          3.5360  -31.2240  -12.4660 O.2    85  GLU85      -0.2715
    120  CB         4.1920  -32.3690  -15.3110 C.3    85  GLU85       0.0429
    121  CG         3.8610  -33.8190  -14.9920 C.3    85  GLU85       0.1163
    122  CD         4.9380  -34.7660  -15.5270 C.2    85  GLU85       0.3649
    123  OE1        4.7220  -35.9860  -15.4720 O.co2  85  GLU85      -0.2457
    124  OE2        5.9950  -34.2880  -16.0120 O.co2  85  GLU85      -0.2457
    125  N          1.5920  -32.1200  -13.2160 N.am   86  TYR86      -0.1960
    126  CA         1.0960  -32.5610  -11.9270 C.3    86  TYR86       0.1771
    127  C          1.6700  -33.9440  -11.6420 C.2    86  TYR86       0.2619
    128  O          1.5410  -34.8630  -12.4600 O.2    86  TYR86      -0.2715
    129  CB        -0.4440  -32.5750  -11.9400 C.3    86  TYR86       0.0574
    130  CG        -1.1060  -33.3480  -10.8220 C.ar   86  TYR86      -0.0198
    131  CD1       -0.8030  -33.0740   -9.5010 C.ar   86  TYR86      -0.0009
    132  CD2       -2.0620  -34.3430  -11.0920 C.ar   86  TYR86      -0.0009
    133  CE1       -1.4070  -33.7590   -8.4700 C.ar   86  TYR86       0.0417
    134  CE2       -2.6790  -35.0360  -10.0550 C.ar   86  TYR86       0.0417
    135  CZ        -2.3420  -34.7310   -8.7460 C.ar   86  TYR86       0.1957
    136  OH        -2.9130  -35.3980   -7.6940 O.3    86  TYR86      -0.2866
    137  N          2.3140  -34.0720  -10.4840 N.am   87  ALA87      -0.1977
    138  CA         2.9360  -35.3140  -10.0420 C.3    87  ALA87       0.1597
    139  C          2.1430  -35.8530   -8.8660 C.2    87  ALA87       0.2287
    140  O          2.2860  -35.3680   -7.7490 O.2    87  ALA87      -0.2864
    141  CB         4.4140  -35.0820   -9.6490 C.3    87  ALA87       0.0319
    142  N          3.4030  -37.1390   -4.8800 N.3    90  GLY90      -0.1210
    143  CA         4.1130  -36.2890   -3.9310 C.3    90  GLY90       0.1956
    144  C          5.6310  -36.2780   -4.0750 C.2    90  GLY90       0.2612
    145  O          6.1560  -36.5980   -5.1350 O.2    90  GLY90      -0.2717
    146  N          6.3320  -35.9120   -3.0040 N.am   91  THR91      -0.1952
    147  CA         7.7960  -35.7750   -3.0340 C.3    91  THR91       0.1897
    148  C          8.5200  -37.0120   -2.4740 C.2    91  THR91       0.2313
    149  O          7.9370  -37.7820   -1.6960 O.2    91  THR91      -0.2863
    150  CB         8.2580  -34.5570   -2.2190 C.3    91  THR91       0.1794
    151  OG1        8.0720  -34.8310   -0.8270 O.3    91  THR91      -0.2208
    152  CG2        7.4760  -33.2900   -2.5960 C.3    91  THR91       0.0378
    153  N         13.1570  -32.9690   -1.6410 N.3   134  GLU134     -0.1231
    154  CA        11.8860  -32.2390   -1.7210 C.3   134  GLU134      0.1699
    155  C         11.6210  -31.7840   -3.1550 C.2   134  GLU134      0.2592
    156  O         10.5000  -31.3980   -3.4910 O.2   134  GLU134     -0.2718
    157  CB        11.8550  -31.0230   -0.7890 C.3   134  GLU134      0.0402
    158  CG        12.6610  -31.1680    0.4650 C.3   134  GLU134      0.1161
    159  CD        14.1160  -30.8180    0.2420 C.2   134  GLU134      0.3649
    160  OE1       14.3830  -29.6880   -0.2190 O.co2 134  GLU134     -0.2457
    161  OE2       14.9860  -31.6710    0.5150 O.co2 134  GLU134     -0.2457
    162  N         12.6460  -31.8420   -4.0000 N.am  135  ASN135     -0.1974
    163  CA        12.5090  -31.4110   -5.3800 C.3   135  ASN135      0.1688
    164  C         12.4200  -32.5820   -6.3450 C.2   135  ASN135      0.2292
    165  O         12.4690  -32.4120   -7.5660 O.2   135  ASN135     -0.2864
    166  CB        13.6640  -30.4780   -5.7470 C.3   135  ASN135      0.1181
    167  CG        13.5570  -29.1330   -5.0410 C.2   135  ASN135      0.2629
    168  OD1       12.4610  -28.7030   -4.6850 O.2   135  ASN135     -0.2716
    169  ND2       14.6860  -28.4710   -4.8270 N.am  135  ASN135     -0.0877
    170  N          9.7450  -35.3580   -7.3830 N.3   137  LEU137     -0.1245
    171  CA         8.3290  -35.6770   -7.2920 C.3   137  LEU137      0.1561
    172  C          8.0840  -37.0660   -7.8700 C.2   137  LEU137      0.2260
    173  O          8.9740  -37.6490   -8.4980 O.2   137  LEU137     -0.2867
    174  CB         7.4860  -34.6250   -8.0240 C.3   137  LEU137      0.0270
    175  CG         7.5740  -33.2130   -7.4250 C.3   137  LEU137      0.0019
    176  CD1        6.8490  -32.1980   -8.3010 C.3   137  LEU137      0.0001
    177  CD2        6.9990  -33.1960   -6.0200 C.3   137  LEU137      0.0001
    178  N         12.0520  -31.9040  -10.3500 N.3   147  ALA147     -0.1231
    179  CA        10.9640  -30.9230  -10.3880 C.3   147  ALA147      0.1694
    180  C         11.4140  -29.4600  -10.2080 C.2   147  ALA147      0.2592
    181  O         10.6850  -28.5280  -10.5370 O.2   147  ALA147     -0.2718
    182  CB         9.9340  -31.2790   -9.3340 C.3   147  ALA147      0.0304
    183  N         12.5980  -29.2540   -9.6650 N.am  148  ASP148     -0.1960
    184  CA        13.1180  -27.9010   -9.5990 C.3   148  ASP148      0.1840
    185  C         13.8200  -27.6280  -10.9160 C.2   148  ASP148      0.2622
    186  O         14.4300  -28.5230  -11.5070 O.2   148  ASP148     -0.2715
    187  CB        14.0750  -27.7240   -8.4240 C.3   148  ASP148      0.1450
    188  CG        15.4840  -28.1650   -8.7580 C.2   148  ASP148      0.3671
    189  OD1       16.4240  -27.3670   -8.5540 O.co2 148  ASP148     -0.2456
    190  OD2       15.6570  -29.2990   -9.2450 O.co2 148  ASP148     -0.2456
    191  N         13.7450  -26.3970  -11.3840 N.am  149  PHE149     -0.1974
    192  CA        14.3890  -26.0670  -12.6390 C.3   149  PHE149      0.1639
    193  C         15.8800  -25.8130  -12.3840 C.2   149  PHE149      0.2290
    194  O         16.4130  -26.2670  -11.3670 O.2   149  PHE149     -0.2864
    195  CB        13.6930  -24.8740  -13.2820 C.3   149  PHE149      0.0560
    196  CG        12.2290  -25.1020  -13.5370 C.ar  149  PHE149     -0.0200
    197  CD1       11.3920  -24.0520  -13.8560 C.ar  149  PHE149     -0.0042
    198  CD2       11.6890  -26.3800  -13.4550 C.ar  149  PHE149     -0.0042
    199  CE1       10.0380  -24.2710  -14.0950 C.ar  149  PHE149     -0.0003
    200  CE2       10.3520  -26.6060  -13.6870 C.ar  149  PHE149     -0.0003
    201  CZ         9.5200  -25.5490  -14.0070 C.ar  149  PHE149     -0.0000
@<TRIPOS>BOND
     1    88    87    2
     2    87    86    1
     3    85    86    1
     4    97    96    2
     5   124   122   ar
     6    96    95    1
     7    86    89    1
     8   122   123   ar
     9   122   121    1
    10   120   121    1
    11   120   117    1
    12    80    79    2
    13   116   117    1
    14   116   112   am
    15   117   118    1
    16   110   111    1
    17   111   112    1
    18   111   114    1
    19   112   113    2
    20    94    95    1
    21    95    98    1
    22    79    78    1
    23    89    90    1
    24   109   107    1
    25   104   103    1
    26   104   105    2
    27    71    70    2
    28   199   201   ar
    29   199   197   ar
    30   103   106    1
    31   103   102    1
    32   201   200   ar
    33   197   196   ar
    34   200   198   ar
    35    83    82    1
    36   196   198   ar
    37   196   195    1
    38    90    91    1
    39    70    69    1
    40    70    77   am
    41   114   115    1
    42   118   125   am
    43   118   119    2
    44   106   107    1
    45    68    69    1
    46    98    99    1
    47   195   192    1
    48    69    72    1
    49   125   126    1
    50    78    77    1
    51    78    81    1
    52   107   108    1
    53    99   100    1
    54    99   101    1
    55   192   193    1
    56   192   191    1
    57    34    33    2
    58   128   127    2
    59    31    32    1
    60   193   194    2
    61    82    81    1
    62    82    84    1
    63    91    93   ar
    64    91    92   ar
    65   129   126    1
    66   129   130    1
    67   126   127    1
    68    72    73    1
    69   127   137   am
    70    73    74    1
    71    33    32    1
    72   186   185    2
    73   191   185   am
    74    32    35    1
    75   132   130   ar
    76   132   134   ar
    77   185   184    1
    78   130   131   ar
    79    64    63    2
    80    39    38    2
    81   181   180    2
    82   137   138    1
    83   179   178    1
    84   179   180    1
    85   179   182    1
    86    36    37    1
    87    63    62    1
    88   180   183   am
    89    74    76   am
    90    74    75    2
    91   134   135   ar
    92   138   141    1
    93   138   139    1
    94    51    50    1
    95    59    58    1
    96   183   184    1
    97   184   187    1
    98    38    37    1
    99   131   133   ar
   100    40    37    1
   101    40    41    1
   102   190   188   ar
   103    62    61    1
   104    62    65    1
   105    48    47    2
   106   139   140    2
   107   188   189   ar
   108   188   187    1
   109   135   133   ar
   110   135   136    1
   111    49    50    1
   112    49    46    1
   113    50    52    1
   114   173   172    2
   115    41    42    1
   116    45    46    1
   117    58    57    1
   118    58    60    1
   119    57    54    1
   120    42    43    1
   121   176   175    1
   122    65    67    1
   123    65    66    1
   124   174   175    1
   125   174   171    1
   126    47    46    1
   127   172   171    1
   128   165   164    2
   129    43    44    1
   130   175   177    1
   131    56    55    2
   132   170   171    1
   133    55    54    1
   134    29    28    1
   135    54    53    1
   136     7     6    1
   137   164   163    1
   138    28    25    1
   139    28    30    1
   140    25    26    1
   141    25    24    1
   142   166   163    1
   143   166   167    1
   144    26    27    2
   145     6     8    1
   146     6     5    1
   147   163   162    1
   148   145   144    2
   149   167   169   am
   150   167   168    2
   151   142   143    1
   152    16    15    2
   153    17    18    1
   154    17    14    1
   155    19    21   ar
   156    19    18   ar
   157     5     2    1
   158    21    23   ar
   159    18    20   ar
   160   144   143    1
   161   144   146   am
   162   162   155   am
   163    15    14    1
   164    23    22   ar
   165    20    22   ar
   166   156   155    2
   167    14    13    1
   168   155   154    1
   169     1     2    1
   170   147   146    1
   171   147   148    1
   172   147   150    1
   173     2     3    1
   174   152   150    1
   175   148   149    2
   176    12    11    2
   177   150   151    1
   178     3     9   am
   179     3     4    2
   180     9    10    1
   181   154   153    1
   182   154   157    1
   183    11    10    1
   184   157   158    1
   185   160   159   ar
   186   159   158    1
   187   159   161   ar
