@<TRIPOS>MOLECULE
tmp/6hjpF00.pdb
 79 76 0 0 0
SMALL
GASTEIGER

@<TRIPOS>ATOM
      1  N        262.8920  251.0920  273.5330 N.3    18  ILE18      -0.1231
      2  CA       262.3980  250.6890  272.2130 C.3    18  ILE18       0.1692
      3  C        261.5770  251.8100  271.5610 C.2    18  ILE18       0.2592
      4  O        261.8230  252.1680  270.4150 O.2    18  ILE18      -0.2718
      5  CB       261.6060  249.3720  272.3130 C.3    18  ILE18       0.0266
      6  CG1      262.5250  248.2240  272.7350 C.3    18  ILE18       0.0019
      7  CG2      260.8800  249.0710  271.0090 C.3    18  ILE18       0.0020
      8  CD1      261.7960  247.0150  273.2740 C.3    18  ILE18       0.0001
      9  N        260.6140  252.3600  272.2780 N.am   19  ASP19      -0.1960
     10  CA       259.5370  253.1100  271.6440 C.3    19  ASP19       0.1840
     11  C        259.8970  254.5920  271.4640 C.2    19  ASP19       0.2623
     12  O        258.9870  255.4180  271.3680 O.2    19  ASP19      -0.2715
     13  CB       258.2620  252.9710  272.4750 C.3    19  ASP19       0.1450
     14  CG       258.4750  253.3350  273.9350 C.2    19  ASP19       0.3671
     15  OD1      259.6480  253.4990  274.3400 O.co2  19  ASP19      -0.2456
     16  OD2      257.4700  253.4420  274.6610 O.co2  19  ASP19      -0.2456
     17  N        261.1710  254.9570  271.4280 N.am   20  GLY20      -0.1940
     18  CA       261.4900  256.3700  271.2140 C.3    20  GLY20       0.2014
     19  C        262.9660  256.6170  270.9730 C.2    20  GLY20       0.2638
     20  O        263.7310  255.6930  270.7340 O.2    20  GLY20      -0.2714
     21  N        263.3590  257.8840  271.0420 N.am   21  TRP21      -0.1973
     22  CA       264.7580  258.2580  270.8930 C.3    21  TRP21       0.1640
     23  C        265.3470  258.7880  272.2030 C.2    21  TRP21       0.2290
     24  O        266.5460  258.6400  272.4340 O.2    21  TRP21      -0.2864
     25  CB       264.9150  259.2880  269.7800 C.3    21  TRP21       0.0576
     26  CG       264.8840  258.7000  268.4110 C.ar   21  TRP21       0.0006
     27  CD1      265.0410  257.3900  268.0690 C.ar   21  TRP21       0.0946
     28  CD2      264.7060  259.4210  267.1880 C.ar   21  TRP21       0.0152
     29  NE1      264.9740  257.2500  266.7100 N.ar   21  TRP21      -0.2442
     30  CE2      264.7650  258.4750  266.1440 C.ar   21  TRP21       0.0810
     31  CE3      264.4970  260.7670  266.8770 C.ar   21  TRP21       0.0012
     32  CZ2      264.6230  258.8340  264.8070 C.ar   21  TRP21       0.0191
     33  CZ3      264.3580  261.1240  265.5550 C.ar   21  TRP21       0.0001
     34  CH2      264.4190  260.1680  264.5390 C.ar   21  TRP21       0.0015
     35  N        260.6780  263.6560  271.3490 N.3    41  THR41      -0.1218
     36  CA       260.9310  262.7690  270.2200 C.3    41  THR41       0.1862
     37  C        259.9570  263.0610  269.0700 C.2    41  THR41       0.2287
     38  O        260.2910  262.8320  267.9150 O.2    41  THR41      -0.2866
     39  CB       260.9260  261.2940  270.6370 C.3    41  THR41       0.1770
     40  OG1      261.2900  260.5270  269.4920 O.3    41  THR41      -0.2211
     41  CG2      259.5820  260.8030  271.1250 C.3    41  THR41       0.0375
     42  N        261.0190  263.9530  265.2540 N.3    45  ILE45      -0.1245
     43  CA       260.4680  263.2450  264.0990 C.3    45  ILE45       0.1561
     44  C        259.8950  264.2540  263.0940 C.2    45  ILE45       0.2260
     45  O        260.1120  264.1030  261.8860 O.2    45  ILE45      -0.2867
     46  CB       259.4570  262.1730  264.5410 C.3    45  ILE45       0.0252
     47  CG1      260.2040  261.0070  265.1870 C.3    45  ILE45       0.0019
     48  CG2      258.5900  261.7110  263.3760 C.3    45  ILE45       0.0019
     49  CD1      259.3150  259.9760  265.8330 C.3    45  ILE45       0.0001
     50  N        262.8930  266.1040  261.2700 N.3    48  ILE48      -0.1231
     51  CA       263.6260  265.2620  260.3380 C.3    48  ILE48       0.1692
     52  C        262.7610  264.9350  259.1150 C.2    48  ILE48       0.2592
     53  O        263.2710  264.9370  257.9860 O.2    48  ILE48      -0.2718
     54  CB       264.1760  264.0230  261.0640 C.3    48  ILE48       0.0266
     55  CG1      265.2040  264.4280  262.1240 C.3    48  ILE48       0.0019
     56  CG2      264.7390  263.0010  260.0910 C.3    48  ILE48       0.0020
     57  CD1      266.3770  265.2380  261.6030 C.3    48  ILE48       0.0001
     58  N        261.4660  264.7120  259.3240 N.am   49  THR49      -0.1953
     59  CA       260.5560  264.4150  258.2290 C.3    49  THR49       0.1897
     60  C        260.4710  265.6120  257.2730 C.2    49  THR49       0.2313
     61  O        260.5320  265.4310  256.0470 O.2    49  THR49      -0.2863
     62  CB       259.1770  264.0250  258.7630 C.3    49  THR49       0.1794
     63  OG1      259.3440  262.8680  259.5820 O.3    49  THR49      -0.2208
     64  CG2      258.1880  263.7370  257.6580 C.3    49  THR49       0.0378
     65  N        263.7880  265.8640  255.1770 N.3    52  VAL52      -0.1231
     66  CA       263.9380  264.9040  254.0940 C.3    52  VAL52       0.1692
     67  C        262.9910  265.2660  252.9430 C.2    52  VAL52       0.2592
     68  O        263.3840  265.1940  251.7710 O.2    52  VAL52      -0.2718
     69  CB       263.7180  263.4700  254.6010 C.3    52  VAL52       0.0266
     70  CG1      263.7920  262.4500  253.4790 C.3    52  VAL52       0.0020
     71  CG2      264.7130  263.1300  255.6930 C.3    52  VAL52       0.0020
     72  N        261.7760  265.6870  253.2660 N.am   53  ASN53      -0.1974
     73  CA       260.8230  266.0560  252.2250 C.3    53  ASN53       0.1688
     74  C        261.2720  267.3180  251.4840 C.2    53  ASN53       0.2292
     75  O        261.0410  267.4300  250.2810 O.2    53  ASN53      -0.2864
     76  CB       259.4140  266.2090  252.7810 C.3    53  ASN53       0.1181
     77  CG       258.8470  264.8790  253.2180 C.2    53  ASN53       0.2629
     78  OD1      259.1020  263.8460  252.6010 O.2    53  ASN53      -0.2716
     79  ND2      258.0740  264.8970  254.2880 N.am   53  ASN53      -0.0877
@<TRIPOS>BOND
     1    75    74    2
     2    74    73    1
     3    68    67    2
     4    73    76    1
     5    73    72    1
     6    78    77    2
     7    76    77    1
     8    67    72   am
     9    67    66    1
    10    77    79   am
    11    70    69    1
    12    66    69    1
    13    66    65    1
    14    69    71    1
    15    61    60    2
    16    60    59    1
    17    64    62    1
    18    53    52    2
    19    59    62    1
    20    59    58    1
    21    62    63    1
    22    52    58   am
    23    52    51    1
    24    56    54    1
    25    51    54    1
    26    51    50    1
    27    54    55    1
    28    57    55    1
    29    45    44    2
    30    44    43    1
    31    48    46    1
    32    43    46    1
    33    43    42    1
    34    34    32   ar
    35    34    33   ar
    36    46    47    1
    37    32    30   ar
    38    47    49    1
    39    33    31   ar
    40    30    29   ar
    41    30    28   ar
    42    29    27   ar
    43    31    28   ar
    44    28    26   ar
    45    38    37    2
    46    27    26   ar
    47    26    25    1
    48    37    36    1
    49    40    39    1
    50    25    22    1
    51    36    39    1
    52    36    35    1
    53     4     3    2
    54    39    41    1
    55    20    19    2
    56    22    21    1
    57    22    23    1
    58    19    21   am
    59    19    18    1
    60     7     5    1
    61    18    17    1
    62    12    11    2
    63    17    11   am
    64    11    10    1
    65     3     2    1
    66     3     9   am
    67    10     9    1
    68    10    13    1
    69    23    24    2
    70     2     5    1
    71     2     1    1
    72     5     6    1
    73    13    14    1
    74     6     8    1
    75    14    15   ar
    76    14    16   ar
