@<TRIPOS>MOLECULE
tmp/6hjrA00.pdb
 76 70 0 0 0
SMALL
GASTEIGER

@<TRIPOS>ATOM
      1  N        259.4670  254.6540  216.2240 N.3    64  ASN64      -0.1240
      2  CA       260.0730  253.4780  215.6260 C.3    64  ASN64       0.1653
      3  C        259.0680  252.3370  215.6890 C.2    64  ASN64       0.2266
      4  O        258.5520  252.0330  216.7730 O.2    64  ASN64      -0.2867
      5  CB       261.3540  253.0970  216.3720 C.3    64  ASN64       0.1155
      6  CG       262.1420  251.9610  215.7040 C.2    64  ASN64       0.2627
      7  OD1      261.7670  251.4180  214.6700 O.2    64  ASN64      -0.2716
      8  ND2      263.2570  251.5990  216.3250 N.am   64  ASN64      -0.0877
      9  N        259.7050  249.3490  215.7600 N.3    66  GLU66      -0.1245
     10  CA       260.1700  248.4700  216.8260 C.3    66  GLU66       0.1567
     11  C        259.3900  248.6850  218.1140 C.2    66  GLU66       0.2260
     12  O        259.0910  247.7270  218.8320 O.2    66  GLU66      -0.2867
     13  CB       261.6550  248.6930  217.0790 C.3    66  GLU66       0.0388
     14  CG       262.5670  248.0070  216.1050 C.3    66  GLU66       0.1160
     15  CD       262.6120  246.5120  216.3370 C.2    66  GLU66       0.3649
     16  OE1      262.4280  246.0870  217.4950 O.co2  66  GLU66      -0.2457
     17  OE2      262.8470  245.7590  215.3720 O.co2  66  GLU66      -0.2457
     18  N        268.6430  248.4170  227.9970 N.3    84  ASN84      -0.1240
     19  CA       268.5500  247.8450  226.6640 C.3    84  ASN84       0.1653
     20  C        267.6610  248.6720  225.7530 C.2    84  ASN84       0.2266
     21  O        267.3410  248.2380  224.6430 O.2    84  ASN84      -0.2867
     22  CB       268.0460  246.4090  226.7470 C.3    84  ASN84       0.1155
     23  CG       269.0230  245.5070  227.4530 C.2    84  ASN84       0.2627
     24  OD1      270.2320  245.6280  227.2750 O.2    84  ASN84      -0.2716
     25  ND2      268.5070  244.5970  228.2660 N.am   84  ASN84      -0.0877
     26  N        267.4720  250.7860  223.1400 N.3    86  GLU86      -0.1231
     27  CA       268.3800  251.2420  222.1050 C.3    86  GLU86       0.1699
     28  C        267.6890  251.5880  220.8060 C.2    86  GLU86       0.2592
     29  O        268.3230  252.1810  219.9290 O.2    86  GLU86      -0.2718
     30  CB       269.4340  250.1720  221.8180 C.3    86  GLU86       0.0402
     31  CG       270.2980  249.8600  222.9970 C.3    86  GLU86       0.1161
     32  CD       271.2500  248.7340  222.7060 C.2    86  GLU86       0.3649
     33  OE1      271.1760  248.1760  221.5900 O.co2  86  GLU86      -0.2457
     34  OE2      272.0530  248.3900  223.5970 O.co2  86  GLU86      -0.2457
     35  N        266.4150  251.2420  220.6520 N.am   87  ASN87      -0.1974
     36  CA       265.7000  251.4700  219.4030 C.3    87  ASN87       0.1688
     37  C        265.2300  252.9180  219.3260 C.2    87  ASN87       0.2292
     38  O        264.0510  253.2460  219.4650 O.2    87  ASN87      -0.2864
     39  CB       264.5580  250.4830  219.2780 C.3    87  ASN87       0.1181
     40  CG       265.0610  249.1040  219.0520 C.2    87  ASN87       0.2629
     41  OD1      264.9000  248.2100  219.8780 O.2    87  ASN87      -0.2716
     42  ND2      265.7030  248.9220  217.9220 N.am   87  ASN87      -0.0877
     43  N        266.3370  254.6790  213.9190 N.3    90  CYS90      -0.1235
     44  CA       266.8240  253.6500  213.0110 C.3    90  CYS90       0.1677
     45  C        267.5370  254.2740  211.8270 C.2    90  CYS90       0.2270
     46  O        268.6260  253.8340  211.4460 O.2    90  CYS90      -0.2867
     47  CB       265.6750  252.7660  212.5450 C.3    90  CYS90       0.0956
     48  SG       264.3510  253.6610  211.7470 S.3    90  CYS90      -0.0801
     49  N        266.6010  250.0060  205.8770 N.3   135  ALA135     -0.1231
     50  CA       267.3980  250.2030  207.0760 C.3   135  ALA135      0.1694
     51  C        266.5120  250.3240  208.2990 C.2   135  ALA135      0.2592
     52  O        266.8970  249.8970  209.3920 O.2   135  ALA135     -0.2718
     53  CB       268.2700  251.4350  206.9410 C.3   135  ALA135      0.0304
     54  N        265.3380  250.9140  208.1380 N.am  136  CYS136     -0.1956
     55  CA       264.3280  250.8930  209.1850 C.3   136  CYS136      0.1843
     56  C        263.3540  249.7430  208.9760 C.2   136  CYS136      0.2626
     57  O        262.1450  249.9210  208.9790 O.2   136  CYS136     -0.2714
     58  CB       263.6140  252.2330  209.2250 C.3   136  CYS136      0.0997
     59  SG       264.7170  253.5390  209.7600 S.3   136  CYS136     -0.0797
     60  N        263.8920  248.5400  208.8120 N.am  137  SER137     -0.1950
     61  CA       263.0620  247.3900  208.5060 C.3   137  SER137      0.1924
     62  C        262.2820  246.9380  209.7310 C.2   137  SER137      0.2314
     63  O        262.5860  247.3060  210.8660 O.2   137  SER137     -0.2863
     64  CB       263.9140  246.2300  208.0110 C.3   137  SER137      0.2116
     65  OG       264.7220  245.7450  209.0630 O.3   137  SER137     -0.2180
     66  N        274.4020  251.2110  208.8920 N.3   221  ARG221     -0.1245
     67  CA       273.2160  250.3660  208.7670 C.3   221  ARG221      0.1563
     68  C        272.8130  250.1760  207.3120 C.2   221  ARG221      0.2260
     69  O        271.6300  250.0940  206.9850 O.2   221  ARG221     -0.2867
     70  CB       272.0570  250.9350  209.5840 C.3   221  ARG221      0.0307
     71  CG       272.3450  250.9790  211.0570 C.3   221  ARG221      0.0489
     72  CD       271.2590  251.7340  211.7550 C.3   221  ARG221      0.2205
     73  NE       269.9670  251.1250  211.4860 N.pl3 221  ARG221     -0.0865
     74  CZ       269.4600  250.1240  212.1890 C.cat 221  ARG221      0.5346
     75  NH1      270.1320  249.6220  213.2130 N.pl3 221  ARG221      0.1354
     76  NH2      268.2710  249.6320  211.8750 N.pl3 221  ARG221      0.1354
@<TRIPOS>BOND
     1    49    50    1
     2    53    50    1
     3    69    68    2
     4    50    51    1
     5    68    67    1
     6    64    61    1
     7    64    65    1
     8    54    51   am
     9    54    55    1
    10    51    52    2
    11    61    60    1
    12    61    62    1
    13    67    66    1
    14    67    70    1
    15    60    56   am
    16    56    57    2
    17    56    55    1
    18    55    58    1
    19    58    59    1
    20    70    71    1
    21    62    63    2
    22    59    48    1
    23    71    72    1
    24    46    45    2
    25    73    72    1
    26    73    74    2
    27    48    47    1
    28    45    44    1
    29    76    74    1
    30    74    75    1
    31    47    44    1
    32    44    43    1
    33     7     6    2
    34    17    15   ar
    35     2     3    1
    36     2     1    1
    37     2     5    1
    38     3     4    2
    39     6     8   am
    40     6     5    1
    41     9    10    1
    42    14    15    1
    43    14    13    1
    44    15    16   ar
    45    10    13    1
    46    10    11    1
    47    42    40   am
    48    11    12    2
    49    40    39    1
    50    40    41    2
    51    39    36    1
    52    37    36    1
    53    37    38    2
    54    36    35    1
    55    29    28    2
    56    35    28   am
    57    28    27    1
    58    33    32   ar
    59    30    27    1
    60    30    31    1
    61    27    26    1
    62    32    31    1
    63    32    34   ar
    64    21    20    2
    65    20    19    1
    66    19    22    1
    67    19    18    1
    68    22    23    1
    69    24    23    2
    70    23    25   am
