@<TRIPOS>MOLECULE
tmp/6hk6B00.pdb
 136 129 0 0 0
SMALL
GASTEIGER

@<TRIPOS>ATOM
      1  N        -74.6240   33.8220   90.9210 N.3     3  VAL3       -0.1245
      2  CA       -74.7450   32.8740   92.0670 C.3     3  VAL3        0.1561
      3  C        -73.8520   33.3510   93.2190 C.2     3  VAL3        0.2260
      4  O        -72.7360   33.8160   92.9530 O.2     3  VAL3       -0.2867
      5  CB       -74.4150   31.4410   91.6220 C.3     3  VAL3        0.0252
      6  CG1      -74.0630   30.5350   92.7910 C.3     3  VAL3        0.0019
      7  CG2      -75.5710   30.8500   90.8290 C.3     3  VAL3        0.0019
      8  N        -75.3220   22.8190   92.3220 N.3   100  MET100     -0.1230
      9  CA       -76.3010   23.1750   91.2810 C.3   100  MET100      0.1702
     10  C        -76.3830   22.0740   90.2100 C.2   100  MET100      0.2592
     11  O        -76.9560   22.3460   89.1570 O.2   100  MET100     -0.2718
     12  CB       -75.9420   24.5330   90.6670 C.3   100  MET100      0.0401
     13  CG       -74.4450   24.7700   90.4650 C.3   100  MET100      0.0596
     14  SD       -73.7370   23.5440   89.3690 S.3   100  MET100     -0.1393
     15  CE       -72.7910   24.5360   88.2310 C.3   100  MET100      0.0692
     16  N        -75.9090   20.8610   90.4970 N.am  101  GLY101     -0.1957
     17  CA       -76.1060   19.6880   89.6310 C.3   101  GLY101      0.1869
     18  C        -75.4800   18.4360   90.2180 C.2   101  GLY101      0.2309
     19  O        -74.8330   18.5360   91.2710 O.2   101  GLY101     -0.2863
     20  N        -71.8830   18.7020   91.6790 N.3   108  ILE108     -0.1245
     21  CA       -71.4210   19.8340   90.8300 C.3   108  ILE108      0.1561
     22  C        -71.7550   21.1280   91.5630 C.2   108  ILE108      0.2260
     23  O        -72.8950   21.2950   91.9670 O.2   108  ILE108     -0.2867
     24  CB       -72.0510   19.7820   89.4300 C.3   108  ILE108      0.0252
     25  CG1      -71.9740   18.3790   88.8240 C.3   108  ILE108      0.0019
     26  CG2      -71.4280   20.8350   88.5290 C.3   108  ILE108      0.0019
     27  CD1      -72.5350   18.2780   87.4030 C.3   108  ILE108      0.0001
     28  N        -70.7840   25.6060   91.6600 N.3   110  ILE110     -0.1245
     29  CA       -70.1290   26.7950   91.0540 C.3   110  ILE110      0.1561
     30  C        -69.0680   27.2670   92.0440 C.2   110  ILE110      0.2260
     31  O        -69.3610   27.2730   93.2490 O.2   110  ILE110     -0.2867
     32  CB       -71.1590   27.8690   90.6880 C.3   110  ILE110      0.0252
     33  CG1      -71.9130   27.4250   89.4370 C.3   110  ILE110      0.0019
     34  CG2      -70.4800   29.1990   90.4930 C.3   110  ILE110      0.0019
     35  CD1      -73.0330   28.3270   88.9860 C.3   110  ILE110      0.0001
     36  N        -66.9650   25.6030   87.0210 N.3   120  ALA120     -0.1245
     37  CA       -67.6650   24.4190   87.5570 C.3   120  ALA120      0.1562
     38  C        -66.6710   23.5930   88.3690 C.2   120  ALA120      0.2260
     39  O        -65.5160   23.4610   87.9590 O.2   120  ALA120     -0.2867
     40  CB       -68.2820   23.6190   86.4430 C.3   120  ALA120      0.0290
     41  N        -66.5100   19.7510   90.1800 N.3   122  LYS122     -0.1245
     42  CA       -67.0820   18.4050   90.3970 C.3   122  LYS122      0.1561
     43  C        -66.3080   17.7470   91.5380 C.2   122  LYS122      0.2260
     44  O        -65.0680   17.6800   91.4580 O.2   122  LYS122     -0.2867
     45  CB       -67.0660   17.5910   89.1100 C.3   122  LYS122      0.0271
     46  CG       -67.9840   18.1330   88.0310 C.3   122  LYS122      0.0035
     47  CD       -68.0760   17.2690   86.7870 C.3   122  LYS122      0.0206
     48  CE       -68.7850   15.9570   87.0310 C.3   122  LYS122      0.1093
     49  NZ       -68.8060   15.1310   85.7970 N.3   122  LYS122     -0.1314
     50  N        -66.2400   20.6020   78.5430 N.3   165  PRO165     -0.2116
     51  CA       -65.7000   21.8000   79.1670 C.3   165  PRO165      0.1372
     52  C        -64.1680   21.7660   79.1140 C.2   165  PRO165      0.2244
     53  O        -63.5980   20.6950   79.1480 O.2   165  PRO165     -0.2868
     54  CB       -66.1760   21.7120   80.6320 C.3   165  PRO165      0.0268
     55  CG       -67.2270   20.6320   80.6530 C.3   165  PRO165      0.0207
     56  CD       -66.8630   19.7030   79.5190 C.3   165  PRO165      0.0892
     57  N        -63.2500   23.0980   86.0920 N.3   177  MET177     -0.1230
     58  CA       -63.4090   23.1650   84.6210 C.3   177  MET177      0.1702
     59  C        -64.2730   24.3680   84.2400 C.2   177  MET177      0.2592
     60  O        -65.0090   24.8560   85.0870 O.2   177  MET177     -0.2718
     61  CB       -64.0740   21.8880   84.1060 C.3   177  MET177      0.0401
     62  CG       -65.4980   21.7330   84.5870 C.3   177  MET177      0.0596
     63  SD       -66.0980   20.0460   84.5010 S.3   177  MET177     -0.1393
     64  CE       -65.2350   19.3160   85.8870 C.3   177  MET177      0.0692
     65  N        -64.1820   24.7910   82.9880 N.am  178  GLU178     -0.1966
     66  CA       -65.0760   25.7840   82.3450 C.3   178  GLU178      0.1733
     67  C        -66.5170   25.5280   82.8020 C.2   178  GLU178      0.2616
     68  O        -66.9770   24.3710   82.7030 O.2   178  GLU178     -0.2715
     69  CB       -64.9460   25.6530   80.8300 C.3   178  GLU178      0.0429
     70  CG       -65.7320   26.6750   80.0300 C.3   178  GLU178      0.1163
     71  CD       -65.7740   26.3890   78.5290 C.2   178  GLU178      0.3649
     72  OE1      -65.2940   25.3190   78.1030 O.co2 178  GLU178     -0.2457
     73  OE2      -66.3060   27.2300   77.7930 O.co2 178  GLU178     -0.2457
     74  N        -67.1980   26.5550   83.3120 N.am  179  LEU179     -0.1963
     75  CA       -68.6640   26.5100   83.5410 C.3   179  LEU179      0.1728
     76  C        -69.3550   26.6520   82.1830 C.2   179  LEU179      0.2616
     77  O        -69.0510   27.6190   81.4690 O.2   179  LEU179     -0.2715
     78  CB       -69.0780   27.6460   84.4820 C.3   179  LEU179      0.0311
     79  CG       -70.5780   27.7790   84.7130 C.3   179  LEU179      0.0022
     80  CD1      -71.1480   26.5090   85.3230 C.3   179  LEU179      0.0001
     81  CD2      -70.8860   28.9890   85.5870 C.3   179  LEU179      0.0001
     82  N        -70.2610   25.7460   81.8390 N.am  180  ILE180     -0.1963
     83  CA       -71.0640   25.8680   80.5940 C.3   180  ILE180      0.1727
     84  C        -72.4130   26.4950   80.9370 C.2   180  ILE180      0.2616
     85  O        -73.1420   25.9270   81.7450 O.2   180  ILE180     -0.2715
     86  CB       -71.1630   24.5240   79.8530 C.3   180  ILE180      0.0290
     87  CG1      -69.8410   24.2330   79.1490 C.3   180  ILE180      0.0022
     88  CG2      -72.3070   24.5180   78.8490 C.3   180  ILE180      0.0023
     89  CD1      -69.1140   23.1260   79.7730 C.3   180  ILE180      0.0001
     90  N        -72.6630   27.6700   80.3740 N.am  181  ASN181     -0.1958
     91  CA       -73.8850   28.4750   80.5890 C.3   181  ASN181      0.1819
     92  C        -74.9670   27.8850   79.6910 C.2   181  ASN181      0.2622
     93  O        -74.8040   27.9120   78.4580 O.2   181  ASN181     -0.2715
     94  CB       -73.6460   29.9540   80.3100 C.3   181  ASN181      0.1195
     95  CG       -72.5670   30.5340   81.1950 C.2   181  ASN181      0.2630
     96  OD1      -72.6930   30.5240   82.4240 O.2   181  ASN181     -0.2716
     97  ND2      -71.5170   31.0400   80.5680 N.am  181  ASN181     -0.0877
     98  N        -76.0000   27.3220   80.3000 N.am  182  GLY182     -0.1940
     99  CA       -77.0910   26.6580   79.5840 C.3   182  GLY182      0.2014
    100  C        -77.8550   25.7470   80.5110 C.2   182  GLY182      0.2639
    101  O        -77.6320   25.8180   81.7290 O.2   182  GLY182     -0.2714
    102  N        -78.7090   24.9060   79.9460 N.am  183  TYR183     -0.1960
    103  CA       -79.6410   24.0380   80.6960 C.3   183  TYR183      0.1756
    104  C        -79.3480   22.6100   80.3130 C.2   183  TYR183      0.2461
    105  O        -79.0670   22.3460   79.1500 O.2   183  TYR183     -0.2730
    106  CB       -81.0970   24.4760   80.4500 C.3   183  TYR183      0.0574
    107  CG       -81.4400   25.8040   81.0960 C.ar  183  TYR183     -0.0198
    108  CD1      -81.0130   26.9780   80.4920 C.ar  183  TYR183     -0.0009
    109  CD2      -81.9870   25.9040   82.3720 C.ar  183  TYR183     -0.0009
    110  CE1      -81.1850   28.2180   81.0920 C.ar  183  TYR183      0.0417
    111  CE2      -82.1810   27.1290   82.9720 C.ar  183  TYR183      0.0417
    112  CZ       -81.7830   28.2970   82.3370 C.ar  183  TYR183      0.1957
    113  OH       -81.9930   29.5090   82.9370 O.3   183  TYR183     -0.2866
    114  N        -79.3860   21.6520   81.2690 N.am  184  PRO184     -0.2727
    115  CA       -79.3870   20.2470   80.8990 C.3   184  PRO184      0.1402
    116  C        -80.5980   20.0420   79.9820 C.2   184  PRO184      0.2269
    117  O        -81.6070   20.6580   80.1990 O.2   184  PRO184     -0.2865
    118  CB       -79.4770   19.4800   82.2110 C.3   184  PRO184      0.0296
    119  CG       -79.9580   20.4830   83.2030 C.3   184  PRO184      0.0237
    120  CD       -79.5170   21.8450   82.7230 C.3   184  PRO184      0.0939
    121  N        -75.5980   19.4580   78.2130 N.3   224  ILE224     -0.1245
    122  CA       -76.0720   20.8430   78.4370 C.3   224  ILE224      0.1561
    123  C        -76.1880   21.5640   77.1000 C.2   224  ILE224      0.2260
    124  O        -75.2720   21.4630   76.2840 O.2   224  ILE224     -0.2867
    125  CB       -75.1440   21.5170   79.4450 C.3   224  ILE224      0.0252
    126  CG1      -75.3860   20.8710   80.8100 C.3   224  ILE224      0.0019
    127  CG2      -75.3520   23.0140   79.4710 C.3   224  ILE224      0.0019
    128  CD1      -74.2200   20.9390   81.6860 C.3   224  ILE224      0.0001
    129  N        -70.9280   16.7810   80.0480 N.3   234  ILE234     -0.1245
    130  CA       -70.3490   17.2410   81.3500 C.3   234  ILE234      0.1561
    131  C        -70.1250   16.0860   82.3390 C.2   234  ILE234      0.2260
    132  O        -69.7170   16.3740   83.4660 O.2   234  ILE234     -0.2867
    133  CB       -71.1810   18.3860   81.9800 C.3   234  ILE234      0.0252
    134  CG1      -72.6600   18.0260   82.1920 C.3   234  ILE234      0.0019
    135  CG2      -71.0260   19.6530   81.1560 C.3   234  ILE234      0.0019
    136  CD1      -72.9340   17.1850   83.3970 C.3   234  ILE234      0.0001
@<TRIPOS>BOND
     1   124   123    2
     2   123   122    1
     3    73    71   ar
     4    72    71   ar
     5   121   122    1
     6   122   125    1
     7    93    92    2
     8    71    70    1
     9    50    51    1
    10    50    56    1
    11    88    86    1
    12    52    53    2
    13    52    51    1
    14    87    89    1
    15    87    86    1
    16   105   104    2
    17    51    54    1
    18   125   127    1
    19   125   126    1
    20    56    55    1
    21    99    98    1
    22    99   100    1
    23    92    98   am
    24    92    91    1
    25    86    83    1
    26   102   100   am
    27   102   103    1
    28   116   117    2
    29   116   115    1
    30    70    69    1
    31   129   130    1
    32    94    91    1
    33    94    95    1
    34   104   103    1
    35   104   114   am
    36    90    91    1
    37    90    84   am
    38   106   103    1
    39   106   107    1
    40   108   110   ar
    41   108   107   ar
    42   100   101    2
    43    97    95   am
    44    83    84    1
    45    83    82    1
    46    54    55    1
    47   126   128    1
    48    69    66    1
    49   115   114    1
    50   115   118    1
    51    84    85    2
    52   110   112   ar
    53   107   109   ar
    54   135   133    1
    55    95    96    2
    56   114   120    1
    57   130   133    1
    58   130   131    1
    59    77    76    2
    60    82    76   am
    61   133   134    1
    62    76    75    1
    63   134   136    1
    64   118   119    1
    65   112   113    1
    66   112   111   ar
    67   131   132    2
    68    66    67    1
    69    66    65    1
    70   109   111   ar
    71    68    67    2
    72   120   119    1
    73    67    74   am
    74    65    59   am
    75    74    75    1
    76    75    78    1
    77    61    62    1
    78    61    58    1
    79    59    58    1
    80    59    60    2
    81    78    79    1
    82    63    62    1
    83    63    64    1
    84    58    57    1
    85    79    80    1
    86    79    81    1
    87    49    48    1
    88    40    37    1
    89    47    48    1
    90    47    46    1
    91    36    37    1
    92    27    25    1
    93    37    38    1
    94    39    38    2
    95    46    45    1
    96    15    14    1
    97    26    24    1
    98    25    24    1
    99    35    33    1
   100    45    42    1
   101    11    10    2
   102    14    13    1
   103    24    21    1
   104    33    32    1
   105    17    18    1
   106    17    16    1
   107    41    42    1
   108    10    16   am
   109    10     9    1
   110    18    19    2
   111    42    43    1
   112    13    12    1
   113    34    32    1
   114    12     9    1
   115    32    29    1
   116     7     5    1
   117    21    22    1
   118    21    20    1
   119     1     2    1
   120    29    28    1
   121    29    30    1
   122     9     8    1
   123    44    43    2
   124    22    23    2
   125     5     2    1
   126     5     6    1
   127    30    31    2
   128     2     3    1
   129     4     3    2
