@<TRIPOS>MOLECULE
tmp/6hkbA01.pdb
 99 92 0 0 0
SMALL
GASTEIGER

@<TRIPOS>ATOM
      1  N         24.7310   20.7680   -3.5520 N.3    47  CYS47      -0.1235
      2  CA        23.7180   19.7370   -3.3670 C.3    47  CYS47       0.1677
      3  C         24.2870   18.3500   -3.6100 C.2    47  CYS47       0.2270
      4  O         24.0110   17.4210   -2.8430 O.2    47  CYS47      -0.2867
      5  CB        22.5480   19.9920   -4.2960 C.3    47  CYS47       0.0956
      6  SG        21.4420   21.1490   -3.5500 S.3    47  CYS47      -0.0801
      7  N         26.3770   17.3210   -0.5970 N.3    50  SER50      -0.1202
      8  CA        25.6150   16.9970    0.6050 C.3    50  SER50       0.2020
      9  C         24.8130   15.7140    0.4250 C.2    50  SER50       0.2618
     10  O         24.7420   14.8940    1.3460 O.2    50  SER50      -0.2717
     11  CB        24.7020   18.1650    0.9830 C.3    50  SER50       0.2103
     12  OG        23.6710   18.3400    0.0300 O.3    50  SER50      -0.2182
     13  N         24.2180   15.5100   -0.7560 N.am   51  VAL51      -0.1979
     14  CA        23.4350   14.2960   -0.9940 C.3    51  VAL51       0.1595
     15  C         24.3150   13.0580   -0.8620 C.2    51  VAL51       0.2287
     16  O         23.9270   12.0620   -0.2380 O.2    51  VAL51      -0.2864
     17  CB        22.7580   14.3550   -2.3770 C.3    51  VAL51       0.0276
     18  CG1       22.3040   12.9590   -2.8270 C.3    51  VAL51       0.0022
     19  CG2       21.5880   15.3270   -2.3470 C.3    51  VAL51       0.0022
     20  N         24.7920   27.0840    4.0340 N.3   124  PHE124     -0.1241
     21  CA        24.8010   25.6790    3.6330 C.3   124  PHE124      0.1605
     22  C         25.9690   24.9270    4.2640 C.2   124  PHE124      0.2264
     23  O         25.7820   23.8550    4.8600 O.2   124  PHE124     -0.2867
     24  CB        24.8650   25.5890    2.1050 C.3   124  PHE124      0.0534
     25  CG        24.5680   24.2210    1.5520 C.ar  124  PHE124     -0.0203
     26  CD1       25.5710   23.2680    1.4400 C.ar  124  PHE124     -0.0042
     27  CD2       23.2930   23.9030    1.1190 C.ar  124  PHE124     -0.0042
     28  CE1       25.3010   22.0180    0.9170 C.ar  124  PHE124     -0.0003
     29  CE2       23.0140   22.6610    0.5950 C.ar  124  PHE124     -0.0003
     30  CZ        24.0210   21.7140    0.5030 C.ar  124  PHE124     -0.0000
     31  N         25.6750   24.6790    8.1450 N.3   127  LYS127     -0.1245
     32  CA        24.7280   23.6240    8.4860 C.3   127  LYS127      0.1561
     33  C         25.3860   22.2520    8.3700 C.2   127  LYS127      0.2260
     34  O         25.2260   21.3970    9.2500 O.2   127  LYS127     -0.2867
     35  CB        23.4930   23.6990    7.5870 C.3   127  LYS127      0.0271
     36  CG        22.5330   22.5260    7.7720 C.3   127  LYS127      0.0035
     37  CD        21.3630   22.6220    6.7980 C.3   127  LYS127      0.0206
     38  CE        20.4980   21.3630    6.8660 C.3   127  LYS127      0.1093
     39  NZ        21.2430   20.1250    6.4600 N.3   127  LYS127     -0.1314
     40  N         14.5470   27.5300    1.6820 N.3   172  PRO172     -0.2102
     41  CA        14.6480   26.1090    2.0540 C.3   172  PRO172      0.1504
     42  C         15.8990   25.7650    2.8380 C.2   172  PRO172      0.2575
     43  O         15.8580   24.8560    3.6770 O.2   172  PRO172     -0.2718
     44  CB        14.6110   25.3870    0.6990 C.3   172  PRO172      0.0282
     45  CG        13.8650   26.3360   -0.1920 C.3   172  PRO172      0.0208
     46  CD        14.3030   27.7070    0.2410 C.3   172  PRO172      0.0893
     47  N         17.0140   26.4580    2.5950 N.am  173  ILE173     -0.1980
     48  CA        18.2160   26.1750    3.3710 C.3   173  ILE173      0.1595
     49  C         18.0350   26.6550    4.7990 C.2   173  ILE173      0.2287
     50  O         18.4030   25.9630    5.7530 O.2   173  ILE173     -0.2864
     51  CB        19.4530   26.8090    2.7100 C.3   173  ILE173      0.0276
     52  CG1       19.6860   26.1950    1.3230 C.3   173  ILE173      0.0022
     53  CG2       20.6870   26.6390    3.6010 C.3   173  ILE173      0.0022
     54  CD1       20.8020   26.8500    0.5650 C.3   173  ILE173      0.0001
     55  N         15.6930   24.0930    6.4430 N.3   176  GLY176     -0.1225
     56  CA        16.3380   22.8250    6.7440 C.3   176  GLY176      0.1811
     57  C         17.3650   22.9590    7.8500 C.2   176  GLY176      0.2280
     58  O         17.5270   22.0540    8.6730 O.2   176  GLY176     -0.2866
     59  N          5.9070   25.2610   -3.1230 N.3   219  LYS219     -0.1231
     60  CA         5.9850   23.8170   -2.9470 C.3   219  LYS219      0.1693
     61  C          7.2660   23.4220   -2.2140 C.2   219  LYS219      0.2592
     62  O          7.2380   22.5670   -1.3250 O.2   219  LYS219     -0.2718
     63  CB         5.8870   23.1180   -4.3050 C.3   219  LYS219      0.0285
     64  CG         6.3020   21.6550   -4.2450 C.3   219  LYS219      0.0035
     65  CD         5.9940   20.8940   -5.5270 C.3   219  LYS219      0.0206
     66  CE         6.9780   19.7410   -5.7050 C.3   219  LYS219      0.1093
     67  NZ         7.4080   19.1750   -4.3900 N.3   219  LYS219     -0.1314
     68  N          8.3920   24.0580   -2.5520 N.am  220  ASP220     -0.1974
     69  CA         9.6530   23.7480   -1.8830 C.3   220  ASP220      0.1709
     70  C          9.5790   24.0740   -0.3980 C.2   220  ASP220      0.2293
     71  O          9.9520   23.2570    0.4500 O.2   220  ASP220     -0.2864
     72  CB        10.8070   24.5260   -2.5150 C.3   220  ASP220      0.1436
     73  CG        11.1270   24.0840   -3.9290 C.2   220  ASP220      0.3671
     74  OD1       10.7610   22.9540   -4.3250 O.co2 220  ASP220     -0.2456
     75  OD2       11.7680   24.8850   -4.6350 O.co2 220  ASP220     -0.2456
     76  N          7.1340   21.8570    1.6900 N.3   223  LEU223     -0.1231
     77  CA         7.6570   20.5100    1.9150 C.3   223  LEU223      0.1693
     78  C          8.4720   20.4510    3.2020 C.2   223  LEU223      0.2591
     79  O          8.3050   19.5360    4.0150 O.2   223  LEU223     -0.2718
     80  CB         8.5040   20.0520    0.7260 C.3   223  LEU223      0.0284
     81  CG         8.9230   18.5740    0.7700 C.3   223  LEU223      0.0019
     82  CD1        8.8830   17.9300   -0.6140 C.3   223  LEU223      0.0001
     83  CD2       10.3040   18.3870    1.4030 C.3   223  LEU223      0.0001
     84  N          9.3740   21.4090    3.3990 N.am  224  ILE224     -0.1980
     85  CA        10.1930   21.3630    4.6040 C.3   224  ILE224      0.1595
     86  C          9.3900   21.8030    5.8200 C.2   224  ILE224      0.2287
     87  O          9.6140   21.3070    6.9280 O.2   224  ILE224     -0.2864
     88  CB        11.4630   22.2050    4.4090 C.3   224  ILE224      0.0276
     89  CG1       12.1980   21.7500    3.1480 C.3   224  ILE224      0.0022
     90  CG2       12.3770   22.1180    5.6260 C.3   224  ILE224      0.0022
     91  CD1       13.2390   22.7150    2.6900 C.3   224  ILE224      0.0001
     92  N          7.9390   18.8420    7.4030 N.3   227  LEU227     -0.1245
     93  CA         8.8630   18.1170    8.2690 C.3   227  LEU227      0.1561
     94  C          8.9390   18.7500    9.6550 C.2   227  LEU227      0.2260
     95  O          8.9930   18.0360   10.6620 O.2   227  LEU227     -0.2867
     96  CB        10.2450   18.0560    7.6280 C.3   227  LEU227      0.0270
     97  CG        10.2650   17.4180    6.2390 C.3   227  LEU227      0.0019
     98  CD1       11.6470   17.5270    5.6620 C.3   227  LEU227      0.0001
     99  CD2        9.8130   15.9600    6.3160 C.3   227  LEU227      0.0001
@<TRIPOS>BOND
     1    66    65    1
     2    66    67    1
     3    65    64    1
     4    75    73   ar
     5    74    73   ar
     6    63    64    1
     7    63    60    1
     8     5     6    1
     9     5     2    1
    10    73    72    1
    11     3     2    1
    12     3     4    2
    13     1     2    1
    14    59    60    1
    15    60    61    1
    16    18    17    1
    17    68    61   am
    18    68    69    1
    19    72    69    1
    20    17    19    1
    21    17    14    1
    22    61    62    2
    23    69    70    1
    24    14    15    1
    25    14    13    1
    26    15    16    2
    27    13     9   am
    28    82    81    1
    29     7     8    1
    30    70    71    2
    31    45    46    1
    32    45    44    1
    33    12    11    1
    34    46    40    1
    35     9     8    1
    36     9    10    2
    37    30    29   ar
    38    30    28   ar
    39    54    52    1
    40    29    27   ar
    41     8    11    1
    42    44    41    1
    43    80    81    1
    44    80    77    1
    45    81    83    1
    46    28    26   ar
    47    27    25   ar
    48    52    51    1
    49    26    25   ar
    50    25    24    1
    51    40    41    1
    52    76    77    1
    53    77    78    1
    54    41    42    1
    55    24    21    1
    56    47    42   am
    57    47    48    1
    58    91    89    1
    59    51    48    1
    60    51    53    1
    61    42    43    2
    62    89    88    1
    63    78    84   am
    64    78    79    2
    65    48    49    1
    66    84    85    1
    67    21    20    1
    68    21    22    1
    69    22    23    2
    70    88    85    1
    71    88    90    1
    72    85    86    1
    73    49    50    2
    74    98    97    1
    75    86    87    2
    76    97    99    1
    77    97    96    1
    78    55    56    1
    79    39    38    1
    80    56    57    1
    81    37    38    1
    82    37    36    1
    83    92    93    1
    84    35    36    1
    85    35    32    1
    86    96    93    1
    87    57    58    2
    88    31    32    1
    89    93    94    1
    90    33    32    1
    91    33    34    2
    92    94    95    2
