@<TRIPOS>MOLECULE
tmp/6hkeB00.pdb
 108 104 0 0 0
SMALL
GASTEIGER

@<TRIPOS>ATOM
      1  N          8.2470   51.0310    0.0910 N.3    12  PHE12      -0.1227
      2  CA         8.2370   50.4930   -1.2900 C.3    12  PHE12       0.1736
      3  C          9.6570   50.4690   -1.8480 C.2    12  PHE12       0.2595
      4  O         10.5050   51.2570   -1.3530 O.2    12  PHE12      -0.2718
      5  CB         7.3300   51.3490   -2.1640 C.3    12  PHE12       0.0547
      6  CG         5.8900   51.4070   -1.7280 C.ar   12  PHE12      -0.0202
      7  CD1        5.0390   50.3260   -1.9370 C.ar   12  PHE12      -0.0042
      8  CD2        5.3770   52.5560   -1.1400 C.ar   12  PHE12      -0.0042
      9  CE1        3.7050   50.3980   -1.5700 C.ar   12  PHE12      -0.0003
     10  CE2        4.0430   52.6170   -0.7600 C.ar   12  PHE12      -0.0003
     11  CZ         3.2050   51.5470   -0.9910 C.ar   12  PHE12      -0.0000
     12  N          9.8940   49.6020   -2.8410 N.am   13  ALA13      -0.1980
     13  CA        11.2320   49.3070   -3.4020 C.3    13  ALA13       0.1597
     14  C         11.9100   50.5950   -3.8500 C.2    13  ALA13       0.2287
     15  O         11.2280   51.5180   -4.3530 O.2    13  ALA13      -0.2864
     16  CB        11.1390   48.3430   -4.5590 C.3    13  ALA13       0.0319
     17  N         11.3440   53.5250   -7.0970 N.3    16  GLY16      -0.1210
     18  CA         9.9170   53.8190   -7.2860 C.3    16  GLY16       0.1940
     19  C          9.6030   55.2840   -6.9930 C.2    16  GLY16       0.2454
     20  O         10.4740   56.0510   -6.5670 O.2    16  GLY16      -0.2732
     21  N          8.3440   55.6980   -7.2540 N.am   17  PRO17      -0.2717
     22  CA         7.9400   57.0960   -7.1360 C.3    17  PRO17       0.1536
     23  C          8.1700   57.7130   -5.7410 C.2    17  PRO17       0.2599
     24  O          8.7450   58.7800   -5.6840 O.2    17  PRO17      -0.2715
     25  CB         6.4640   57.1070   -7.5870 C.3    17  PRO17       0.0310
     26  CG         6.0160   55.6610   -7.6390 C.3    17  PRO17       0.0237
     27  CD         7.2690   54.8330   -7.7640 C.3    17  PRO17       0.0939
     28  N          7.7790   57.0320   -4.6660 N.am   18  THR18      -0.1937
     29  CA         7.9310   57.4810   -3.2520 C.3    18  THR18       0.2028
     30  C          9.4220   57.5680   -2.8930 C.2    18  THR18       0.2642
     31  O          9.8580   58.5770   -2.3370 O.2    18  THR18      -0.2714
     32  CB         7.1960   56.5320   -2.2970 C.3    18  THR18       0.1808
     33  OG1        5.8870   56.3020   -2.8080 O.3    18  THR18      -0.2208
     34  CG2        7.0740   57.0680   -0.8900 C.3    18  THR18       0.0379
     35  N         10.1730   56.5220   -3.2000 N.am   19  ASP19      -0.1971
     36  CA        11.6440   56.4890   -3.0300 C.3    19  ASP19       0.1709
     37  C         12.2460   57.7090   -3.7340 C.2    19  ASP19       0.2293
     38  O         13.0690   58.4030   -3.1090 O.2    19  ASP19      -0.2864
     39  CB        12.2210   55.1910   -3.5940 C.3    19  ASP19       0.1436
     40  CG        13.7100   55.0560   -3.3410 C.2    19  ASP19       0.3671
     41  OD1       14.1120   54.9650   -2.1620 O.co2  19  ASP19      -0.2456
     42  OD2       14.4530   55.0450   -4.3250 O.co2  19  ASP19      -0.2456
     43  N          1.4030   58.1910    1.6160 N.3    68  HIS68      -0.1241
     44  CA         0.6540   58.7470    0.4630 C.3    68  HIS68       0.1621
     45  C         -0.8160   58.3330    0.5470 C.2    68  HIS68       0.2264
     46  O         -1.2210   57.8220    1.5880 O.2    68  HIS68      -0.2867
     47  CB         1.3490   58.3660   -0.8520 C.3    68  HIS68       0.0745
     48  CG         1.5360   56.9000   -1.0740 C.ar   68  HIS68       0.0817
     49  ND1        0.7050   55.9460   -0.5230 N.ar   68  HIS68      -0.2268
     50  CD2        2.4110   56.2360   -1.8580 C.ar   68  HIS68       0.1154
     51  CE1        1.0750   54.7560   -0.9440 C.ar   68  HIS68       0.1986
     52  NE2        2.1230   54.9000   -1.7560 N.ar   68  HIS68      -0.2212
     53  N          1.2690   47.4010   -5.9540 N.3   133  ALA133     -0.1245
     54  CA         2.2780   47.2800   -4.8730 C.3   133  ALA133      0.1562
     55  C          1.5790   46.9580   -3.5480 C.2   133  ALA133      0.2260
     56  O          2.0360   47.4220   -2.4810 O.2   133  ALA133     -0.2867
     57  CB         3.0870   48.5470   -4.8050 C.3   133  ALA133      0.0290
     58  N         -1.0750   50.5100   -1.5250 N.3   137  SER137     -0.1202
     59  CA        -0.4130   51.2150   -2.6560 C.3   137  SER137      0.2020
     60  C         -1.4260   52.1020   -3.3880 C.2   137  SER137      0.2619
     61  O         -2.6350   51.7670   -3.4240 O.2   137  SER137     -0.2717
     62  CB         0.2650   50.2550   -3.5850 C.3   137  SER137      0.2103
     63  OG        -0.6760   49.5700   -4.3940 O.3   137  SER137     -0.2182
     64  N         -0.9380   53.2140   -3.9190 N.am  138  VAL138     -0.1965
     65  CA        -1.7010   54.1160   -4.8190 C.3   138  VAL138      0.1727
     66  C         -2.1290   53.2870   -6.0220 C.2   138  VAL138      0.2616
     67  O         -3.2730   53.4670   -6.4880 O.2   138  VAL138     -0.2715
     68  CB        -0.8490   55.3170   -5.2560 C.3   138  VAL138      0.0290
     69  CG1       -1.4920   56.1070   -6.3830 C.3   138  VAL138      0.0023
     70  CG2       -0.5340   56.2160   -4.0780 C.3   138  VAL138      0.0023
     71  N         -1.2150   52.4420   -6.5020 N.am  139  SER139     -0.1950
     72  CA        -1.3810   51.6680   -7.7450 C.3   139  SER139      0.1924
     73  C         -2.5550   50.7030   -7.5380 C.2   139  SER139      0.2314
     74  O         -3.4080   50.6150   -8.4440 O.2   139  SER139     -0.2863
     75  CB        -0.0850   50.9960   -8.1840 C.3   139  SER139      0.2116
     76  OG         0.3450   49.9820   -7.2960 O.3   139  SER139     -0.2180
     77  N          6.6620   47.4190   -5.0880 N.3   161  GLY161     -0.1210
     78  CA         6.6700   48.8160   -5.5590 C.3   161  GLY161      0.1956
     79  C          6.3610   48.9130   -7.0430 C.2   161  GLY161      0.2613
     80  O          6.3840   47.8710   -7.7230 O.2   161  GLY161     -0.2717
     81  N          6.1050   50.1210   -7.5500 N.am  162  THR162     -0.1938
     82  CA         5.8320   50.3310   -8.9870 C.3   162  THR162      0.2028
     83  C          7.1440   50.5010   -9.7580 C.2   162  THR162      0.2642
     84  O          7.0700   50.4810  -10.9960 O.2   162  THR162     -0.2714
     85  CB         4.8270   51.4660   -9.2160 C.3   162  THR162      0.1808
     86  OG1        5.3230   52.6360   -8.5660 O.3   162  THR162     -0.2208
     87  CG2        3.4390   51.0970   -8.7200 C.3   162  THR162      0.0379
     88  N          8.2790   50.6480   -9.0750 N.am  163  GLY163     -0.1954
     89  CA         9.6180   50.4920   -9.6790 C.3   163  GLY163      0.1869
     90  C          9.7190   49.1400  -10.3790 C.2   163  GLY163      0.2309
     91  O          9.8240   49.0690  -11.6030 O.2   163  GLY163     -0.2863
     92  N         -0.3510   54.2260  -12.1360 N.3   179  ASP179     -0.1225
     93  CA         0.9610   54.5840  -11.5480 C.3   179  ASP179      0.1805
     94  C          1.0560   56.1020  -11.4370 C.2   179  ASP179      0.2597
     95  O          0.4590   56.8130  -12.2760 O.2   179  ASP179     -0.2718
     96  CB         2.1330   53.9890  -12.3340 C.3   179  ASP179      0.1424
     97  CG         3.4570   53.9100  -11.5670 C.2   179  ASP179      0.3668
     98  OD1        3.4540   54.2060  -10.3350 O.co2 179  ASP179     -0.2456
     99  OD2        4.4950   53.5440  -12.2050 O.co2 179  ASP179     -0.2456
    100  N          1.7950   56.5450  -10.4190 N.am  180  GLN180     -0.1979
    101  CA         2.1190   57.9550  -10.1670 C.3   180  GLN180      0.1601
    102  C          3.0040   58.4330  -11.3150 C.2   180  GLN180      0.2287
    103  O          3.8570   57.6500  -11.8090 O.2   180  GLN180     -0.2864
    104  CB         2.7430   58.0860   -8.7890 C.3   180  GLN180      0.0394
    105  CG         1.7950   57.6100   -7.7100 C.3   180  GLN180      0.0908
    106  CD         2.4730   57.4680   -6.3760 C.2   180  GLN180      0.2608
    107  OE1        2.8290   58.4640   -5.7520 O.2   180  GLN180     -0.2717
    108  NE2        2.6360   56.2280   -5.9340 N.am  180  GLN180     -0.0878
@<TRIPOS>BOND
     1    96    97    1
     2    96    93    1
     3    95    94    2
     4    99    97   ar
     5    92    93    1
     6   103   102    2
     7    91    90    2
     8    97    98   ar
     9    93    94    1
    10    94   100   am
    11   102   101    1
    12    84    83    2
    13   100   101    1
    14    90    89    1
    15   101   104    1
    16    83    88   am
    17    83    82    1
    18    89    88    1
    19    85    82    1
    20    85    87    1
    21    85    86    1
    22    82    81    1
    23   104   105    1
    24    74    73    2
    25    75    72    1
    26    75    76    1
    27    27    26    1
    28    27    21    1
    29    72    73    1
    30    72    71    1
    31    80    79    2
    32   105   106    1
    33    26    25    1
    34    25    22    1
    35    81    79   am
    36    18    17    1
    37    18    19    1
    38    21    22    1
    39    21    19   am
    40    22    23    1
    41    79    78    1
    42    19    20    2
    43    71    66   am
    44    67    66    2
    45    69    68    1
    46   106   108   am
    47   106   107    2
    48    66    65    1
    49    53    54    1
    50    23    24    2
    51    23    28   am
    52    78    77    1
    53    68    65    1
    54    68    70    1
    55    54    57    1
    56    54    55    1
    57    65    64    1
    58    28    29    1
    59    16    13    1
    60    63    62    1
    61    15    14    2
    62    42    40   ar
    63    64    60   am
    64    14    13    1
    65    37    38    2
    66    37    36    1
    67    39    40    1
    68    39    36    1
    69    62    59    1
    70    55    56    2
    71    61    60    2
    72    13    12    1
    73    60    59    1
    74    40    41   ar
    75    29    30    1
    76    29    32    1
    77    35    36    1
    78    35    30   am
    79    30    31    2
    80    12     3   am
    81    33    32    1
    82    59    58    1
    83    32    34    1
    84     5     6    1
    85     5     2    1
    86     7     6   ar
    87     7     9   ar
    88    50    52   ar
    89    50    48   ar
    90     3     4    2
    91     3     2    1
    92    52    51   ar
    93     6     8   ar
    94     9    11   ar
    95     2     1    1
    96     8    10   ar
    97    48    47    1
    98    48    49   ar
    99    11    10   ar
   100    51    49   ar
   101    47    44    1
   102    44    45    1
   103    44    43    1
   104    45    46    2
