@<TRIPOS>MOLECULE
tmp/6hkfA01.pdb
 90 83 0 0 0
SMALL
GASTEIGER

@<TRIPOS>ATOM
      1  N         24.4930   20.6230   -3.6570 N.3    47  CYS47      -0.1235
      2  CA        23.5050   19.5760   -3.4320 C.3    47  CYS47       0.1677
      3  C         24.0870   18.1990   -3.7210 C.2    47  CYS47       0.2270
      4  O         23.7950   17.2350   -3.0040 O.2    47  CYS47      -0.2867
      5  CB        22.2650   19.8360   -4.2830 C.3    47  CYS47       0.0956
      6  SG        21.0760   20.9220   -3.4710 S.3    47  CYS47      -0.0801
      7  N         26.2160   17.2980   -0.6530 N.3    50  SER50      -0.1202
      8  CA        25.4550   16.9870    0.5530 C.3    50  SER50       0.2020
      9  C         24.6520   15.6990    0.3940 C.2    50  SER50       0.2618
     10  O         24.5710   14.9010    1.3320 O.2    50  SER50      -0.2717
     11  CB        24.5410   18.1570    0.9150 C.3    50  SER50       0.2103
     12  OG        23.5310   18.3340   -0.0600 O.3    50  SER50      -0.2182
     13  N         24.0600   15.4720   -0.7840 N.am   51  VAL51      -0.1979
     14  CA        23.2800   14.2510   -1.0030 C.3    51  VAL51       0.1595
     15  C         24.1670   13.0200   -0.8660 C.2    51  VAL51       0.2287
     16  O         23.7960   12.0330   -0.2170 O.2    51  VAL51      -0.2864
     17  CB        22.5850   14.2930   -2.3770 C.3    51  VAL51       0.0276
     18  CG1       22.1480   12.8950   -2.8030 C.3    51  VAL51       0.0022
     19  CG2       21.3890   15.2250   -2.3330 C.3    51  VAL51       0.0022
     20  N         24.6920   27.1230    4.0050 N.3   124  PHE124     -0.1241
     21  CA        24.6700   25.7180    3.6000 C.3   124  PHE124      0.1605
     22  C         25.8420   24.9490    4.2010 C.2   124  PHE124      0.2264
     23  O         25.6640   23.8620    4.7640 O.2   124  PHE124     -0.2867
     24  CB        24.6890   25.6180    2.0720 C.3   124  PHE124      0.0534
     25  CG        24.3620   24.2450    1.5390 C.ar  124  PHE124     -0.0203
     26  CD1       25.3530   23.2800    1.4090 C.ar  124  PHE124     -0.0042
     27  CD2       23.0730   23.9310    1.1390 C.ar  124  PHE124     -0.0042
     28  CE1       25.0560   22.0180    0.9080 C.ar  124  PHE124     -0.0003
     29  CE2       22.7700   22.6730    0.6370 C.ar  124  PHE124     -0.0003
     30  CZ        23.7630   21.7170    0.5220 C.ar  124  PHE124     -0.0000
     31  N         25.6240   24.7560    8.0970 N.3   127  LYS127     -0.1245
     32  CA        24.6630   23.7160    8.4530 C.3   127  LYS127      0.1561
     33  C         25.2960   22.3330    8.3390 C.2   127  LYS127      0.2260
     34  O         25.1420   21.4910    9.2330 O.2   127  LYS127     -0.2867
     35  CB        23.4210   23.8130    7.5640 C.3   127  LYS127      0.0271
     36  CG        22.4440   22.6600    7.7530 C.3   127  LYS127      0.0035
     37  CD        21.3160   22.6970    6.7320 C.3   127  LYS127      0.0206
     38  CE        20.5110   21.4020    6.7630 C.3   127  LYS127      0.1093
     39  NZ        21.3180   20.2220    6.3280 N.3   127  LYS127     -0.1314
     40  N         14.5110   27.7850    1.6960 N.3   172  PRO172     -0.2102
     41  CA        14.5980   26.3620    2.0610 C.3   172  PRO172      0.1504
     42  C         15.8700   25.9900    2.7990 C.2   172  PRO172      0.2575
     43  O         15.8380   25.0740    3.6300 O.2   172  PRO172     -0.2718
     44  CB        14.5020   25.6460    0.7080 C.3   172  PRO172      0.0282
     45  CG        13.8880   26.6510   -0.2230 C.3   172  PRO172      0.0208
     46  CD        14.3890   27.9780    0.2420 C.3   172  PRO172      0.0893
     47  N         16.9920   26.6560    2.5170 N.am  173  ILE173     -0.1980
     48  CA        18.2040   26.3920    3.2870 C.3   173  ILE173      0.1595
     49  C         18.0210   26.8480    4.7300 C.2   173  ILE173      0.2287
     50  O         18.3820   26.1310    5.6710 O.2   173  ILE173     -0.2864
     51  CB        19.4210   27.0610    2.6220 C.3   173  ILE173      0.0276
     52  CG1       19.5840   26.5610    1.1840 C.3   173  ILE173      0.0022
     53  CG2       20.6880   26.7960    3.4290 C.3   173  ILE173      0.0022
     54  CD1       20.7410   27.1920    0.4480 C.3   173  ILE173      0.0001
     55  N         15.6890   24.2570    6.3600 N.3   176  GLY176     -0.1225
     56  CA        16.3390   22.9900    6.6500 C.3   176  GLY176      0.1811
     57  C         17.3510   23.1040    7.7720 C.2   176  GLY176      0.2280
     58  O         17.5130   22.1780    8.5740 O.2   176  GLY176     -0.2866
     59  N          8.6120   24.1670   -2.5590 N.3   220  ASP220     -0.1239
     60  CA         9.8560   23.9380   -1.8270 C.3   220  ASP220      0.1674
     61  C          9.6810   24.2260   -0.3420 C.2   220  ASP220      0.2266
     62  O         10.0110   23.3930    0.5100 O.2   220  ASP220     -0.2867
     63  CB        10.9730   24.8190   -2.3910 C.3   220  ASP220      0.1410
     64  CG        11.3930   24.4200   -3.7870 C.2   220  ASP220      0.3668
     65  OD1       11.1500   23.2610   -4.1880 O.co2 220  ASP220     -0.2456
     66  OD2       11.9820   25.2750   -4.4770 O.co2 220  ASP220     -0.2456
     67  N          7.1330   21.9940    1.6820 N.3   223  LEU223     -0.1231
     68  CA         7.6300   20.6380    1.9010 C.3   223  LEU223      0.1693
     69  C          8.4550   20.5540    3.1790 C.2   223  LEU223      0.2591
     70  O          8.3050   19.6100    3.9650 O.2   223  LEU223     -0.2718
     71  CB         8.4530   20.1720    0.6990 C.3   223  LEU223      0.0284
     72  CG         9.1030   18.7930    0.8560 C.3   223  LEU223      0.0019
     73  CD1        8.8300   17.9160   -0.3570 C.3   223  LEU223      0.0001
     74  CD2       10.6050   18.9150    1.1040 C.3   223  LEU223      0.0001
     75  N          9.3320   21.5300    3.4060 N.am  224  ILE224     -0.1980
     76  CA        10.1420   21.5050    4.6170 C.3   224  ILE224      0.1595
     77  C          9.3190   21.9330    5.8250 C.2   224  ILE224      0.2287
     78  O          9.5560   21.4560    6.9410 O.2   224  ILE224     -0.2864
     79  CB        11.3920   22.3820    4.4410 C.3   224  ILE224      0.0276
     80  CG1       12.1110   22.0190    3.1380 C.3   224  ILE224      0.0022
     81  CG2       12.3340   22.2260    5.6320 C.3   224  ILE224      0.0022
     82  CD1       13.2370   22.9610    2.7880 C.3   224  ILE224      0.0001
     83  N          7.8860   18.9460    7.3350 N.3   227  LEU227     -0.1245
     84  CA         8.8200   18.2010    8.1720 C.3   227  LEU227      0.1561
     85  C          8.9120   18.8030    9.5700 C.2   227  LEU227      0.2260
     86  O          9.0130   18.0700   10.5600 O.2   227  LEU227     -0.2867
     87  CB        10.1960   18.1570    7.5120 C.3   227  LEU227      0.0270
     88  CG        10.2240   17.5050    6.1290 C.3   227  LEU227      0.0019
     89  CD1       11.6200   17.5580    5.5540 C.3   227  LEU227      0.0001
     90  CD2        9.7230   16.0700    6.2110 C.3   227  LEU227      0.0001
@<TRIPOS>BOND
     1    66    64   ar
     2     5     6    1
     3     5     2    1
     4    65    64   ar
     5    64    63    1
     6     3     2    1
     7     3     4    2
     8     1     2    1
     9    18    17    1
    10    59    60    1
    11    63    60    1
    12    17    19    1
    13    17    14    1
    14    60    61    1
    15    14    15    1
    16    14    13    1
    17    15    16    2
    18    13     9   am
    19     7     8    1
    20    73    72    1
    21    61    62    2
    22    45    46    1
    23    45    44    1
    24    12    11    1
    25    46    40    1
    26     9     8    1
    27     9    10    2
    28    54    52    1
    29    30    29   ar
    30    30    28   ar
    31     8    11    1
    32    29    27   ar
    33    71    72    1
    34    71    68    1
    35    44    41    1
    36    72    74    1
    37    28    26   ar
    38    27    25   ar
    39    52    51    1
    40    26    25   ar
    41    25    24    1
    42    67    68    1
    43    40    41    1
    44    68    69    1
    45    41    42    1
    46    24    21    1
    47    47    42   am
    48    47    48    1
    49    51    48    1
    50    51    53    1
    51    82    80    1
    52    42    43    2
    53    80    79    1
    54    69    75   am
    55    69    70    2
    56    48    49    1
    57    75    76    1
    58    21    20    1
    59    21    22    1
    60    22    23    2
    61    79    76    1
    62    79    81    1
    63    76    77    1
    64    49    50    2
    65    89    88    1
    66    77    78    2
    67    88    90    1
    68    88    87    1
    69    39    38    1
    70    55    56    1
    71    56    57    1
    72    37    38    1
    73    37    36    1
    74    83    84    1
    75    87    84    1
    76    35    36    1
    77    35    32    1
    78    57    58    2
    79    31    32    1
    80    84    85    1
    81    33    32    1
    82    33    34    2
    83    85    86    2
