@<TRIPOS>MOLECULE
tmp/6hkmA00.pdb
 204 188 0 0 0
SMALL
GASTEIGER

@<TRIPOS>ATOM
      1  N         -2.8900  -49.1840   -6.7320 N.3     8  ILE8       -0.1231
      2  CA        -1.4660  -49.1930   -6.3780 C.3     8  ILE8        0.1692
      3  C         -1.2200  -48.5490   -5.0130 C.2     8  ILE8        0.2592
      4  O         -0.7880  -49.2260   -4.0740 O.2     8  ILE8       -0.2718
      5  CB        -0.6390  -48.4670   -7.4630 C.3     8  ILE8        0.0266
      6  CG1       -0.6940  -49.2480   -8.7850 C.3     8  ILE8        0.0019
      7  CG2        0.8110  -48.2710   -7.0270 C.3     8  ILE8        0.0020
      8  CD1       -0.4860  -48.3810  -10.0090 C.3     8  ILE8        0.0001
      9  N         -1.4840  -47.2440   -4.9230 N.am    9  GLY9       -0.1957
     10  CA        -1.2120  -46.4460   -3.7220 C.3     9  GLY9        0.1869
     11  C         -2.4800  -45.8450   -3.1430 C.2     9  GLY9        0.2309
     12  O         -3.3790  -45.4500   -3.8870 O.2     9  GLY9       -0.2863
     13  N         -4.5310  -44.0760   -6.5830 N.3    12  VAL12      -0.1245
     14  CA        -3.9360  -44.3400   -7.9000 C.3    12  VAL12       0.1561
     15  C         -4.2060  -45.7830   -8.2830 C.2    12  VAL12       0.2260
     16  O         -4.0710  -46.6780   -7.4490 O.2    12  VAL12      -0.2867
     17  CB        -2.4120  -44.1070   -7.9120 C.3    12  VAL12       0.0252
     18  CG1       -1.8500  -44.2280   -9.3250 C.3    12  VAL12       0.0019
     19  CG2       -2.0820  -42.7360   -7.3530 C.3    12  VAL12       0.0019
     20  N         -1.0970  -44.9140  -15.7330 N.3    19  ALA19      -0.1245
     21  CA        -1.5230  -44.7270  -14.3410 C.3    19  ALA19       0.1562
     22  C         -2.6690  -43.7190  -14.3300 C.2    19  ALA19       0.2260
     23  O         -2.6020  -42.7120  -15.0330 O.2    19  ALA19      -0.2867
     24  CB        -0.3670  -44.2190  -13.4940 C.3    19  ALA19       0.0290
     25  N         -5.1450  -41.4200  -11.6440 N.3    21  LYS21      -0.1245
     26  CA        -5.3050  -40.9150  -10.2840 C.3    21  LYS21       0.1561
     27  C         -6.7040  -40.3530  -10.1160 C.2    21  LYS21       0.2260
     28  O         -7.0900  -39.4200  -10.8240 O.2    21  LYS21      -0.2867
     29  CB        -4.2740  -39.8130   -9.9670 C.3    21  LYS21       0.0271
     30  CG        -3.9450  -39.7160   -8.4780 C.3    21  LYS21       0.0035
     31  CD        -3.7770  -38.3020   -7.9590 C.3    21  LYS21       0.0206
     32  CE        -3.4360  -38.3170   -6.4760 C.3    21  LYS21       0.1093
     33  NZ        -3.5270  -37.0070   -5.8190 N.3    21  LYS21      -0.1314
     34  N         -8.9350  -38.1180   -7.8570 N.3    23  ILE23      -0.1245
     35  CA        -9.0090  -37.1230   -6.7910 C.3    23  ILE23       0.1561
     36  C        -10.4960  -37.0390   -6.4220 C.2    23  ILE23       0.2260
     37  O        -11.2250  -36.2220   -6.9990 O.2    23  ILE23      -0.2867
     38  CB        -8.4650  -35.7550   -7.2420 C.3    23  ILE23       0.0252
     39  CG1       -7.0330  -35.9000   -7.7930 C.3    23  ILE23       0.0019
     40  CG2       -8.4890  -34.7620   -6.0790 C.3    23  ILE23       0.0019
     41  CD1       -6.4670  -34.6560   -8.4510 C.3    23  ILE23       0.0001
     42  N         -4.9740  -29.3240   -5.1000 N.3    36  THR36      -0.1218
     43  CA        -5.2580  -29.8200   -6.4440 C.3    36  THR36       0.1862
     44  C         -5.0190  -28.7440   -7.5210 C.2    36  THR36       0.2287
     45  O         -4.5030  -29.0500   -8.5900 O.2    36  THR36      -0.2866
     46  CB        -6.6930  -30.3620   -6.5250 C.3    36  THR36       0.1770
     47  OG1       -6.8340  -31.4510   -5.6080 O.3    36  THR36      -0.2211
     48  CG2       -7.0380  -30.8620   -7.9260 C.3    36  THR36       0.0375
     49  N         -1.1010  -28.2170   -7.8370 N.3    39  GLU39      -0.1231
     50  CA        -0.4680  -29.3240   -8.5370 C.3    39  GLU39       0.1699
     51  C         -0.7080  -29.2080  -10.0390 C.2    39  GLU39       0.2592
     52  O          0.2330  -29.2800  -10.8120 O.2    39  GLU39      -0.2718
     53  CB        -0.9710  -30.6710   -7.9920 C.3    39  GLU39       0.0402
     54  CG        -0.3600  -31.0480   -6.6430 C.3    39  GLU39       0.1161
     55  CD        -1.0610  -32.2260   -5.9700 C.2    39  GLU39       0.3649
     56  OE1       -0.4000  -33.2480   -5.6860 O.co2  39  GLU39      -0.2457
     57  OE2       -2.2860  -32.1430   -5.7260 O.co2  39  GLU39      -0.2457
     58  N         -1.9670  -29.0190  -10.4310 N.am   40  LEU40      -0.1980
     59  CA        -2.3450  -28.7290  -11.8220 C.3    40  LEU40       0.1596
     60  C         -1.4760  -27.6660  -12.4980 C.2    40  LEU40       0.2287
     61  O         -0.9240  -27.8910  -13.5820 O.2    40  LEU40      -0.2864
     62  CB        -3.8120  -28.2820  -11.9100 C.3    40  LEU40       0.0297
     63  CG        -4.8190  -29.3770  -12.2590 C.3    40  LEU40       0.0022
     64  CD1       -6.2310  -28.9490  -11.8990 C.3    40  LEU40       0.0001
     65  CD2       -4.7330  -29.7220  -13.7380 C.3    40  LEU40       0.0001
     66  N          2.4580  -28.6570  -12.6510 N.3    43  LEU43      -0.1245
     67  CA         2.7160  -29.6940  -13.6520 C.3    43  LEU43       0.1561
     68  C          2.4830  -29.2450  -15.1020 C.2    43  LEU43       0.2260
     69  O          3.2030  -29.6900  -15.9840 O.2    43  LEU43      -0.2867
     70  CB         1.9300  -30.9730  -13.3400 C.3    43  LEU43       0.0270
     71  CG         2.2920  -31.6110  -11.9950 C.3    43  LEU43       0.0019
     72  CD1        1.4800  -32.8800  -11.7740 C.3    43  LEU43       0.0001
     73  CD2        3.7750  -31.9020  -11.8600 C.3    43  LEU43       0.0001
     74  N          7.4400  -35.4070  -13.4510 N.3    52  ILE52      -0.1245
     75  CA         6.1540  -36.0250  -13.7790 C.3    52  ILE52       0.1561
     76  C          5.2900  -35.1320  -14.6610 C.2    52  ILE52       0.2260
     77  O          5.2240  -33.9270  -14.4580 O.2    52  ILE52      -0.2867
     78  CB         5.4120  -36.3970  -12.4530 C.3    52  ILE52       0.0252
     79  CG1        5.8180  -37.8050  -11.9970 C.3    52  ILE52       0.0019
     80  CG2        3.8960  -36.2830  -12.5280 C.3    52  ILE52       0.0019
     81  CD1        5.1970  -38.9480  -12.7780 C.3    52  ILE52       0.0001
     82  N          1.3960  -34.7690  -16.7750 N.3    54  ILE54      -0.1245
     83  CA         0.0240  -35.2050  -16.9560 C.3    54  ILE54       0.1561
     84  C         -0.0930  -35.5400  -18.4540 C.2    54  ILE54       0.2260
     85  O          0.2700  -34.7140  -19.3070 O.2    54  ILE54      -0.2867
     86  CB        -0.9940  -34.1000  -16.5690 C.3    54  ILE54       0.0252
     87  CG1       -0.7510  -33.5740  -15.1440 C.3    54  ILE54       0.0019
     88  CG2       -2.4110  -34.6340  -16.6620 C.3    54  ILE54       0.0019
     89  CD1       -1.4780  -32.2790  -14.8350 C.3    54  ILE54       0.0001
     90  N        -11.9990  -35.7270   -9.9750 N.3    69  VAL69      -0.1245
     91  CA       -11.0730  -35.4570  -11.0830 C.3    69  VAL69       0.1561
     92  C        -10.2140  -36.6910  -11.3460 C.2    69  VAL69       0.2260
     93  O         -9.5350  -37.1760  -10.4530 O.2    69  VAL69      -0.2867
     94  CB       -10.1560  -34.2480  -10.8000 C.3    69  VAL69       0.0252
     95  CG1       -9.2040  -34.0050  -11.9660 C.3    69  VAL69       0.0019
     96  CG2      -10.9850  -32.9960  -10.5570 C.3    69  VAL69       0.0019
     97  N         -6.9840  -38.1610  -13.4590 N.3    71  VAL71      -0.1245
     98  CA        -5.7620  -37.6590  -14.0570 C.3    71  VAL71       0.1561
     99  C         -4.9580  -38.8440  -14.5700 C.2    71  VAL71       0.2260
    100  O         -4.6230  -39.7390  -13.7990 O.2    71  VAL71      -0.2867
    101  CB        -4.9390  -36.8640  -13.0250 C.3    71  VAL71       0.0252
    102  CG1       -3.6330  -36.3750  -13.6300 C.3    71  VAL71       0.0019
    103  CG2       -5.7430  -35.6700  -12.5180 C.3    71  VAL71       0.0019
    104  N         -1.5300  -40.4370  -16.1450 N.3    73  LEU73      -0.1231
    105  CA        -0.0860  -40.3000  -16.3030 C.3    73  LEU73       0.1693
    106  C          0.4750  -41.6010  -16.8630 C.2    73  LEU73       0.2592
    107  O         -0.1870  -42.6390  -16.7980 O.2    73  LEU73      -0.2718
    108  CB         0.5880  -39.9690  -14.9550 C.3    73  LEU73       0.0284
    109  CG        -0.0950  -38.8700  -14.1360 C.3    73  LEU73       0.0019
    110  CD1       -1.0030  -39.4770  -13.0800 C.3    73  LEU73       0.0001
    111  CD2        0.8970  -37.9490  -13.4750 C.3    73  LEU73       0.0001
    112  N          1.6830  -41.5500  -17.4200 N.am   74  ASP74      -0.1960
    113  CA         2.3830  -42.7770  -17.8110 C.3    74  ASP74       0.1840
    114  C          2.7540  -43.5570  -16.5600 C.2    74  ASP74       0.2622
    115  O          3.1460  -42.9720  -15.5670 O.2    74  ASP74      -0.2715
    116  CB         3.6370  -42.4770  -18.6460 C.3    74  ASP74       0.1450
    117  CG         3.3160  -42.1850  -20.1150 C.2    74  ASP74       0.3671
    118  OD1        2.4440  -42.8650  -20.7070 O.co2  74  ASP74      -0.2456
    119  OD2        3.9630  -41.2820  -20.6850 O.co2  74  ASP74      -0.2456
    120  N          2.5950  -44.8730  -16.6180 N.am   75  LEU75      -0.1963
    121  CA         2.8530  -45.7430  -15.4810 C.3    75  LEU75       0.1728
    122  C          4.3490  -45.8560  -15.2450 C.2    75  LEU75       0.2616
    123  O          5.1180  -46.0620  -16.1870 O.2    75  LEU75      -0.2715
    124  CB         2.2640  -47.1340  -15.7220 C.3    75  LEU75       0.0311
    125  CG         2.3750  -48.1710  -14.5980 C.3    75  LEU75       0.0022
    126  CD1        1.5410  -47.7500  -13.3960 C.3    75  LEU75       0.0001
    127  CD2        1.9410  -49.5470  -15.0960 C.3    75  LEU75       0.0001
    128  N          4.7370  -45.7100  -13.9800 N.am   76  MET76      -0.1963
    129  CA         6.1130  -45.8300  -13.5330 C.3    76  MET76       0.1736
    130  C          6.2570  -47.1400  -12.7570 C.2    76  MET76       0.2616
    131  O          5.5870  -47.3300  -11.7520 O.2    76  MET76      -0.2715
    132  CB         6.4560  -44.6500  -12.6210 C.3    76  MET76       0.0427
    133  CG         6.1990  -43.2770  -13.2220 C.3    76  MET76       0.0599
    134  SD         7.4010  -42.8200  -14.4840 S.3    76  MET76      -0.1393
    135  CE         8.8310  -42.3770  -13.5030 C.3    76  MET76       0.0692
    136  N          7.1160  -48.0380  -13.2380 N.am   77  GLU77      -0.1963
    137  CA         7.4220  -49.3290  -12.5870 C.3    77  GLU77       0.1733
    138  C          7.4240  -49.2620  -11.0550 C.2    77  GLU77       0.2617
    139  O          6.6690  -49.9700  -10.3850 O.2    77  GLU77      -0.2715
    140  CB         8.7910  -49.8390  -13.0800 C.3    77  GLU77       0.0429
    141  CG         9.1900  -51.2430  -12.6290 C.3    77  GLU77       0.1163
    142  CD        10.5430  -51.6660  -13.1910 C.2    77  GLU77       0.3649
    143  OE1       11.5480  -50.9920  -12.8810 O.co2  77  GLU77      -0.2457
    144  OE2       10.6120  -52.6670  -13.9410 O.co2  77  GLU77      -0.2457
    145  N          8.2610  -48.3820  -10.5240 N.am   78  SER78      -0.1936
    146  CA         8.5610  -48.3610   -9.1050 C.3    78  SER78       0.2055
    147  C          8.8470  -46.9350   -8.6300 C.2    78  SER78       0.2643
    148  O          8.6400  -45.9710   -9.3570 O.2    78  SER78      -0.2714
    149  CB         9.7700  -49.2730   -8.8590 C.3    78  SER78       0.2130
    150  OG        10.0790  -49.3760   -7.4820 O.3    78  SER78      -0.2179
    151  N          9.2990  -46.8150   -7.3920 N.am   79  ASP79      -0.1971
    152  CA         9.8590  -45.5690   -6.8890 C.3    79  ASP79       0.1709
    153  C         11.1690  -45.8870   -6.2100 C.2    79  ASP79       0.2293
    154  O         11.4800  -47.0540   -5.9440 O.2    79  ASP79      -0.2864
    155  CB         8.8910  -44.8600   -5.9360 C.3    79  ASP79       0.1436
    156  CG         8.4540  -45.7360   -4.7780 C.2    79  ASP79       0.3671
    157  OD1        9.3210  -46.2060   -4.0140 O.co2  79  ASP79      -0.2456
    158  OD2        7.2370  -45.9530   -4.6290 O.co2  79  ASP79      -0.2456
    159  N         11.1080  -48.1080   -2.8630 N.3    82  GLN82      -0.1245
    160  CA        10.9640  -49.5380   -3.1490 C.3    82  GLN82       0.1566
    161  C         12.2540  -50.1470   -3.7240 C.2    82  GLN82       0.2260
    162  O         12.5800  -51.2940   -3.4290 O.2    82  GLN82      -0.2867
    163  CB         9.7910  -49.7760   -4.1010 C.3    82  GLN82       0.0367
    164  CG         8.4140  -49.5070   -3.5030 C.3    82  GLN82       0.0905
    165  CD         7.2830  -49.6790   -4.5230 C.2    82  GLN82       0.2608
    166  OE1        7.1000  -48.8390   -5.4110 O.2    82  GLN82      -0.2717
    167  NE2        6.5180  -50.7650   -4.3960 N.am   82  GLN82      -0.0878
    168  N         10.2160  -42.1150   -1.8800 N.3   122  SER122     -0.1217
    169  CA         8.8530  -42.5020   -2.2830 C.3   122  SER122      0.1889
    170  C          8.1720  -41.5320   -3.2650 C.2   122  SER122      0.2288
    171  O          7.2320  -41.9210   -3.9400 O.2   122  SER122     -0.2866
    172  CB         7.9600  -42.7140   -1.0450 C.3   122  SER122      0.2089
    173  OG         7.6480  -41.4820   -0.4100 O.3   122  SER122     -0.2183
    174  N          9.8440  -41.3060   -8.6180 N.3   125  LEU125     -0.1245
    175  CA         9.3690  -42.4440   -9.3990 C.3   125  LEU125      0.1561
    176  C         10.4520  -42.8520  -10.4050 C.2   125  LEU125      0.2260
    177  O         11.2400  -42.0160  -10.8500 O.2   125  LEU125     -0.2867
    178  CB         8.0680  -42.0710  -10.1070 C.3   125  LEU125      0.0270
    179  CG         6.9730  -41.6040   -9.1410 C.3   125  LEU125      0.0019
    180  CD1        6.0500  -40.6010   -9.8060 C.3   125  LEU125      0.0001
    181  CD2        6.2010  -42.7860   -8.5770 C.3   125  LEU125      0.0001
    182  N          7.7140  -36.2920   -8.4150 N.3   135  GLY135     -0.1210
    183  CA         6.2590  -36.1520   -8.3210 C.3   135  GLY135      0.1956
    184  C          5.8200  -35.5360   -7.0120 C.2   135  GLY135      0.2612
    185  O          6.6500  -35.0730   -6.2330 O.2   135  GLY135     -0.2717
    186  N          4.5080  -35.5300   -6.7910 N.am  136  ASP136     -0.1959
    187  CA         3.8810  -35.0960   -5.5360 C.3   136  ASP136      0.1840
    188  C          4.2720  -33.6700   -5.1420 C.2   136  ASP136      0.2622
    189  O          5.1020  -33.4750   -4.2700 O.2   136  ASP136     -0.2715
    190  CB         4.1960  -36.0820   -4.3910 C.3   136  ASP136      0.1450
    191  CG         3.7460  -37.5060   -4.7040 C.2   136  ASP136      0.3671
    192  OD1        4.4680  -38.2120   -5.4510 O.co2 136  ASP136     -0.2456
    193  OD2        2.6780  -37.9210   -4.2000 O.co2 136  ASP136     -0.2456
    194  N          3.6560  -32.6870   -5.7940 N.am  137  PHE137     -0.1974
    195  CA         4.0090  -31.2750   -5.6250 C.3   137  PHE137      0.1639
    196  C          3.0490  -30.4960   -4.7020 C.2   137  PHE137      0.2290
    197  O          3.0710  -29.2640   -4.6960 O.2   137  PHE137     -0.2864
    198  CB         4.0820  -30.6060   -7.0010 C.3   137  PHE137      0.0560
    199  CG         5.2920  -30.9870   -7.7930 C.ar  137  PHE137     -0.0200
    200  CD1        5.2890  -32.1330   -8.5670 C.ar  137  PHE137     -0.0042
    201  CD2        6.4350  -30.1910   -7.7800 C.ar  137  PHE137     -0.0042
    202  CE1        6.3990  -32.4870   -9.3120 C.ar  137  PHE137     -0.0003
    203  CE2        7.5510  -30.5440   -8.5190 C.ar  137  PHE137     -0.0003
    204  CZ         7.5360  -31.6940   -9.2870 C.ar  137  PHE137     -0.0000
@<TRIPOS>BOND
     1   118   117   ar
     2   119   117   ar
     3   117   116    1
     4    85    84    2
     5   116   113    1
     6    84    83    1
     7   113   112    1
     8   113   114    1
     9   112   106   am
    10    83    82    1
    11    83    86    1
    12   106   107    2
    13   106   105    1
    14    88    86    1
    15   120   114   am
    16   120   121    1
    17    86    87    1
    18   114   115    2
    19   105   104    1
    20   105   108    1
    21   123   122    2
    22    69    68    2
    23    20    21    1
    24   124   121    1
    25   124   125    1
    26   121   122    1
    27   122   128   am
    28    87    89    1
    29    68    67    1
    30   127   125    1
    31    23    22    2
    32   108   109    1
    33    76    77    2
    34    76    75    1
    35   125   126    1
    36    99    98    1
    37    99   100    2
    38   134   135    1
    39   134   133    1
    40    21    22    1
    41    21    24    1
    42   109   111    1
    43   109   110    1
    44    98    97    1
    45    98   101    1
    46   128   129    1
    47   144   142   ar
    48    75    74    1
    49    75    78    1
    50    65    63    1
    51    67    70    1
    52    67    66    1
    53   102   101    1
    54    61    60    2
    55   129   130    1
    56   129   132    1
    57    70    71    1
    58   136   130   am
    59   136   137    1
    60   133   132    1
    61   142   143   ar
    62   142   141    1
    63   140   141    1
    64   140   137    1
    65   101   103    1
    66    81    79    1
    67   130   131    2
    68   137   138    1
    69    80    78    1
    70    60    59    1
    71    78    79    1
    72    63    62    1
    73    63    64    1
    74    71    73    1
    75    71    72    1
    76    95    94    1
    77    62    59    1
    78    59    58    1
    79    25    26    1
    80    92    91    1
    81    92    93    2
    82    91    94    1
    83    91    90    1
    84   138   145   am
    85   138   139    2
    86   177   176    2
    87    28    27    2
    88    52    51    2
    89    94    96    1
    90   145   146    1
    91    58    51   am
    92   176   175    1
    93    26    27    1
    94    26    29    1
    95   178   175    1
    96   178   179    1
    97    51    50    1
    98     8     6    1
    99    29    30    1
   100   180   179    1
   101   175   174    1
   102   148   147    2
   103    18    17    1
   104   202   204   ar
   105   202   200   ar
   106   204   203   ar
   107   179   181    1
   108   146   149    1
   109   146   147    1
   110   149   150    1
   111     6     5    1
   112   147   151   am
   113    45    44    2
   114   200   199   ar
   115    50    53    1
   116    50    49    1
   117   203   201   ar
   118    30    31    1
   119    41    39    1
   120   182   183    1
   121   183   184    1
   122    15    14    1
   123    15    16    2
   124    53    54    1
   125    31    32    1
   126    48    46    1
   127    17    14    1
   128    17    19    1
   129    14    13    1
   130    34    35    1
   131    39    38    1
   132   199   201   ar
   133   199   198    1
   134    44    43    1
   135     5     7    1
   136     5     2    1
   137   151   152    1
   138    38    35    1
   139    38    40    1
   140   184   186   am
   141   184   185    2
   142   198   195    1
   143    37    36    2
   144   152   153    1
   145   152   155    1
   146    35    36    1
   147   186   187    1
   148     1     2    1
   149    54    55    1
   150    46    43    1
   151    46    47    1
   152    32    33    1
   153    43    42    1
   154     2     3    1
   155   153   154    2
   156    55    57   ar
   157    55    56   ar
   158   155   156    1
   159   194   195    1
   160   194   188   am
   161   195   196    1
   162   187   188    1
   163   187   190    1
   164   192   191   ar
   165   166   165    2
   166   188   189    2
   167     3     9   am
   168     3     4    2
   169     9    10    1
   170   156   158   ar
   171   156   157   ar
   172   191   190    1
   173   191   193   ar
   174   196   197    2
   175   165   167   am
   176   165   164    1
   177   163   164    1
   178   163   160    1
   179   171   170    2
   180    12    11    2
   181   161   162    2
   182   161   160    1
   183    10    11    1
   184   170   169    1
   185   160   159    1
   186   169   168    1
   187   169   172    1
   188   172   173    1
