@<TRIPOS>MOLECULE
tmp/6hkzA06.pdb
 167 157 0 0 0
SMALL
GASTEIGER

@<TRIPOS>ATOM
      1  N         22.0370   50.9640   36.6330 N.3   155  PHE155     -0.1227
      2  CA        20.8170   50.0740   36.5940 C.3   155  PHE155      0.1736
      3  C         20.5170   49.6400   35.1410 C.2   155  PHE155      0.2595
      4  O         20.4560   50.4800   34.2310 O.2   155  PHE155     -0.2718
      5  CB        19.6150   50.7690   37.2410 C.3   155  PHE155      0.0547
      6  CG        18.2930   50.0410   37.1450 C.ar  155  PHE155     -0.0202
      7  CD1       18.1390   48.7770   37.6860 C.ar  155  PHE155     -0.0042
      8  CD2       17.1780   50.6510   36.5560 C.ar  155  PHE155     -0.0042
      9  CE1       16.9230   48.1140   37.5960 C.ar  155  PHE155     -0.0003
     10  CE2       15.9750   49.9800   36.4370 C.ar  155  PHE155     -0.0003
     11  CZ        15.8630   48.6890   36.9220 C.ar  155  PHE155     -0.0000
     12  N         20.3070   48.3290   34.9520 N.am  156  ARG156     -0.1980
     13  CA        20.0570   47.6910   33.6310 C.3   156  ARG156      0.1597
     14  C         18.8310   48.2920   32.9200 C.2   156  ARG156      0.2287
     15  O         18.8000   48.3440   31.6840 O.2   156  ARG156     -0.2864
     16  CB        19.9180   46.1640   33.7780 C.3   156  ARG156      0.0334
     17  CG        18.7300   45.6320   34.5770 C.3   156  ARG156      0.0492
     18  CD        18.7820   44.1110   34.8730 C.3   156  ARG156      0.2205
     19  NE        19.5210   43.6980   36.0790 N.pl3 156  ARG156     -0.0865
     20  CZ        19.0970   43.9230   37.3240 C.cat 156  ARG156      0.5346
     21  NH1       17.9290   44.5230   37.4960 N.pl3 156  ARG156      0.1354
     22  NH2       19.8270   43.5620   38.3720 N.pl3 156  ARG156      0.1354
     23  N         14.8940   42.6600   36.5280 N.3   203  ASN203     -0.1240
     24  CA        13.8440   43.3970   35.7530 C.3   203  ASN203      0.1653
     25  C         14.5270   44.5450   35.0000 C.2   203  ASN203      0.2266
     26  O         15.6090   44.9910   35.4120 O.2   203  ASN203     -0.2867
     27  CB        12.6840   43.9000   36.6290 C.3   203  ASN203      0.1155
     28  CG        12.9330   45.2210   37.3340 C.2   203  ASN203      0.2627
     29  OD1       12.8840   46.2690   36.6910 O.2   203  ASN203     -0.2716
     30  ND2       13.0920   45.1990   38.6650 N.am  203  ASN203     -0.0877
     31  N         11.6500   42.3270   43.5450 N.3   371  GLU371     -0.1301
     32  CA        12.5820   42.0780   42.3890 C.3   371  GLU371      0.1252
     33  C         11.9250   42.4840   41.0390 C.3   371  GLU371      0.2009
     34  O         12.6170   42.6690   39.9670 O.3   371  GLU371     -0.2188
     35  CB        13.0430   40.6030   42.3710 C.3   371  GLU371      0.0335
     36  CG        14.0430   40.1670   43.4680 C.3   371  GLU371      0.1156
     37  CD        15.4170   40.8400   43.5420 C.2   371  GLU371      0.3649
     38  OE1       15.6620   41.7930   42.7680 O.co2 371  GLU371     -0.2457
     39  OE2       16.2470   40.4550   44.4290 O.co2 371  GLU371     -0.2457
     40  N          9.9940   45.2810   40.7180 N.3   373  GLY373     -0.1210
     41  CA         9.8350   46.7590   40.6710 C.3   373  GLY373      0.1956
     42  C          9.3290   47.3990   41.9690 C.2   373  GLY373      0.2611
     43  O          8.6300   48.4100   41.9260 O.2   373  GLY373     -0.2717
     44  N          9.7160   46.8840   43.1300 N.am  374  LEU374     -0.1979
     45  CA         9.3440   47.4990   44.4010 C.3   374  LEU374      0.1596
     46  C          7.8090   47.5150   44.5230 C.2   374  LEU374      0.2287
     47  O          7.2710   48.4700   45.0780 O.2   374  LEU374     -0.2864
     48  CB         9.8680   48.9300   44.4480 C.3   374  LEU374      0.0297
     49  CG        11.2630   49.1930   43.8420 C.3   374  LEU374      0.0022
     50  CD1       11.6260   50.6590   43.9890 C.3   374  LEU374      0.0001
     51  CD2       12.3110   48.3600   44.5620 C.3   374  LEU374      0.0001
     52  N         17.2390   45.0770   53.2640 N.3   399  ASP399     -0.1225
     53  CA        17.6300   44.0980   52.2670 C.3   399  ASP399      0.1805
     54  C         19.0290   43.5450   52.7050 C.2   399  ASP399      0.2598
     55  O         19.3670   43.5720   53.9200 O.2   399  ASP399     -0.2718
     56  CB        17.5750   44.7640   50.8540 C.3   399  ASP399      0.1424
     57  CG        17.4030   43.7340   49.6960 C.2   399  ASP399      0.3668
     58  OD1       17.4240   42.5340   49.9890 O.co2 399  ASP399     -0.2456
     59  OD2       17.3000   44.1230   48.4790 O.co2 399  ASP399     -0.2456
     60  N         19.8150   43.0580   51.7380 N.am  400  SER400     -0.1952
     61  CA        21.1030   42.3580   51.9780 C.3   400  SER400      0.1924
     62  C         21.8990   43.0010   53.1240 C.2   400  SER400      0.2314
     63  O         22.1770   44.1980   53.0670 O.2   400  SER400     -0.2863
     64  CB        21.9000   42.3330   50.6980 C.3   400  SER400      0.2116
     65  OG        21.0930   41.8180   49.6540 O.3   400  SER400     -0.2180
     66  N         23.7470   54.7600   53.9860 N.3   411  ASP411     -0.1239
     67  CA        23.1470   55.8290   53.1730 C.3   411  ASP411      0.1674
     68  C         21.8520   56.2820   53.8780 C.2   411  ASP411      0.2266
     69  O         21.0010   55.4500   54.1470 O.2   411  ASP411     -0.2867
     70  CB        22.6930   55.3830   51.7490 C.3   411  ASP411      0.1410
     71  CG        23.7280   54.4820   50.9650 C.2   411  ASP411      0.3668
     72  OD1       24.8480   54.2370   51.4220 O.co2 411  ASP411     -0.2456
     73  OD2       23.3380   53.9930   49.8510 O.co2 411  ASP411     -0.2456
     74  N         26.6490   58.2020   52.5860 N.3   459  SER459     -0.1202
     75  CA        26.1440   58.6310   51.2220 C.3   459  SER459      0.2020
     76  C         24.6670   59.0160   51.2540 C.2   459  SER459      0.2618
     77  O         23.8970   58.6600   52.1920 O.2   459  SER459     -0.2717
     78  CB        26.3260   57.5400   50.2040 C.3   459  SER459      0.2103
     79  OG        27.6670   57.1120   50.2210 O.3   459  SER459     -0.2182
     80  N         24.2950   59.6990   50.1710 N.am  460  LYS460     -0.1979
     81  CA        22.9310   60.0470   49.8400 C.3   460  LYS460      0.1596
     82  C         22.1430   58.7690   49.5320 C.2   460  LYS460      0.2287
     83  O         22.7180   57.8160   49.0130 O.2   460  LYS460     -0.2864
     84  CB        22.9070   60.9430   48.5920 C.3   460  LYS460      0.0298
     85  CG        23.8140   62.1660   48.6300 C.3   460  LYS460      0.0038
     86  CD        23.4720   63.2170   47.5810 C.3   460  LYS460      0.0206
     87  CE        23.4650   62.6850   46.1620 C.3   460  LYS460      0.1093
     88  NZ        24.7540   62.9290   45.4790 N.3   460  LYS460     -0.1314
     89  N         19.9640   56.6650   47.0940 N.3   462  GLY462     -0.1210
     90  CA        19.5730   56.5620   45.6760 C.3   462  GLY462      0.1956
     91  C         18.2290   55.8540   45.5790 C.2   462  GLY462      0.2613
     92  O         17.3040   56.2270   46.2920 O.2   462  GLY462     -0.2717
     93  N         18.1330   54.8390   44.7100 N.am  463  SER463     -0.1938
     94  CA        16.9390   54.0280   44.6360 C.3   463  SER463      0.2055
     95  C         17.2600   52.5880   44.1940 C.2   463  SER463      0.2644
     96  O         18.4000   52.0930   44.3610 O.2   463  SER463     -0.2714
     97  CB        15.9030   54.6740   43.7770 C.3   463  SER463      0.2130
     98  OG        14.6770   53.9430   43.8500 O.3   463  SER463     -0.2179
     99  N         16.2460   51.8680   43.7110 N.am  464  GLY464     -0.1939
    100  CA        16.4170   50.4400   43.4800 C.3   464  GLY464      0.2014
    101  C         16.1940   49.5820   44.7270 C.2   464  GLY464      0.2638
    102  O         16.6980   48.4290   44.7990 O.2   464  GLY464     -0.2714
    103  N         15.3910   50.0750   45.6740 N.am  465  ASN465     -0.1972
    104  CA        15.0050   49.2480   46.8370 C.3   465  ASN465      0.1688
    105  C         13.7870   49.8760   47.5280 C.2   465  ASN465      0.2292
    106  O         13.4080   50.9670   47.1870 O.2   465  ASN465     -0.2864
    107  CB        16.1880   49.0030   47.7870 C.3   465  ASN465      0.1181
    108  CG        16.1930   47.5880   48.3540 C.2   465  ASN465      0.2629
    109  OD1       15.2980   47.1980   49.1410 O.2   465  ASN465     -0.2716
    110  ND2       17.2000   46.8210   47.9590 N.am  465  ASN465     -0.0877
    111  N         19.3940   53.2490   55.4700 N.3   480  ARG480     -0.1245
    112  CA        19.7790   51.8580   55.2760 C.3   480  ARG480      0.1563
    113  C         21.2490   51.6490   55.7290 C.2   480  ARG480      0.2260
    114  O         22.0280   52.6160   55.7840 O.2   480  ARG480     -0.2867
    115  CB        19.6030   51.4890   53.7980 C.3   480  ARG480      0.0307
    116  CG        20.6680   52.0620   52.8630 C.3   480  ARG480      0.0489
    117  CD        20.3320   51.9130   51.3700 C.3   480  ARG480      0.2205
    118  NE        20.1750   50.5380   50.9070 N.pl3 480  ARG480     -0.0865
    119  CZ        20.1790   50.1410   49.6280 C.cat 480  ARG480      0.5346
    120  NH1       20.3280   51.0140   48.6480 N.pl3 480  ARG480      0.1354
    121  NH2       19.9620   48.8720   49.3330 N.pl3 480  ARG480      0.1354
    122  N         24.5770   48.2720   55.8410 N.3   482  ARG482     -0.1245
    123  CA        25.0580   46.8950   55.6100 C.3   482  ARG482      0.1563
    124  C         26.5940   46.8360   55.6680 C.2   482  ARG482      0.2260
    125  O         27.2480   47.8860   55.5900 O.2   482  ARG482     -0.2867
    126  CB        24.6140   46.3840   54.2230 C.3   482  ARG482      0.0307
    127  CG        25.0860   47.1960   53.0210 C.3   482  ARG482      0.0489
    128  CD        24.8490   46.4930   51.6670 C.3   482  ARG482      0.2205
    129  NE        23.4470   46.1400   51.4310 N.pl3 482  ARG482     -0.0865
    130  CZ        22.7900   46.2190   50.2710 C.cat 482  ARG482      0.5346
    131  NH1       23.4350   46.4460   49.1290 N.pl3 482  ARG482      0.1354
    132  NH2       21.4800   46.0060   50.2690 N.pl3 482  ARG482      0.1354
    133  N         22.1670   37.7960   41.9830 N.3   499  HIS499     -0.1241
    134  CA        20.9430   37.3920   41.1610 C.3   499  HIS499      0.1621
    135  C         21.2210   36.1100   40.3240 C.2   499  HIS499      0.2264
    136  O         20.5590   35.8480   39.3090 O.2   499  HIS499     -0.2867
    137  CB        20.4020   38.5710   40.3020 C.3   499  HIS499      0.0745
    138  CG        19.7020   39.7140   41.0150 C.ar  499  HIS499      0.0817
    139  ND1       19.1310   40.7660   40.3100 N.ar  499  HIS499     -0.2268
    140  CD2       19.3850   39.9560   42.3160 C.ar  499  HIS499      0.1154
    141  CE1       18.5070   41.5980   41.1450 C.ar  499  HIS499      0.1986
    142  NE2       18.6830   41.1590   42.3800 N.ar  499  HIS499     -0.2212
    143  N         19.2020   54.7220   38.0980 N.3   643  LYS643     -0.1231
    144  CA        18.2330   54.6120   39.2130 C.3   643  LYS643      0.1693
    145  C         18.9520   54.3000   40.5360 C.2   643  LYS643      0.2592
    146  O         18.4410   54.6730   41.6100 O.2   643  LYS643     -0.2718
    147  CB        17.1950   53.5270   38.8860 C.3   643  LYS643      0.0285
    148  CG        15.9950   53.4530   39.8170 C.3   643  LYS643      0.0035
    149  CD        14.9740   52.4130   39.4050 C.3   643  LYS643      0.0206
    150  CE        13.6580   52.5350   40.1660 C.3   643  LYS643      0.1093
    151  NZ        12.7480   51.4160   39.8620 N.3   643  LYS643     -0.1314
    152  N         20.1180   53.6320   40.4950 N.am  644  TYR644     -0.1976
    153  CA        20.7950   53.2810   41.7640 C.3   644  TYR644      0.1639
    154  C         21.4100   54.5230   42.4160 C.2   644  TYR644      0.2290
    155  O         21.5620   54.5380   43.6320 O.2   644  TYR644     -0.2864
    156  CB        21.8800   52.2100   41.5880 C.3   644  TYR644      0.0560
    157  CG        21.4480   50.8320   41.1180 C.ar  644  TYR644     -0.0198
    158  CD1       20.2750   50.2260   41.5600 C.ar  644  TYR644     -0.0009
    159  CD2       22.2710   50.0690   40.2890 C.ar  644  TYR644     -0.0009
    160  CE1       19.9090   48.9420   41.1560 C.ar  644  TYR644      0.0417
    161  CE2       21.9050   48.7860   39.8650 C.ar  644  TYR644      0.0417
    162  CZ        20.7160   48.2080   40.2900 C.ar  644  TYR644      0.1957
    163  OH        20.3420   46.9270   39.8870 O.3   644  TYR644     -0.2866
    164  N         21.8160   58.4770   43.7250 N.3   646  GLY646     -0.1225
    165  CA        21.1110   59.6890   44.1170 C.3   646  GLY646      0.1811
    166  C         21.6430   60.9180   43.3880 C.2   646  GLY646      0.2280
    167  O         22.8650   61.0530   43.1780 O.2   646  GLY646     -0.2866
@<TRIPOS>BOND
     1    15    14    2
     2    14    13    1
     3    13    16    1
     4    13    12    1
     5    16    17    1
     6     4     3    2
     7    17    18    1
     8    18    19    1
     9    12     3   am
    10    25    26    2
    11    25    24    1
    12     3     2    1
    13    24    23    1
    14    24    27    1
    15    19    20    2
    16    10     8   ar
    17    10    11   ar
    18     8     6   ar
    19     2     1    1
    20     2     5    1
    21    27    28    1
    22    29    28    2
    23    11     9   ar
    24     6     5    1
    25     6     7   ar
    26    20    21    1
    27    20    22    1
    28    28    30   am
    29     9     7   ar
    30   143   144    1
    31   147   144    1
    32   147   148    1
    33   144   145    1
    34   136   135    2
    35   149   148    1
    36   149   150    1
    37   151   150    1
    38   161   159   ar
    39   161   162   ar
    40   163   162    1
    41    34    33    1
    42   159   157   ar
    43   162   160   ar
    44   137   138    1
    45   137   134    1
    46   139   138   ar
    47   139   141   ar
    48   135   134    1
    49   152   145   am
    50   152   153    1
    51   145   146    2
    52    41    40    1
    53    41    42    1
    54   138   140   ar
    55    33    32    1
    56   157   158   ar
    57   157   156    1
    58   141   142   ar
    59   160   158   ar
    60   134   133    1
    61   156   153    1
    62   153   154    1
    63    43    42    2
    64    42    44   am
    65   140   142   ar
    66    35    32    1
    67    35    36    1
    68    32    31    1
    69   154   155    2
    70    38    37   ar
    71    44    45    1
    72   167   166    2
    73   166   165    1
    74    36    37    1
    75   100    99    1
    76   100   101    1
    77    37    39   ar
    78    99    95   am
    79   164   165    1
    80    97    98    1
    81    97    94    1
    82    49    50    1
    83    49    48    1
    84    49    51    1
    85    95    96    2
    86    95    94    1
    87    45    48    1
    88    45    46    1
    89    46    47    2
    90    94    93    1
    91    93    91   am
    92   101   102    2
    93   101   103   am
    94    88    87    1
    95    91    90    1
    96    91    92    2
    97   103   104    1
    98    90    89    1
    99    87    86    1
   100   104   105    1
   101   104   107    1
   102   106   105    2
   103    86    85    1
   104   107   108    1
   105   110   108   am
   106   108   109    2
   107    59    57   ar
   108    84    85    1
   109    84    81    1
   110   120   119    1
   111    83    82    2
   112   131   130    1
   113   121   119    1
   114    82    81    1
   115   119   118    2
   116    65    64    1
   117    57    58   ar
   118    57    56    1
   119    81    80    1
   120    73    71   ar
   121    80    76   am
   122    78    79    1
   123    78    75    1
   124   132   130    1
   125   130   129    2
   126    64    61    1
   127    56    53    1
   128   118   117    1
   129    71    72   ar
   130    71    70    1
   131    75    76    1
   132    75    74    1
   133    76    77    2
   134   117   116    1
   135   129   128    1
   136   128   127    1
   137    60    61    1
   138    60    54   am
   139    70    67    1
   140    61    62    1
   141    53    54    1
   142    53    52    1
   143    54    55    2
   144   116   115    1
   145   127   126    1
   146    63    62    2
   147    67    68    1
   148    67    66    1
   149   115   112    1
   150    68    69    2
   151   126   123    1
   152   112   111    1
   153   112   113    1
   154   125   124    2
   155   123   124    1
   156   123   122    1
   157   113   114    2
