@<TRIPOS>MOLECULE
tmp/6hl7C00.pdb
 106 102 0 0 0
SMALL
GASTEIGER

@<TRIPOS>ATOM
      1  N        -50.4570   30.7510  -73.6610 N.3    71  SER71      -0.1202
      2  CA       -50.3910   31.5140  -74.9410 C.3    71  SER71       0.2020
      3  C        -51.7840   31.8050  -75.5120 C.2    71  SER71       0.2619
      4  O        -52.1090   33.0110  -75.7170 O.2    71  SER71      -0.2717
      5  CB       -49.5880   30.8040  -76.0010 C.3    71  SER71       0.2103
      6  OG       -49.8870   31.3320  -77.3070 O.3    71  SER71      -0.2182
      7  N        -52.5210   30.7480  -75.8570 N.am   72  THR72      -0.1938
      8  CA       -53.7290   30.8090  -76.7160 C.3    72  THR72       0.2028
      9  C        -53.3430   31.3620  -78.1020 C.2    72  THR72       0.2642
     10  O        -52.7870   30.5880  -78.9130 O.2    72  THR72      -0.2714
     11  CB       -54.8920   31.5640  -76.0360 C.3    72  THR72       0.1808
     12  OG1      -54.5130   32.9210  -75.7920 O.3    72  THR72      -0.2208
     13  CG2      -55.3550   30.9260  -74.7380 C.3    72  THR72       0.0379
     14  N        -53.6620   32.6220  -78.3990 N.am   73  ALA73      -0.1963
     15  CA       -53.7400   33.1370  -79.7880 C.3    73  ALA73       0.1728
     16  C        -52.5160   32.6460  -80.5710 C.2    73  ALA73       0.2616
     17  O        -52.6940   31.9940  -81.6170 O.2    73  ALA73      -0.2715
     18  CB       -53.8560   34.6510  -79.8140 C.3    73  ALA73       0.0334
     19  N        -51.3220   32.9230  -80.0450 N.am   74  THR74      -0.1951
     20  CA       -50.0130   32.6240  -80.6910 C.3    74  THR74       0.1897
     21  C        -49.8100   31.0930  -80.7710 C.2    74  THR74       0.2313
     22  O        -49.4620   30.6080  -81.8840 O.2    74  THR74      -0.2863
     23  CB       -48.8940   33.4390  -80.0120 C.3    74  THR74       0.1794
     24  OG1      -49.1730   34.8130  -80.3210 O.3    74  THR74      -0.2208
     25  CG2      -47.4950   33.0640  -80.4570 C.3    74  THR74       0.0378
     26  N        -41.6090   29.0530  -76.8900 N.3   115  ARG115     -0.1245
     27  CA       -41.9500   30.1680  -75.9810 C.3   115  ARG115      0.1563
     28  C        -41.5000   29.8120  -74.5770 C.2   115  ARG115      0.2260
     29  O        -41.9170   28.7790  -74.0830 O.2   115  ARG115     -0.2867
     30  CB       -43.4400   30.4990  -75.8620 C.3   115  ARG115      0.0307
     31  CG       -43.6570   31.5260  -74.7620 C.3   115  ARG115      0.0489
     32  CD       -44.8810   32.3880  -74.8740 C.3   115  ARG115      0.2205
     33  NE       -44.9630   33.3360  -75.9600 N.pl3 115  ARG115     -0.0865
     34  CZ       -46.1130   33.9230  -76.3020 C.cat 115  ARG115      0.5346
     35  NH1      -46.1720   34.7670  -77.3210 N.pl3 115  ARG115      0.1354
     36  NH2      -47.2180   33.6410  -75.6280 N.pl3 115  ARG115      0.1354
     37  N        -40.5040   39.0950  -80.1710 N.3   143  HIS143     -0.1241
     38  CA       -41.6730   38.3550  -80.6810 C.3   143  HIS143      0.1621
     39  C        -41.6960   38.5490  -82.1830 C.2   143  HIS143      0.2264
     40  O        -42.5080   39.2760  -82.7480 O.2   143  HIS143     -0.2867
     41  CB       -42.9580   38.8310  -79.9960 C.3   143  HIS143      0.0745
     42  CG       -44.0250   37.7870  -79.9870 C.ar  143  HIS143      0.0817
     43  ND1      -44.1700   36.8840  -81.0160 N.ar  143  HIS143     -0.2268
     44  CD2      -44.9740   37.4900  -79.0780 C.ar  143  HIS143      0.1154
     45  CE1      -45.1550   36.0600  -80.7470 C.ar  143  HIS143      0.1986
     46  NE2      -45.6850   36.4290  -79.5640 N.ar  143  HIS143     -0.2212
     47  N        -44.8130   38.0630  -84.2400 N.3   146  GLN146     -0.1245
     48  CA       -45.7860   39.1400  -83.9690 C.3   146  GLN146      0.1566
     49  C        -45.4250   40.3140  -84.9030 C.2   146  GLN146      0.2260
     50  O        -46.2650   40.6530  -85.7450 O.2   146  GLN146     -0.2867
     51  CB       -45.8610   39.4880  -82.4830 C.3   146  GLN146      0.0367
     52  CG       -46.9980   40.4490  -82.2020 C.3   146  GLN146      0.0905
     53  CD       -48.3780   39.8780  -82.4450 C.2   146  GLN146      0.2608
     54  OE1      -48.6440   38.7280  -82.0890 O.2   146  GLN146     -0.2717
     55  NE2      -49.2770   40.6890  -83.0120 N.am  146  GLN146     -0.0878
     56  N        -42.7400   43.0960  -75.3660 N.3   182  ARG182     -0.1231
     57  CA       -41.8520   42.5010  -76.3940 C.3   182  ARG182      0.1694
     58  C        -42.4120   42.6960  -77.8060 C.2   182  ARG182      0.2592
     59  O        -41.6130   42.4950  -78.7960 O.2   182  ARG182     -0.2718
     60  CB       -41.6530   41.0040  -76.1570 C.3   182  ARG182      0.0321
     61  CG       -42.8910   40.1430  -76.3890 C.3   182  ARG182      0.0489
     62  CD       -42.7500   38.8500  -75.6040 C.3   182  ARG182      0.2205
     63  NE       -43.9520   38.0740  -75.3590 N.pl3 182  ARG182     -0.0865
     64  CZ       -43.9640   36.9860  -74.5960 C.cat 182  ARG182      0.5346
     65  NH1      -42.8410   36.5850  -74.0190 N.pl3 182  ARG182      0.1354
     66  NH2      -45.0830   36.3070  -74.3970 N.pl3 182  ARG182      0.1354
     67  N        -43.7100   43.0250  -77.9230 N.am  183  THR183     -0.1953
     68  CA       -44.3670   43.3150  -79.2320 C.3   183  THR183      0.1897
     69  C        -43.9460   44.7160  -79.6850 C.2   183  THR183      0.2313
     70  O        -43.5710   44.8680  -80.8840 O.2   183  THR183     -0.2863
     71  CB       -45.8860   43.1520  -79.1410 C.3   183  THR183      0.1794
     72  OG1      -46.3490   44.0110  -78.0960 O.3   183  THR183     -0.2208
     73  CG2      -46.2780   41.7170  -78.8580 C.3   183  THR183      0.0378
     74  N        -51.0840   45.5780  -73.3670 N.3   251  ARG251     -0.1245
     75  CA       -51.7410   44.9480  -72.1920 C.3   251  ARG251      0.1563
     76  C        -51.5810   45.8830  -70.9870 C.2   251  ARG251      0.2260
     77  O        -52.3230   46.8690  -70.9160 O.2   251  ARG251     -0.2867
     78  CB       -51.1340   43.5510  -71.9110 C.3   251  ARG251      0.0307
     79  CG       -51.3280   42.4410  -72.9540 C.3   251  ARG251      0.0489
     80  CD       -50.7210   42.5860  -74.3590 C.3   251  ARG251      0.2205
     81  NE       -49.3460   43.1200  -74.4780 N.pl3 251  ARG251     -0.0865
     82  CZ       -48.3100   42.5550  -75.1430 C.cat 251  ARG251      0.5346
     83  NH1      -47.1310   43.1670  -75.1730 N.pl3 251  ARG251      0.1354
     84  NH2      -48.4390   41.3910  -75.7730 N.pl3 251  ARG251      0.1354
     85  N        -52.1370   43.2900  -80.1630 N.3   274  PRO274     -0.2102
     86  CA       -51.6680   41.9280  -80.3840 C.3   274  PRO274      0.1504
     87  C        -52.5810   40.9580  -79.6230 C.2   274  PRO274      0.2576
     88  O        -52.7510   39.8220  -80.0680 O.2   274  PRO274     -0.2718
     89  CB       -50.2090   41.9690  -79.8970 C.3   274  PRO274      0.0282
     90  CG       -50.1980   43.0650  -78.8540 C.3   274  PRO274      0.0208
     91  CD       -51.2080   44.0820  -79.3390 C.3   274  PRO274      0.0893
     92  N        -53.1370   41.4420  -78.5120 N.am  275  LEU275     -0.1967
     93  CA       -54.1950   40.7640  -77.7250 C.3   275  LEU275      0.1713
     94  C        -53.4810   39.7600  -76.8200 C.2   275  LEU275      0.2458
     95  O        -52.3410   39.3940  -77.1040 O.2   275  LEU275     -0.2730
     96  CB       -55.2500   40.1770  -78.6830 C.3   275  LEU275      0.0310
     97  CG       -56.0410   41.2300  -79.4780 C.3   275  LEU275      0.0022
     98  CD1      -56.7510   40.6500  -80.6910 C.3   275  LEU275      0.0001
     99  CD2      -57.0420   41.9590  -78.5880 C.3   275  LEU275      0.0001
    100  N        -54.0450   39.3870  -75.6430 N.am  276  PRO276     -0.2727
    101  CA       -55.4290   39.7000  -75.2780 C.3   276  PRO276      0.1402
    102  C        -55.5590   41.1390  -74.7710 C.2   276  PRO276      0.2269
    103  O        -54.5230   41.7480  -74.5540 O.2   276  PRO276     -0.2865
    104  CB       -55.6670   38.7580  -74.0960 C.3   276  PRO276      0.0296
    105  CG       -54.3130   38.7680  -73.3950 C.3   276  PRO276      0.0237
    106  CD       -53.3110   38.7640  -74.5260 C.3   276  PRO276      0.0939
@<TRIPOS>BOND
     1    50    49    2
     2    49    48    1
     3    47    48    1
     4    48    51    1
     5    55    53   am
     6    40    39    2
     7    51    52    1
     8    53    52    1
     9    53    54    2
    10    39    38    1
    11    22    21    2
    12    17    16    2
    13    43    45   ar
    14    43    42   ar
    15    70    69    2
    16    21    20    1
    17    45    46   ar
    18    98    97    1
    19    20    19    1
    20    20    23    1
    21    38    37    1
    22    38    41    1
    23    16    19   am
    24    16    15    1
    25    25    23    1
    26    86    85    1
    27    86    89    1
    28    86    87    1
    29    24    23    1
    30    85    91    1
    31    88    87    2
    32    41    42    1
    33    42    44   ar
    34    89    90    1
    35    18    15    1
    36    15    14    1
    37    69    68    1
    38    87    92   am
    39    46    44   ar
    40    97    96    1
    41    97    99    1
    42    91    90    1
    43    68    71    1
    44    68    67    1
    45    71    73    1
    46    71    72    1
    47    10     9    2
    48    59    58    2
    49    96    93    1
    50    92    93    1
    51    14     9   am
    52     9     8    1
    53    67    58   am
    54    58    57    1
    55    93    94    1
    56    35    34    1
    57     6     5    1
    58    95    94    2
    59    26    27    1
    60    94   100   am
    61     8    11    1
    62     8     7    1
    63    57    60    1
    64    57    56    1
    65    61    60    1
    66    61    62    1
    67    34    33    2
    68    34    36    1
    69    11    12    1
    70    11    13    1
    71     5     2    1
    72    27    30    1
    73    27    28    1
    74    33    32    1
    75    30    31    1
    76     7     3   am
    77    84    82    1
    78     4     3    2
    79   100   101    1
    80   100   106    1
    81    62    63    1
    82     3     2    1
    83    63    64    2
    84   101   102    1
    85   101   104    1
    86    83    82    1
    87    82    81    2
    88     2     1    1
    89    32    31    1
    90   102   103    2
    91    64    66    1
    92    64    65    1
    93    28    29    2
    94   106   105    1
    95    81    80    1
    96    80    79    1
    97   104   105    1
    98    74    75    1
    99    79    78    1
   100    75    78    1
   101    75    76    1
   102    76    77    2
