@<TRIPOS>MOLECULE
tmp/6hl8A00.pdb
 117 114 0 0 0
SMALL
GASTEIGER

@<TRIPOS>ATOM
      1  N         23.5650  -38.0850   64.1530 N.3   130  MET130     -0.1245
      2  CA        22.7360  -38.7350   63.1430 C.3   130  MET130      0.1570
      3  C         23.2280  -38.2810   61.7730 C.2   130  MET130      0.2261
      4  O         23.1890  -37.0880   61.4570 O.2   130  MET130     -0.2867
      5  CB        21.2570  -38.3900   63.3370 C.3   130  MET130      0.0387
      6  CG        20.3170  -38.8590   62.2210 C.3   130  MET130      0.0595
      7  SD        20.1360  -40.6610   62.0810 S.3   130  MET130     -0.1393
      8  CE        18.7580  -40.8550   60.9400 C.3   130  MET130      0.0692
      9  N         21.3190  -37.5020   55.4250 N.3   133  HIS133     -0.1226
     10  CA        20.5610  -38.4290   54.5950 C.3   133  HIS133      0.1752
     11  C         19.3750  -37.6940   53.9830 C.2   133  HIS133      0.2596
     12  O         19.0390  -36.5790   54.3800 O.2   133  HIS133     -0.2718
     13  CB        20.0800  -39.6130   55.4320 C.3   133  HIS133      0.0759
     14  CG        19.1850  -39.2080   56.5620 C.ar  133  HIS133      0.0818
     15  ND1       19.6680  -38.6690   57.7370 N.ar  133  HIS133     -0.2268
     16  CD2       17.8360  -39.2300   56.6830 C.ar  133  HIS133      0.1154
     17  CE1       18.6540  -38.3830   58.5350 C.ar  133  HIS133      0.1986
     18  NE2       17.5340  -38.7270   57.9230 N.ar  133  HIS133     -0.2212
     19  N         18.7400  -38.3440   53.0180 N.am  134  ASN134     -0.1960
     20  CA        17.4220  -37.9780   52.5040 C.3   134  ASN134      0.1819
     21  C         16.3760  -38.9020   53.1170 C.2   134  ASN134      0.2621
     22  O         16.6510  -40.0740   53.3740 O.2   134  ASN134     -0.2715
     23  CB        17.3680  -38.1120   50.9780 C.3   134  ASN134      0.1195
     24  CG        18.6000  -37.5260   50.2990 C.2   134  ASN134      0.2630
     25  OD1       19.5310  -38.2500   49.9350 O.2   134  ASN134     -0.2716
     26  ND2       18.5970  -36.2180   50.1060 N.am  134  ASN134     -0.0877
     27  N         15.1600  -38.3940   53.3030 N.am  135  ASP135     -0.1957
     28  CA        14.0870  -39.2710   53.7620 C.3   135  ASP135      0.1840
     29  C         13.4330  -39.9780   52.5900 C.2   135  ASP135      0.2623
     30  O         13.6100  -39.6040   51.4220 O.2   135  ASP135     -0.2715
     31  CB        13.0160  -38.5190   54.5520 C.3   135  ASP135      0.1450
     32  CG        13.4770  -38.1660   55.9560 C.2   135  ASP135      0.3671
     33  OD1       14.6780  -38.3720   56.2240 O.co2 135  ASP135     -0.2456
     34  OD2       12.6560  -37.7040   56.7840 O.co2 135  ASP135     -0.2456
     35  N         12.6910  -41.0360   52.9220 N.am  136  GLY136     -0.1940
     36  CA        11.8680  -41.7310   51.9470 C.3   136  GLY136      0.2014
     37  C         12.6010  -42.6170   50.9580 C.2   136  GLY136      0.2640
     38  O         12.0520  -42.9200   49.8960 O.2   136  GLY136     -0.2714
     39  N         13.8200  -43.0590   51.2710 N.am  137  THR137     -0.1936
     40  CA        14.5820  -43.8140   50.2840 C.3   137  THR137      0.2028
     41  C         14.1280  -45.2580   50.1280 C.2   137  THR137      0.2642
     42  O         14.5300  -45.8990   49.1550 O.2   137  THR137     -0.2714
     43  CB        16.0710  -43.8070   50.6290 C.3   137  THR137      0.1808
     44  OG1       16.2740  -44.4470   51.8890 O.3   137  THR137     -0.2208
     45  CG2       16.5920  -42.3860   50.6920 C.3   137  THR137      0.0379
     46  N         13.3060  -45.7850   51.0340 N.am  138  TYR138     -0.1973
     47  CA        12.9210  -47.1940   51.0300 C.3   138  TYR138      0.1639
     48  C         11.5160  -47.4350   50.4670 C.2   138  TYR138      0.2290
     49  O         10.9880  -48.5450   50.6090 O.2   138  TYR138     -0.2864
     50  CB        13.0260  -47.7780   52.4460 C.3   138  TYR138      0.0560
     51  CG        12.1440  -47.0900   53.4660 C.ar  138  TYR138     -0.0198
     52  CD1       10.8500  -47.5450   53.7330 C.ar  138  TYR138     -0.0009
     53  CD2       12.5990  -45.9690   54.1570 C.ar  138  TYR138     -0.0009
     54  CE1       10.0370  -46.8950   54.6710 C.ar  138  TYR138      0.0417
     55  CE2       11.8000  -45.3210   55.0870 C.ar  138  TYR138      0.0417
     56  CZ        10.5230  -45.7770   55.3490 C.ar  138  TYR138      0.1957
     57  OH         9.7510  -45.1030   56.2860 O.3   138  TYR138     -0.2866
     58  N         20.5770  -42.9200   52.2820 N.3   210  ILE210     -0.1245
     59  CA        20.7150  -43.0380   53.7280 C.3   210  ILE210      0.1561
     60  C         21.5240  -44.2960   53.9970 C.2   210  ILE210      0.2260
     61  O         21.2950  -45.3360   53.3700 O.2   210  ILE210     -0.2867
     62  CB        19.3520  -43.0610   54.4610 C.3   210  ILE210      0.0252
     63  CG1       19.5770  -43.0690   55.9810 C.3   210  ILE210      0.0019
     64  CG2       18.5260  -44.2660   54.0590 C.3   210  ILE210      0.0019
     65  CD1       18.3280  -42.9620   56.8000 C.3   210  ILE210      0.0001
     66  N         21.6820  -46.3450   56.5110 N.3   212  GLN212     -0.1231
     67  CA        21.0860  -47.4860   57.1970 C.3   212  GLN212      0.1698
     68  C         20.2820  -48.3660   56.2520 C.2   212  GLN212      0.2592
     69  O         20.2700  -49.5900   56.4110 O.2   212  GLN212     -0.2718
     70  CB        20.1570  -47.0270   58.3210 C.3   212  GLN212      0.0381
     71  CG        20.7920  -46.2930   59.4810 C.3   212  GLN212      0.0905
     72  CD        19.7310  -45.7890   60.4510 C.2   212  GLN212      0.2608
     73  OE1       18.8960  -46.5660   60.9270 O.2   212  GLN212     -0.2717
     74  NE2       19.7220  -44.4750   60.6990 N.am  212  GLN212     -0.0878
     75  N         19.6310  -47.7790   55.2510 N.am  213  PHE213     -0.1976
     76  CA        18.7000  -48.5430   54.4400 C.3   213  PHE213      0.1639
     77  C         19.2760  -48.9580   53.0980 C.2   213  PHE213      0.2290
     78  O         18.7550  -49.9020   52.4970 O.2   213  PHE213     -0.2864
     79  CB        17.4020  -47.7500   54.2300 C.3   213  PHE213      0.0560
     80  CG        16.7490  -47.3250   55.5140 C.ar  213  PHE213     -0.0200
     81  CD1       17.0350  -47.9930   56.7070 C.ar  213  PHE213     -0.0042
     82  CD2       15.8680  -46.2500   55.5410 C.ar  213  PHE213     -0.0042
     83  CE1       16.4550  -47.6090   57.8990 C.ar  213  PHE213     -0.0003
     84  CE2       15.2820  -45.8550   56.7270 C.ar  213  PHE213     -0.0003
     85  CZ        15.5750  -46.5460   57.9150 C.ar  213  PHE213     -0.0000
     86  N         19.8250  -33.9890   55.4610 N.3   258  HIS258     -0.1241
     87  CA        19.7190  -33.4930   56.8290 C.3   258  HIS258      0.1621
     88  C         20.1220  -34.5730   57.8160 C.2   258  HIS258      0.2264
     89  O         20.0480  -35.7680   57.5280 O.2   258  HIS258     -0.2867
     90  CB        18.3040  -33.0190   57.1660 C.3   258  HIS258      0.0745
     91  CG        17.2980  -34.1090   57.0750 C.ar  258  HIS258      0.0817
     92  ND1       16.7680  -34.5210   55.8690 N.ar  258  HIS258     -0.2268
     93  CD2       16.7710  -34.9190   58.0210 C.ar  258  HIS258      0.1154
     94  CE1       15.9450  -35.5300   56.0790 C.ar  258  HIS258      0.1986
     95  NE2       15.9330  -35.7900   57.3740 N.ar  258  HIS258     -0.2212
     96  N          7.6360  -34.3790   63.1370 N.3   275  ARG275     -0.1245
     97  CA         8.0530  -34.4760   61.7480 C.3   275  ARG275      0.1563
     98  C          6.8420  -34.6650   60.8460 C.2   275  ARG275      0.2260
     99  O          5.8210  -35.2390   61.2520 O.2   275  ARG275     -0.2867
    100  CB         9.0400  -35.6250   61.5200 C.3   275  ARG275      0.0307
    101  CG         8.4260  -37.0030   61.6760 C.3   275  ARG275      0.0489
    102  CD         9.4300  -38.1030   61.3210 C.3   275  ARG275      0.2205
    103  NE         8.8510  -39.4450   61.4080 N.pl3 275  ARG275     -0.0865
    104  CZ         9.5020  -40.5620   61.1020 C.cat 275  ARG275      0.5346
    105  NH1       10.7570  -40.5000   60.6830 N.pl3 275  ARG275      0.1354
    106  NH2        8.9000  -41.7370   61.2050 N.pl3 275  ARG275      0.1354
    107  N          6.5530  -35.4520   56.3560 N.3   277  ARG277     -0.1245
    108  CA         7.1940  -35.6590   55.0620 C.3   277  ARG277      0.1563
    109  C          6.1020  -35.7740   54.0110 C.2   277  ARG277      0.2260
    110  O          5.0630  -36.3960   54.2510 O.2   277  ARG277     -0.2867
    111  CB         8.0560  -36.9360   55.0390 C.3   277  ARG277      0.0307
    112  CG         9.3710  -36.8170   55.7500 C.3   277  ARG277      0.0489
    113  CD         9.1960  -37.1120   57.2260 C.3   277  ARG277      0.2205
    114  NE         8.5810  -38.4170   57.4240 N.pl3 277  ARG277     -0.0865
    115  CZ         9.2660  -39.5100   57.7290 C.cat 277  ARG277      0.5346
    116  NH1       10.5810  -39.4270   57.8820 N.pl3 277  ARG277      0.1354
    117  NH2        8.6420  -40.6720   57.8850 N.pl3 277  ARG277      0.1354
@<TRIPOS>BOND
     1    42    41    2
     2    38    37    2
     3    25    24    2
     4    26    24   am
     5    41    40    1
     6    41    46   am
     7    40    43    1
     8    40    39    1
     9    24    23    1
    10    48    49    2
    11    48    47    1
    12    43    45    1
    13    43    44    1
    14    37    39   am
    15    37    36    1
    16    23    20    1
    17    47    46    1
    18    47    50    1
    19    30    29    2
    20    36    35    1
    21    58    59    1
    22    50    51    1
    23    78    77    2
    24    20    19    1
    25    20    21    1
    26    29    35   am
    27    29    28    1
    28    19    11   am
    29    77    76    1
    30    21    27   am
    31    21    22    2
    32    27    28    1
    33    61    60    2
    34    51    52   ar
    35    51    53   ar
    36    59    60    1
    37    59    62    1
    38    52    54   ar
    39    28    31    1
    40    11    12    2
    41    11    10    1
    42   109   110    2
    43   109   108    1
    44    64    62    1
    45    53    55   ar
    46    79    76    1
    47    79    80    1
    48    76    75    1
    49    62    63    1
    50    31    32    1
    51    10     9    1
    52    10    13    1
    53    54    56   ar
    54   111   108    1
    55   111   112    1
    56   108   107    1
    57    55    56   ar
    58    75    68   am
    59    56    57    1
    60    13    14    1
    61    86    87    1
    62    80    82   ar
    63    80    81   ar
    64    82    84   ar
    65   112   113    1
    66    92    94   ar
    67    92    91   ar
    68    32    33   ar
    69    32    34   ar
    70    63    65    1
    71    94    95   ar
    72    68    69    2
    73    68    67    1
    74    66    67    1
    75    14    16   ar
    76    14    15   ar
    77    16    18   ar
    78    81    83   ar
    79    84    85   ar
    80    87    90    1
    81    87    88    1
    82    91    90    1
    83    91    93   ar
    84    67    70    1
    85   113   114    1
    86    95    93   ar
    87   114   115    2
    88    89    88    2
    89   115   116    1
    90   115   117    1
    91    15    17   ar
    92    83    85   ar
    93    18    17   ar
    94    70    71    1
    95    71    72    1
    96    72    74   am
    97    72    73    2
    98   105   104    1
    99    98    99    2
   100    98    97    1
   101     8     7    1
   102   104   106    1
   103   104   103    2
   104   102   103    1
   105   102   101    1
   106     4     3    2
   107   100   101    1
   108   100    97    1
   109    97    96    1
   110     3     2    1
   111     7     6    1
   112     6     5    1
   113     2     5    1
   114     2     1    1
