@<TRIPOS>MOLECULE
tmp/6hl9B00.pdb
 124 115 0 0 0
SMALL
GASTEIGER

@<TRIPOS>ATOM
      1  N         37.8150   -5.5420   -5.4560 N.3   123  PHE123     -0.1241
      2  CA        38.6250   -6.3770   -6.3490 C.3   123  PHE123      0.1605
      3  C         37.7670   -7.1410   -7.3640 C.2   123  PHE123      0.2264
      4  O         36.5870   -7.4140   -7.1280 O.2   123  PHE123     -0.2867
      5  CB        39.5270   -7.3690   -5.5800 C.3   123  PHE123      0.0534
      6  CG        38.8530   -8.1100   -4.4490 C.ar  123  PHE123     -0.0203
      7  CD1       38.6110   -7.4860   -3.2320 C.ar  123  PHE123     -0.0042
      8  CD2       38.5220   -9.4550   -4.5820 C.ar  123  PHE123     -0.0042
      9  CE1       38.0170   -8.1790   -2.1790 C.ar  123  PHE123     -0.0003
     10  CE2       37.9300  -10.1570   -3.5300 C.ar  123  PHE123     -0.0003
     11  CZ        37.6780   -9.5200   -2.3300 C.ar  123  PHE123     -0.0000
     12  N         36.8840  -21.1990   -0.1820 N.3   131  MET131     -0.1245
     13  CA        37.6380  -20.4470    0.8180 C.3   131  MET131      0.1570
     14  C         37.0830  -20.7390    2.2120 C.2   131  MET131      0.2261
     15  O         35.8840  -20.5650    2.4600 O.2   131  MET131     -0.2867
     16  CB        37.6210  -18.9570    0.5080 C.3   131  MET131      0.0387
     17  CG        38.7430  -18.2320    1.1860 C.3   131  MET131      0.0595
     18  SD        38.4580  -16.4690    1.1330 S.3   131  MET131     -0.1393
     19  CE        36.7100  -16.3950    1.5730 C.3   131  MET131      0.0692
     20  N         36.5740  -18.7300    8.9260 N.3   134  HIS134     -0.1241
     21  CA        37.5750  -18.1010    9.7840 C.3   134  HIS134      0.1621
     22  C         36.9960  -16.8540   10.4560 C.2   134  HIS134      0.2264
     23  O         35.9400  -16.3560   10.0620 O.2   134  HIS134     -0.2867
     24  CB        38.8130  -17.7380    8.9660 C.3   134  HIS134      0.0745
     25  CG        38.5090  -16.8750    7.7810 C.ar  134  HIS134      0.0817
     26  ND1       37.9570  -17.3750    6.6190 N.ar  134  HIS134     -0.2268
     27  CD2       38.6530  -15.5420    7.5860 C.ar  134  HIS134      0.1154
     28  CE1       37.7840  -16.3900    5.7530 C.ar  134  HIS134      0.1986
     29  NE2       38.2120  -15.2710    6.3110 N.ar  134  HIS134     -0.2212
     30  N         38.1780  -12.7890   11.2180 N.3   136  ASP136     -0.1239
     31  CA        39.1340  -11.7920   10.7440 C.3   136  ASP136      0.1674
     32  C         39.9110  -11.1760   11.9150 C.2   136  ASP136      0.2266
     33  O         39.4980  -11.2450   13.0800 O.2   136  ASP136     -0.2867
     34  CB        38.4230  -10.6950    9.9390 C.3   136  ASP136      0.1410
     35  CG        38.2610  -11.0730    8.4630 C.2   136  ASP136      0.3668
     36  OD1       38.7120  -12.1740    8.1070 O.co2 136  ASP136     -0.2456
     37  OD2       37.6860  -10.3060    7.6610 O.co2 136  ASP136     -0.2456
     38  N         32.5900   -7.6720   10.7620 N.3   147  VAL147     -0.1245
     39  CA        33.0200   -7.8560    9.3530 C.3   147  VAL147      0.1561
     40  C         31.8930   -7.5170    8.3520 C.2   147  VAL147      0.2260
     41  O         30.7540   -7.9580    8.5430 O.2   147  VAL147     -0.2867
     42  CB        33.4870   -9.3090    9.0890 C.3   147  VAL147      0.0252
     43  CG1       33.7320   -9.5580    7.5760 C.3   147  VAL147      0.0019
     44  CG2       34.7400   -9.6530    9.8970 C.3   147  VAL147      0.0019
     45  N         30.8420   -7.3210    3.9040 N.3   149  MET149     -0.1196
     46  CA        31.1820   -7.7870    2.5320 C.3   149  MET149      0.1786
     47  C         30.0660   -7.5880    1.4840 C.2   149  MET149      0.2306
     48  O         28.9820   -8.1540    1.6490 O.2   149  MET149     -0.2863
     49  CB        31.5350   -9.2900    2.5510 C.2   149  MET149      0.0070
     50  CG        32.5980   -9.7160    3.5830 C.2   149  MET149      0.0282
     51  SD        32.7960  -11.5180    3.8310 S.3   149  MET149     -0.1125
     52  CE        31.6130  -11.8660    5.1320 C.3   149  MET149      0.0742
     53  N         28.3900  -17.0480   -0.5270 N.3   162  SER162     -0.1217
     54  CA        29.0130  -16.8660    0.7880 C.3   162  SER162      0.1889
     55  C         28.6040  -17.9370    1.8090 C.2   162  SER162      0.2288
     56  O         27.4590  -18.3960    1.8210 O.2   162  SER162     -0.2866
     57  CB        28.6230  -15.5030    1.3610 C.3   162  SER162      0.2089
     58  OG        29.2710  -14.4530    0.6810 O.3   162  SER162     -0.2183
     59  N         33.1630  -17.0810    8.8180 N.3   262  HIS262     -0.1226
     60  CA        32.6730  -16.8750    7.4320 C.3   262  HIS262      0.1756
     61  C         33.6570  -17.3250    6.3220 C.2   262  HIS262      0.2636
     62  O         34.8630  -17.4230    6.5560 O.2   262  HIS262     -0.2714
     63  CB        32.3240  -15.4030    7.2260 C.3   262  HIS262      0.0759
     64  CG        33.5220  -14.5210    7.1990 C.ar  262  HIS262      0.0818
     65  ND1       34.1570  -14.0910    8.3490 N.ar  262  HIS262     -0.2268
     66  CD2       34.2410  -14.0280    6.1630 C.ar  262  HIS262      0.1154
     67  CE1       35.2000  -13.3500    8.0210 C.ar  262  HIS262      0.1986
     68  NE2       35.2670  -13.2900    6.7030 N.ar  262  HIS262     -0.2212
     69  N         33.1260  -17.5620    5.0970 N.am  263  GLY263     -0.1718
     70  CA        33.8900  -18.0920    3.9410 C.2   263  GLY263      0.1480
     71  C         33.1980  -17.9680    2.5520 C.2   263  GLY263      0.2820
     72  O         32.2830  -17.1670    2.3680 O.2   263  GLY263     -0.2669
     73  N         33.6210  -18.7750    1.5510 N.am  264  ARG264     -0.1943
     74  CA        33.0780  -18.6270    0.1850 C.3   264  ARG264      0.1600
     75  C         33.2430  -19.8760   -0.7080 C.2   264  ARG264      0.2287
     76  O         34.2910  -20.5320   -0.6810 O.2   264  ARG264     -0.2864
     77  CB        33.7270  -17.4280   -0.5270 C.3   264  ARG264      0.0334
     78  CG        33.1360  -17.1270   -1.8970 C.3   264  ARG264      0.0492
     79  CD        34.2110  -16.7200   -2.8920 C.3   264  ARG264      0.2205
     80  NE        34.7010  -17.8570   -3.6660 N.pl3 264  ARG264     -0.0865
     81  CZ        35.9140  -17.9250   -4.2040 C.cat 264  ARG264      0.5346
     82  NH1       36.7640  -16.9160   -4.0570 N.pl3 264  ARG264      0.1354
     83  NH2       36.2770  -19.0040   -4.8860 N.pl3 264  ARG264      0.1354
     84  N         33.4150  -10.9420  -11.9040 N.3   275  ARG275     -0.1245
     85  CA        32.8740  -10.8640  -10.5450 C.3   275  ARG275      0.1563
     86  C         33.6640   -9.8300   -9.7460 C.2   275  ARG275      0.2260
     87  O         34.8960   -9.8640   -9.7500 O.2   275  ARG275     -0.2867
     88  CB        32.9340  -12.2390   -9.8580 C.3   275  ARG275      0.0307
     89  CG        32.3620  -12.3240   -8.4310 C.3   275  ARG275      0.0489
     90  CD        32.5580  -13.7420   -7.8880 C.3   275  ARG275      0.2205
     91  NE        32.0080  -14.0000   -6.5530 N.pl3 275  ARG275     -0.0865
     92  CZ        30.7830  -14.4670   -6.3060 C.cat 275  ARG275      0.5346
     93  NH1       30.3940  -14.6850   -5.0600 N.pl3 275  ARG275      0.1354
     94  NH2       29.9360  -14.7040   -7.2920 N.pl3 275  ARG275      0.1354
     95  N         33.8450   -7.3460   -5.8830 N.3   277  LEU277     -0.1245
     96  CA        33.5030   -7.3270   -4.4430 C.3   277  LEU277      0.1561
     97  C         33.9940   -6.0650   -3.7050 C.2   277  LEU277      0.2260
     98  O         34.8460   -5.3280   -4.2090 O.2   277  LEU277     -0.2867
     99  CB        34.1090   -8.5320   -3.7200 C.3   277  LEU277      0.0270
    100  CG        33.4350   -9.8950   -3.8110 C.3   277  LEU277      0.0019
    101  CD1       31.9880   -9.8320   -3.3350 C.3   277  LEU277      0.0001
    102  CD2       33.5280  -10.4080   -5.2270 C.3   277  LEU277      0.0001
    103  N         34.7850   -4.8430    0.7680 N.3   279  ARG279     -0.1245
    104  CA        34.8140   -5.2460    2.1940 C.3   279  ARG279      0.1563
    105  C         35.2750   -4.1220    3.1550 C.2   279  ARG279      0.2260
    106  O         35.9850   -3.1970    2.7400 O.2   279  ARG279     -0.2867
    107  CB        35.7340   -6.4510    2.3870 C.3   279  ARG279      0.0307
    108  CG        37.1920   -6.1070    2.1560 C.3   279  ARG279      0.0489
    109  CD        38.1390   -7.2310    2.5770 C.3   279  ARG279      0.2205
    110  NE        39.5370   -6.8140    2.4740 N.pl3 279  ARG279     -0.0865
    111  CZ        40.5780   -7.6390    2.5230 C.cat 279  ARG279      0.5346
    112  NH1       40.3880   -8.9450    2.6740 N.pl3 279  ARG279      0.1354
    113  NH2       41.8090   -7.1560    2.4160 N.pl3 279  ARG279      0.1354
    114  N         36.0870   -3.8150    7.9520 N.3   281  ARG281     -0.1245
    115  CA        36.2190   -4.4430    9.2970 C.3   281  ARG281      0.1563
    116  C         36.5180   -3.4240   10.4250 C.2   281  ARG281      0.2260
    117  O         37.2220   -2.4420   10.1780 O.2   281  ARG281     -0.2867
    118  CB        37.3710   -5.4700    9.3050 C.3   281  ARG281      0.0307
    119  CG        37.0330   -6.8530    8.7970 C.3   281  ARG281      0.0489
    120  CD        37.2160   -6.9970    7.2870 C.3   281  ARG281      0.2205
    121  NE        38.5100   -6.5170    6.8080 N.pl3 281  ARG281     -0.0865
    122  CZ        39.5110   -7.3130    6.4330 C.cat 281  ARG281      0.5346
    123  NH1       39.3670   -8.6320    6.4870 N.pl3 281  ARG281      0.1354
    124  NH2       40.6580   -6.7940    6.0040 N.pl3 281  ARG281      0.1354
@<TRIPOS>BOND
     1    84    85    1
     2    85    88    1
     3    85    86    1
     4    88    89    1
     5    87    86    2
     6    89    90    1
     7    90    91    1
     8     3     4    2
     9     3     2    1
    10    94    92    1
    11    91    92    2
    12     2     5    1
    13     2     1    1
    14    92    93    1
    15    95    96    1
    16     5     6    1
    17   102   100    1
    18    83    81    1
    19     8     6   ar
    20     8    10   ar
    21     6     7   ar
    22    96    99    1
    23    96    97    1
    24    98    97    2
    25    81    82    1
    26    81    80    2
    27   100    99    1
    28   100   101    1
    29    80    79    1
    30    10    11   ar
    31     7     9   ar
    32    79    78    1
    33    11     9   ar
    34    78    77    1
    35    75    76    2
    36    75    74    1
    37    77    74    1
    38    53    54    1
    39    12    13    1
    40    74    73    1
    41    16    13    1
    42    16    17    1
    43    58    57    1
    44   103   104    1
    45    54    57    1
    46    54    55    1
    47    13    14    1
    48    18    17    1
    49    18    19    1
    50    47    48    2
    51    47    46    1
    52    73    71   am
    53    55    56    2
    54   108   107    1
    55   108   109    1
    56   104   107    1
    57   104   105    1
    58    14    15    2
    59    72    71    2
    60   113   111    1
    61   110   111    2
    62   110   109    1
    63   111   112    1
    64    46    49    1
    65    46    45    1
    66    49    50    2
    67    71    70    1
    68   106   105    2
    69    50    51    1
    70    51    52    1
    71    70    69    2
    72    69    61    1
    73    28    29   ar
    74    28    26   ar
    75   124   122    1
    76    66    68   ar
    77    66    64   ar
    78    29    27   ar
    79    61    62    2
    80    61    60    1
    81   122   123    1
    82   122   121    2
    83    26    25   ar
    84    68    67   ar
    85   121   120    1
    86    64    63    1
    87    64    65   ar
    88    63    60    1
    89   120   119    1
    90    60    59    1
    91    43    42    1
    92    27    25   ar
    93    37    35   ar
    94    25    24    1
    95   114   115    1
    96    67    65   ar
    97    36    35   ar
    98    40    41    2
    99    40    39    1
   100    35    34    1
   101   119   118    1
   102    20    21    1
   103    24    21    1
   104    42    39    1
   105    42    44    1
   106   115   118    1
   107   115   116    1
   108    39    38    1
   109    21    22    1
   110    34    31    1
   111    23    22    2
   112   117   116    2
   113    31    30    1
   114    31    32    1
   115    32    33    2
