@<TRIPOS>MOLECULE
tmp/6hllA00.pdb
 214 209 0 0 0
SMALL
GASTEIGER

@<TRIPOS>ATOM
      1  N          5.4680    9.2880  -45.9100 N.3    55  MET55      -0.1245
      2  CA         5.8380   10.1090  -47.0550 C.3    55  MET55       0.1570
      3  C          7.3230    9.9990  -47.3580 C.2    55  MET55       0.2261
      4  O          7.7150   10.0210  -48.5310 O.2    55  MET55      -0.2867
      5  CB         5.4500   11.5680  -46.8140 C.3    55  MET55       0.0387
      6  CG         5.5690   12.4270  -48.0540 C.3    55  MET55       0.0595
      7  SD         5.5590   14.1890  -47.6980 S.3    55  MET55      -0.1393
      8  CE         7.1770   14.3940  -46.9700 C.3    55  MET55       0.0692
      9  N         11.0200   10.6960  -55.7940 N.3    63  ASN63      -0.1240
     10  CA        11.2640   12.0820  -56.1800 C.3    63  ASN63       0.1653
     11  C         12.7210   12.2890  -56.5650 C.2    63  ASN63       0.2266
     12  O         13.0160   12.9620  -57.5630 O.2    63  ASN63      -0.2867
     13  CB        10.8660   13.0320  -55.0460 C.3    63  ASN63       0.1155
     14  CG         9.4020   13.4080  -55.0930 C.2    63  ASN63       0.2627
     15  OD1        9.0430   14.4740  -55.5900 O.2    63  ASN63      -0.2716
     16  ND2        8.5440   12.5270  -54.5850 N.am   63  ASN63      -0.0877
     17  N          2.3230    8.8810  -56.4500 N.3    82  HIS82      -0.1226
     18  CA         3.4760    9.7470  -56.2340 C.3    82  HIS82       0.1752
     19  C          3.0950   11.2200  -56.2730 C.2    82  HIS82       0.2596
     20  O          3.7180   12.0350  -55.5840 O.2    82  HIS82      -0.2718
     21  CB         4.5610    9.4470  -57.2720 C.3    82  HIS82       0.0759
     22  CG         5.5120   10.5810  -57.4990 C.ar   82  HIS82       0.0818
     23  ND1        5.4720   11.3680  -58.6300 N.ar   82  HIS82      -0.2268
     24  CD2        6.5230   11.0650  -56.7390 C.ar   82  HIS82       0.1154
     25  CE1        6.4190   12.2860  -58.5580 C.ar   82  HIS82       0.1986
     26  NE2        7.0700   12.1250  -57.4200 N.ar   82  HIS82      -0.2212
     27  N          2.0950   11.5900  -57.0690 N.am   83  ASN83      -0.1974
     28  CA         1.6200   12.9680  -57.0280 C.3    83  ASN83       0.1688
     29  C          0.4560   13.1790  -56.0620 C.2    83  ASN83       0.2292
     30  O         -0.0160   14.3110  -55.9220 O.2    83  ASN83      -0.2864
     31  CB         1.2340   13.4400  -58.4340 C.3    83  ASN83       0.1181
     32  CG         2.4460   13.6910  -59.3170 C.2    83  ASN83       0.2629
     33  OD1        3.4440   14.2600  -58.8740 O.2    83  ASN83      -0.2716
     34  ND2        2.3650   13.2640  -60.5700 N.am   83  ASN83      -0.0877
     35  N          1.8210   12.8810  -50.9890 N.3    86  PRO86      -0.2102
     36  CA         2.4970   13.9110  -50.1790 C.3    86  PRO86       0.1504
     37  C          1.5890   15.0220  -49.6730 C.2    86  PRO86       0.2575
     38  O          1.7850   15.4880  -48.5440 O.2    86  PRO86      -0.2718
     39  CB         3.5610   14.4590  -51.1330 C.3    86  PRO86       0.0282
     40  CG         3.8690   13.3230  -52.0140 C.3    86  PRO86       0.0208
     41  CD         2.5630   12.6240  -52.2390 C.3    86  PRO86       0.0893
     42  N          0.5790   15.4340  -50.4470 N.am   87  ILE87      -0.1980
     43  CA        -0.3380   16.4610  -49.9580 C.3    87  ILE87       0.1595
     44  C         -1.0860   15.9570  -48.7300 C.2    87  ILE87       0.2287
     45  O         -1.1360   16.6250  -47.6880 O.2    87  ILE87      -0.2864
     46  CB        -1.3140   16.8890  -51.0690 C.3    87  ILE87       0.0276
     47  CG1       -0.6030   17.7370  -52.1230 C.3    87  ILE87       0.0022
     48  CG2       -2.4930   17.6490  -50.4700 C.3    87  ILE87       0.0022
     49  CD1       -1.4180   17.9610  -53.3850 C.3    87  ILE87       0.0001
     50  N          1.2850   15.7550  -45.6530 N.3    90  ILE90      -0.1245
     51  CA         1.5710   17.0500  -45.0430 C.3    90  ILE90       0.1561
     52  C          0.3500   17.5580  -44.2910 C.2    90  ILE90       0.2260
     53  O          0.4660   18.1150  -43.1910 O.2    90  ILE90      -0.2867
     54  CB         2.0290   18.0600  -46.1110 C.3    90  ILE90       0.0252
     55  CG1        3.2850   17.5630  -46.8200 C.3    90  ILE90       0.0019
     56  CG2        2.2730   19.4190  -45.4830 C.3    90  ILE90       0.0019
     57  CD1        4.3260   17.0350  -45.8810 C.3    90  ILE90       0.0001
     58  N         -5.1980   16.1160  -57.4800 N.3   139  GLN139     -0.1245
     59  CA        -3.8860   16.0120  -58.1090 C.3   139  GLN139      0.1566
     60  C         -3.5830   14.5770  -58.5150 C.2   139  GLN139      0.2260
     61  O         -3.0810   14.3280  -59.6160 O.2   139  GLN139     -0.2867
     62  CB        -2.8040   16.5460  -57.1770 C.3   139  GLN139      0.0367
     63  CG        -1.4190   16.4120  -57.7650 C.3   139  GLN139      0.0905
     64  CD        -0.4530   17.4340  -57.2190 C.2   139  GLN139      0.2608
     65  OE1       -0.6190   18.6360  -57.4290 O.2   139  GLN139     -0.2717
     66  NE2        0.5650   16.9650  -56.5100 N.am  139  GLN139     -0.0878
     67  N          1.0380   15.8510  -64.6960 N.3   156  ILE156     -0.1245
     68  CA        -0.2940   16.2160  -64.2340 C.3   156  ILE156      0.1561
     69  C         -0.9700   17.0160  -65.3370 C.2   156  ILE156      0.2260
     70  O         -0.5870   18.1580  -65.6180 O.2   156  ILE156     -0.2867
     71  CB        -0.2470   17.0150  -62.9300 C.3   156  ILE156      0.0252
     72  CG1        0.6230   16.3000  -61.9050 C.3   156  ILE156      0.0019
     73  CG2       -1.6540   17.2050  -62.3940 C.3   156  ILE156      0.0019
     74  CD1        0.5650   16.9310  -60.5680 C.3   156  ILE156      0.0001
     75  N         -3.6680   19.0280  -65.9400 N.3   158  TRP158     -0.1241
     76  CA        -4.7340   19.8420  -65.3860 C.3   158  TRP158      0.1605
     77  C         -5.7010   20.2390  -66.4990 C.2   158  TRP158      0.2264
     78  O         -5.3150   20.2940  -67.6700 O.2   158  TRP158     -0.2867
     79  CB        -4.1680   21.0880  -64.7090 C.3   158  TRP158      0.0550
     80  CG        -3.3070   20.8100  -63.5030 C.ar  158  TRP158      0.0003
     81  CD1       -1.9600   21.0070  -63.3910 C.ar  158  TRP158      0.0946
     82  CD2       -3.7410   20.2930  -62.2400 C.ar  158  TRP158      0.0152
     83  NE1       -1.5300   20.6440  -62.1380 N.ar  158  TRP158     -0.2442
     84  CE2       -2.6050   20.2040  -61.4110 C.ar  158  TRP158      0.0810
     85  CE3       -4.9810   19.8960  -61.7290 C.ar  158  TRP158      0.0012
     86  CZ2       -2.6710   19.7290  -60.1000 C.ar  158  TRP158      0.0191
     87  CZ3       -5.0460   19.4270  -60.4280 C.ar  158  TRP158      0.0001
     88  CH2       -3.8980   19.3480  -59.6280 C.ar  158  TRP158      0.0015
     89  N         -6.0020   25.1120  -57.5880 N.3   170  TYR170     -0.1227
     90  CA        -5.6860   23.9830  -56.7240 C.3   170  TYR170      0.1736
     91  C         -4.4100   24.2320  -55.9370 C.2   170  TYR170      0.2595
     92  O         -4.3340   23.9110  -54.7450 O.2   170  TYR170     -0.2718
     93  CB        -5.5470   22.7010  -57.5340 C.3   170  TYR170      0.0548
     94  CG        -5.2690   21.5080  -56.6560 C.ar  170  TYR170     -0.0200
     95  CD1       -6.2990   20.8750  -55.9780 C.ar  170  TYR170     -0.0009
     96  CD2       -3.9780   21.0270  -56.4880 C.ar  170  TYR170     -0.0009
     97  CE1       -6.0580   19.7880  -55.1670 C.ar  170  TYR170      0.0417
     98  CE2       -3.7240   19.9390  -55.6780 C.ar  170  TYR170      0.0417
     99  CZ        -4.7680   19.3210  -55.0180 C.ar  170  TYR170      0.1957
    100  OH        -4.5260   18.2340  -54.2060 O.3   170  TYR170     -0.2866
    101  N         -3.4050   24.8330  -56.5750 N.am  171  HIS171     -0.1975
    102  CA        -2.1380   25.0120  -55.8770 C.3   171  HIS171      0.1656
    103  C         -2.2520   26.0470  -54.7640 C.2   171  HIS171      0.2291
    104  O         -1.7160   25.8420  -53.6660 O.2   171  HIS171     -0.2864
    105  CB        -1.0380   25.3760  -56.8720 C.3   171  HIS171      0.0771
    106  CG        -0.5780   24.2160  -57.7020 C.ar  171  HIS171      0.0820
    107  ND1        0.6430   24.1910  -58.3400 N.ar  171  HIS171     -0.2267
    108  CD2       -1.1750   23.0340  -57.9900 C.ar  171  HIS171      0.1154
    109  CE1        0.7780   23.0470  -58.9870 C.ar  171  HIS171      0.1986
    110  NE2       -0.3120   22.3260  -58.7910 N.ar  171  HIS171     -0.2212
    111  N         -4.1570   24.3580  -51.8590 N.3   174  VAL174     -0.1231
    112  CA        -3.3350   23.4460  -51.0720 C.3   174  VAL174      0.1692
    113  C         -2.3690   24.2310  -50.1950 C.2   174  VAL174      0.2592
    114  O         -2.2330   23.9570  -48.9980 O.2   174  VAL174     -0.2718
    115  CB        -2.5910   22.4590  -51.9880 C.3   174  VAL174      0.0266
    116  CG1       -1.3340   21.9650  -51.3060 C.3   174  VAL174      0.0020
    117  CG2       -3.4890   21.2880  -52.3280 C.3   174  VAL174      0.0020
    118  N         -1.7100   25.2440  -50.7670 N.am  175  THR175     -0.1953
    119  CA        -0.7300   25.9950  -49.9880 C.3   175  THR175      0.1897
    120  C         -1.3820   26.6790  -48.7970 C.2   175  THR175      0.2313
    121  O         -0.8410   26.6560  -47.6840 O.2   175  THR175     -0.2863
    122  CB        -0.0270   27.0260  -50.8730 C.3   175  THR175      0.1794
    123  OG1        1.0590   26.4060  -51.5710 O.3   175  THR175     -0.2208
    124  CG2        0.5070   28.1770  -50.0410 C.3   175  THR175      0.0378
    125  N         -2.3090   23.8100  -46.1040 N.3   178  ILE178     -0.1245
    126  CA        -1.2570   23.0550  -45.4320 C.3   178  ILE178      0.1561
    127  C         -0.0600   23.9260  -45.0840 C.2   178  ILE178      0.2260
    128  O          1.0010   23.3950  -44.7380 O.2   178  ILE178     -0.2867
    129  CB        -0.8130   21.8360  -46.2570 C.3   178  ILE178      0.0252
    130  CG1       -0.0930   22.2820  -47.5320 C.3   178  ILE178      0.0019
    131  CG2       -1.9990   20.9390  -46.5660 C.3   178  ILE178      0.0019
    132  CD1        0.5450   21.1520  -48.2980 C.3   178  ILE178      0.0001
    133  N          9.3050   24.3210  -45.2350 N.3   420  TRP420     -0.1241
    134  CA         8.3390   24.3790  -46.3220 C.3   420  TRP420      0.1605
    135  C          8.2460   25.7230  -47.0310 C.2   420  TRP420      0.2264
    136  O          7.6310   25.7850  -48.1010 O.2   420  TRP420     -0.2867
    137  CB         6.9580   23.9680  -45.8100 C.3   420  TRP420      0.0550
    138  CG         6.9020   22.5020  -45.5910 C.ar  420  TRP420      0.0003
    139  CD1        6.7740   21.8490  -44.4000 C.ar  420  TRP420      0.0946
    140  CD2        7.0260   21.4900  -46.5950 C.ar  420  TRP420      0.0152
    141  NE1        6.7880   20.4900  -44.6040 N.ar  420  TRP420     -0.2442
    142  CE2        6.9420   20.2450  -45.9450 C.ar  420  TRP420      0.0810
    143  CE3        7.1890   21.5170  -47.9840 C.ar  420  TRP420      0.0012
    144  CZ2        7.0180   19.0370  -46.6370 C.ar  420  TRP420      0.0191
    145  CZ3        7.2580   20.3170  -48.6680 C.ar  420  TRP420      0.0001
    146  CH2        7.1760   19.0950  -47.9950 C.ar  420  TRP420      0.0015
    147  N          9.8970   25.7430  -50.6880 N.3   423  PHE423     -0.1227
    148  CA         9.1730   24.8590  -51.5930 C.3   423  PHE423      0.1736
    149  C          7.9160   25.5330  -52.1300 C.2   423  PHE423      0.2595
    150  O          7.7260   25.6590  -53.3480 O.2   423  PHE423     -0.2718
    151  CB         8.8310   23.5670  -50.8490 C.3   423  PHE423      0.0547
    152  CG         7.9480   22.6320  -51.6100 C.ar  423  PHE423     -0.0202
    153  CD1        8.4970   21.6360  -52.3950 C.ar  423  PHE423     -0.0042
    154  CD2        6.5680   22.7270  -51.5190 C.ar  423  PHE423     -0.0042
    155  CE1        7.6870   20.7570  -53.0840 C.ar  423  PHE423     -0.0003
    156  CE2        5.7520   21.8560  -52.2100 C.ar  423  PHE423     -0.0003
    157  CZ         6.3120   20.8670  -52.9930 C.ar  423  PHE423     -0.0000
    158  N          7.0620   26.0110  -51.2220 N.am  424  HIS424     -0.1975
    159  CA         5.8120   26.6310  -51.6430 C.3   424  HIS424      0.1656
    160  C          6.0750   27.8770  -52.4730 C.2   424  HIS424      0.2291
    161  O          5.3760   28.1330  -53.4630 O.2   424  HIS424     -0.2864
    162  CB         4.9620   26.9750  -50.4210 C.3   424  HIS424      0.0771
    163  CG         4.2880   25.7930  -49.7960 C.ar  424  HIS424      0.0820
    164  ND1        3.2450   25.1270  -50.4030 N.ar  424  HIS424     -0.2267
    165  CD2        4.4930   25.1710  -48.6110 C.ar  424  HIS424      0.1154
    166  CE1        2.8420   24.1400  -49.6230 C.ar  424  HIS424      0.1986
    167  NE2        3.5820   24.1450  -48.5290 N.ar  424  HIS424     -0.2212
    168  N          7.0160   26.5660  -56.1060 N.3   427  PHE427     -0.1227
    169  CA         5.9340   26.1470  -56.9920 C.3   427  PHE427      0.1736
    170  C          4.9260   27.2560  -57.2660 C.2   427  PHE427      0.2595
    171  O          4.3010   27.2580  -58.3320 O.2   427  PHE427     -0.2718
    172  CB         5.2320   24.9150  -56.4280 C.3   427  PHE427      0.0547
    173  CG         5.9240   23.6300  -56.7630 C.ar  427  PHE427     -0.0202
    174  CD1        7.1050   23.2820  -56.1320 C.ar  427  PHE427     -0.0042
    175  CD2        5.4040   22.7740  -57.7150 C.ar  427  PHE427     -0.0042
    176  CE1        7.7510   22.1030  -56.4380 C.ar  427  PHE427     -0.0003
    177  CE2        6.0450   21.5920  -58.0250 C.ar  427  PHE427     -0.0003
    178  CZ         7.2200   21.2540  -57.3820 C.ar  427  PHE427     -0.0000
    179  N          4.7430   28.2010  -56.3460 N.am  428  LEU428     -0.1980
    180  CA         3.8500   29.3120  -56.6530 C.3   428  LEU428      0.1596
    181  C          4.5520   30.4350  -57.4070 C.2   428  LEU428      0.2287
    182  O          3.9000   31.4210  -57.7680 O.2   428  LEU428     -0.2864
    183  CB         3.1930   29.8460  -55.3760 C.3   428  LEU428      0.0297
    184  CG         2.2270   28.8750  -54.6820 C.3   428  LEU428      0.0022
    185  CD1        1.3250   29.6020  -53.6920 C.3   428  LEU428      0.0001
    186  CD2        1.3980   28.0850  -55.6930 C.3   428  LEU428      0.0001
    187  N         16.0160   23.3300  -57.6330 N.3   436  TYR436     -0.1241
    188  CA        14.9560   22.3660  -57.3590 C.3   436  TYR436      0.1605
    189  C         15.4710   21.2080  -56.5160 C.2   436  TYR436      0.2264
    190  O         14.7750   20.7380  -55.6090 O.2   436  TYR436     -0.2867
    191  CB        14.3550   21.8510  -58.6670 C.3   436  TYR436      0.0534
    192  CG        13.3570   20.7270  -58.4760 C.ar  436  TYR436     -0.0201
    193  CD1       12.0110   20.9950  -58.2500 C.ar  436  TYR436     -0.0009
    194  CD2       13.7630   19.3950  -58.5150 C.ar  436  TYR436     -0.0009
    195  CE1       11.0960   19.9700  -58.0700 C.ar  436  TYR436      0.0417
    196  CE2       12.8590   18.3650  -58.3330 C.ar  436  TYR436      0.0417
    197  CZ        11.5260   18.6560  -58.1100 C.ar  436  TYR436      0.1957
    198  OH        10.6200   17.6330  -57.9290 O.3   436  TYR436     -0.2866
    199  N         14.0040   20.6790  -52.8210 N.3   440  MET440     -0.1245
    200  CA        13.3290   19.4110  -52.5840 C.3   440  MET440      0.1570
    201  C         13.9570   18.6690  -51.4150 C.2   440  MET440      0.2261
    202  O         13.2450   18.0960  -50.5780 O.2   440  MET440     -0.2867
    203  CB        13.3640   18.5550  -53.8500 C.3   440  MET440      0.0387
    204  CG        12.3450   17.4290  -53.8620 C.3   440  MET440      0.0595
    205  SD        10.6830   18.0390  -53.5190 S.3   440  MET440     -0.1393
    206  CE        10.5350   19.3550  -54.7250 C.3   440  MET440      0.0692
    207  N         11.8260   17.8700  -48.0050 N.3   444  MET444     -0.1245
    208  CA        11.5920   16.5010  -47.5700 C.3   444  MET444      0.1570
    209  C         12.4440   16.1070  -46.3700 C.2   444  MET444      0.2261
    210  O         12.2320   15.0250  -45.8110 O.2   444  MET444     -0.2867
    211  CB        11.8180   15.5360  -48.7340 C.3   444  MET444      0.0387
    212  CG        10.9850   15.8950  -49.9570 C.3   444  MET444      0.0595
    213  SD        10.4250   14.4810  -50.9200 S.3   444  MET444     -0.1393
    214  CE         9.3420   13.6750  -49.7460 C.3   444  MET444      0.0692
@<TRIPOS>BOND
     1    78    77    2
     2    77    76    1
     3    75    76    1
     4    70    69    2
     5    76    79    1
     6    69    68    1
     7    79    80    1
     8    67    68    1
     9    68    71    1
    10    80    81   ar
    11    80    82   ar
    12    81    83   ar
    13    71    73    1
    14    71    72    1
    15    82    85   ar
    16    82    84   ar
    17    83    84   ar
    18    72    74    1
    19    85    87   ar
    20    84    86   ar
    21    34    32   am
    22    87    88   ar
    23    86    88   ar
    24    61    60    2
    25    32    33    2
    26    32    31    1
    27   109   110   ar
    28   109   107   ar
    29   110   108   ar
    30   191   192    1
    31   191   188    1
    32    23    25   ar
    33    23    22   ar
    34    25    26   ar
    35   194   192   ar
    36   194   196   ar
    37    60    59    1
    38   192   193   ar
    39    31    28    1
    40   107   106   ar
    41   196   197   ar
    42   171   170    2
    43   193   195   ar
    44   197   195   ar
    45   197   198    1
    46    59    58    1
    47    59    62    1
    48   177   175   ar
    49   177   178   ar
    50   108   106   ar
    51   182   181    2
    52    63    64    1
    53    63    62    1
    54   175   173   ar
    55   106   105    1
    56   187   188    1
    57    89    90    1
    58    12    11    2
    59    93    90    1
    60    93    94    1
    61    22    21    1
    62    22    24   ar
    63    65    64    2
    64    26    24   ar
    65   181   180    1
    66   178   176   ar
    67   188   189    1
    68    21    18    1
    69   170   169    1
    70   170   179   am
    71    64    66   am
    72    27    28    1
    73    27    19   am
    74    28    29    1
    75   169   172    1
    76   169   168    1
    77   105   102    1
    78   173   172    1
    79   173   174   ar
    80    90    91    1
    81    94    96   ar
    82    94    95   ar
    83   180   179    1
    84   180   183    1
    85   101    91   am
    86   101   102    1
    87    11    10    1
    88   189   190    2
    89    96    98   ar
    90    17    18    1
    91   176   174   ar
    92    19    18    1
    93    19    20    2
    94    10     9    1
    95    10    13    1
    96    29    30    2
    97    95    97   ar
    98    91    92    2
    99   102   103    1
   100   186   184    1
   101    98    99   ar
   102    15    14    2
   103   183   184    1
   104    97    99   ar
   105    14    13    1
   106    14    16   am
   107    99   100    1
   108   103   104    2
   109   206   205    1
   110   184   185    1
   111   204   203    1
   112   204   205    1
   113   203   200    1
   114   161   160    2
   115    49    47    1
   116   150   149    2
   117   155   157   ar
   118   155   153   ar
   119   157   156   ar
   120   199   200    1
   121   200   201    1
   122   160   159    1
   123   153   152   ar
   124   117   115    1
   125    41    40    1
   126    41    35    1
   127   156   154   ar
   128   149   148    1
   129   149   158   am
   130    47    46    1
   131    40    39    1
   132   115   116    1
   133   115   112    1
   134   111   112    1
   135   159   158    1
   136   159   162    1
   137   152   154   ar
   138   152   151    1
   139   148   151    1
   140   148   147    1
   141   123   122    1
   142   201   202    2
   143    39    36    1
   144   112   113    1
   145    46    48    1
   146    46    43    1
   147    35    36    1
   148   213   212    1
   149   213   214    1
   150   122   124    1
   151   122   119    1
   152   118   113   am
   153   118   119    1
   154    42    43    1
   155    42    37   am
   156   162   163    1
   157   164   163   ar
   158   164   166   ar
   159   113   114    2
   160    36    37    1
   161   119   120    1
   162    43    44    1
   163   212   211    1
   164   163   165   ar
   165    37    38    2
   166   166   167   ar
   167   120   121    2
   168   211   208    1
   169    44    45    2
   170   145   146   ar
   171   145   143   ar
   172   165   167   ar
   173     4     3    2
   174   132   130    1
   175   136   135    2
   176     6     7    1
   177     6     5    1
   178   207   208    1
   179   146   144   ar
   180   143   140   ar
   181     7     8    1
   182   208   209    1
   183   130   129    1
   184     3     2    1
   185     2     5    1
   186     2     1    1
   187   135   134    1
   188    55    54    1
   189    55    57    1
   190   144   142   ar
   191   140   142   ar
   192   140   138   ar
   193   131   129    1
   194   209   210    2
   195   134   137    1
   196   134   133    1
   197   129   126    1
   198    54    56    1
   199    54    51    1
   200   125   126    1
   201   142   141   ar
   202   137   138    1
   203    50    51    1
   204   138   139   ar
   205   126   127    1
   206   127   128    2
   207    51    52    1
   208   141   139   ar
   209    52    53    2
