@<TRIPOS>MOLECULE
tmp/6hloA02.pdb
 101 96 0 0 0
SMALL
GASTEIGER

@<TRIPOS>ATOM
      1  N         -0.7530   -9.7390   59.4790 N.3   405  LYS405     -0.1245
      2  CA        -1.8700  -10.1550   58.6390 C.3   405  LYS405      0.1561
      3  C         -2.2850   -9.0390   57.6890 C.2   405  LYS405      0.2260
      4  O         -2.5750   -9.2860   56.5070 O.2   405  LYS405     -0.2867
      5  CB        -3.0520  -10.5810   59.5090 C.3   405  LYS405      0.0271
      6  CG        -4.3160  -10.8720   58.7170 C.3   405  LYS405      0.0035
      7  CD        -5.5200  -11.0770   59.6170 C.3   405  LYS405      0.0206
      8  CE        -6.7940  -11.2020   58.7970 C.3   405  LYS405      0.1093
      9  NZ        -8.0070  -11.2190   59.6580 N.3   405  LYS405     -0.1314
     10  N         -2.1710   -9.1880   53.5390 N.3   409  VAL409     -0.1245
     11  CA        -3.2960   -8.8900   52.6560 C.3   409  VAL409      0.1561
     12  C         -2.8780   -7.8680   51.6050 C.2   409  VAL409      0.2260
     13  O         -3.2500   -7.9740   50.4270 O.2   409  VAL409     -0.2867
     14  CB        -4.5100   -8.4060   53.4730 C.3   409  VAL409      0.0252
     15  CG1       -5.6310   -7.9450   52.5470 C.3   409  VAL409      0.0019
     16  CG2       -5.0030   -9.5110   54.3960 C.3   409  VAL409      0.0019
     17  N         -2.8480   -8.6740   47.5830 N.3   413  THR413     -0.1218
     18  CA        -3.6310   -7.8460   46.6750 C.3   413  THR413      0.1862
     19  C         -2.7660   -7.3200   45.5400 C.2   413  THR413      0.2287
     20  O         -3.1910   -7.3050   44.3780 O.2   413  THR413     -0.2866
     21  CB        -4.2690   -6.6910   47.4460 C.3   413  THR413      0.1770
     22  OG1       -5.1330   -7.2130   48.4630 O.3   413  THR413     -0.2211
     23  CG2       -5.0710   -5.8030   46.5120 C.3   413  THR413      0.0375
     24  N         -2.0450  -10.2910   43.0580 N.3   416  ILE416     -0.1231
     25  CA        -3.2150  -10.6010   42.2450 C.3   416  ILE416      0.1692
     26  C         -3.4510   -9.5140   41.2050 C.2   416  ILE416      0.2592
     27  O         -3.7020   -9.8060   40.0300 O.2   416  ILE416     -0.2718
     28  CB        -4.4480  -10.7910   43.1470 C.3   416  ILE416      0.0266
     29  CG1       -4.2840  -12.0330   44.0240 C.3   416  ILE416      0.0019
     30  CG2       -5.7200  -10.8690   42.3130 C.3   416  ILE416      0.0020
     31  CD1       -5.4230  -12.2450   44.9950 C.3   416  ILE416      0.0001
     32  N         -3.3580   -8.2430   41.6090 N.am  417  CYS417     -0.1970
     33  CA        -3.6590   -7.1590   40.6830 C.3   417  CYS417      0.1712
     34  C         -2.6550   -7.0820   39.5460 C.2   417  CYS417      0.2296
     35  O         -3.0220   -6.6980   38.4300 O.2   417  CYS417     -0.2864
     36  CB        -3.7110   -5.8250   41.4270 C.3   417  CYS417      0.0983
     37  SG        -5.1950   -5.5940   42.4050 S.3   417  CYS417     -0.0798
     38  N         -7.3170   -2.1910   33.8940 N.3   446  TRP446     -0.1227
     39  CA        -8.1090   -1.6930   35.0120 C.3   446  TRP446      0.1737
     40  C         -7.7320   -2.4040   36.3010 C.2   446  TRP446      0.2595
     41  O         -7.6230   -1.7710   37.3580 O.2   446  TRP446     -0.2718
     42  CB        -9.6040   -1.8630   34.7390 C.3   446  TRP446      0.0564
     43  CG       -10.4590   -1.2690   35.8290 C.ar  446  TRP446      0.0003
     44  CD1      -11.0620   -0.0430   35.8210 C.ar  446  TRP446      0.0946
     45  CD2      -10.7850   -1.8660   37.0960 C.ar  446  TRP446      0.0152
     46  NE1      -11.7480    0.1560   36.9960 N.ar  446  TRP446     -0.2442
     47  CE2      -11.5930   -0.9470   37.7940 C.ar  446  TRP446      0.0810
     48  CE3      -10.4780   -3.0910   37.7020 C.ar  446  TRP446      0.0012
     49  CZ2      -12.0930   -1.2120   39.0700 C.ar  446  TRP446      0.0191
     50  CZ3      -10.9730   -3.3500   38.9660 C.ar  446  TRP446      0.0001
     51  CH2      -11.7740   -2.4160   39.6360 C.ar  446  TRP446      0.0015
     52  N         -7.5180   -3.7190   36.2330 N.am  447  LEU447     -0.1980
     53  CA        -7.1750   -4.4640   37.4380 C.3   447  LEU447      0.1596
     54  C         -5.8280   -4.0190   37.9840 C.2   447  LEU447      0.2287
     55  O         -5.6750   -3.8000   39.1920 O.2   447  LEU447     -0.2864
     56  CB        -7.1690   -5.9650   37.1450 C.3   447  LEU447      0.0297
     57  CG        -6.6870   -6.8570   38.2930 C.3   447  LEU447      0.0022
     58  CD1       -7.5510   -6.6480   39.5310 C.3   447  LEU447      0.0001
     59  CD2       -6.6780   -8.3240   37.8820 C.3   447  LEU447      0.0001
     60  N         -6.4450    0.1400   46.8100 N.3   454  TYR454     -0.1241
     61  CA        -6.8810   -0.8480   47.7970 C.3   454  TYR454      0.1605
     62  C         -6.2380   -0.6450   49.1660 C.2   454  TYR454      0.2264
     63  O         -6.8910   -0.8700   50.1910 O.2   454  TYR454     -0.2867
     64  CB        -6.6020   -2.2630   47.2930 C.3   454  TYR454      0.0534
     65  CG        -7.4050   -2.6320   46.0700 C.ar  454  TYR454     -0.0201
     66  CD1       -8.7940   -2.5590   46.0790 C.ar  454  TYR454     -0.0009
     67  CD2       -6.7760   -3.0560   44.9050 C.ar  454  TYR454     -0.0009
     68  CE1       -9.5310   -2.8940   44.9590 C.ar  454  TYR454      0.0417
     69  CE2       -7.5030   -3.3940   43.7840 C.ar  454  TYR454      0.0417
     70  CZ        -8.8790   -3.3100   43.8140 C.ar  454  TYR454      0.1957
     71  OH        -9.6080   -3.6470   42.6990 O.3   454  TYR454     -0.2866
     72  N         -8.0520    1.3370   51.8010 N.3   457  ILE457     -0.1231
     73  CA        -9.2030    0.5490   52.2260 C.3   457  ILE457      0.1692
     74  C         -8.7600   -0.5910   53.1320 C.2   457  ILE457      0.2591
     75  O         -9.4440   -0.9330   54.1050 O.2   457  ILE457     -0.2718
     76  CB        -9.9700    0.0300   50.9970 C.3   457  ILE457      0.0266
     77  CG1      -10.3030    1.1870   50.0510 C.3   457  ILE457      0.0019
     78  CG2      -11.2330   -0.7030   51.4220 C.3   457  ILE457      0.0020
     79  CD1      -11.0710    0.7600   48.8130 C.3   457  ILE457      0.0001
     80  N         -7.5960   -1.1800   52.8450 N.am  458  ILE458     -0.1980
     81  CA        -7.1040   -2.2820   53.6640 C.3   458  ILE458      0.1595
     82  C         -6.7110   -1.7860   55.0500 C.2   458  ILE458      0.2287
     83  O         -7.0190   -2.4300   56.0630 O.2   458  ILE458     -0.2864
     84  CB        -5.9340   -2.9860   52.9540 C.3   458  ILE458      0.0276
     85  CG1       -6.4420   -3.7440   51.7260 C.3   458  ILE458      0.0022
     86  CG2       -5.2110   -3.9270   53.9070 C.3   458  ILE458      0.0022
     87  CD1       -5.3420   -4.3360   50.8650 C.3   458  ILE458      0.0001
     88  N         -9.7280   -1.2150   57.3690 N.3   461  CYS461     -0.1221
     89  CA       -10.4210   -2.4010   57.8530 C.3   461  CYS461      0.1808
     90  C         -9.6200   -3.1920   58.8780 C.2   461  CYS461      0.2601
     91  O        -10.2170   -3.8390   59.7460 O.2   461  CYS461     -0.2717
     92  CB       -10.7800   -3.3190   56.6800 C.3   461  CYS461      0.0970
     93  SG       -12.0440   -2.6610   55.5640 S.3   461  CYS461     -0.0800
     94  N         -8.2890   -3.1640   58.8030 N.am  462  LEU462     -0.1979
     95  CA        -7.4610   -4.0550   59.6080 C.3   462  LEU462      0.1596
     96  C         -6.5760   -3.3320   60.6190 C.2   462  LEU462      0.2287
     97  O         -5.7410   -3.9810   61.2620 O.2   462  LEU462     -0.2864
     98  CB        -6.5980   -4.9350   58.6970 C.3   462  LEU462      0.0297
     99  CG        -7.3870   -5.7960   57.7050 C.3   462  LEU462      0.0022
    100  CD1       -6.4740   -6.7470   56.9490 C.3   462  LEU462      0.0001
    101  CD2       -8.4960   -6.5640   58.4180 C.3   462  LEU462      0.0001
@<TRIPOS>BOND
     1    38    39    1
     2    42    39    1
     3    42    43    1
     4    39    40    1
     5    44    43   ar
     6    44    46   ar
     7    43    45   ar
     8    52    40   am
     9    52    53    1
    10    40    41    2
    11    46    47   ar
    12    45    48   ar
    13    45    47   ar
    14    56    53    1
    15    56    57    1
    16    53    54    1
    17    48    50   ar
    18    47    49   ar
    19    59    57    1
    20    54    55    2
    21    57    58    1
    22    35    34    2
    23    50    51   ar
    24    49    51   ar
    25    34    33    1
    26    27    26    2
    27    33    36    1
    28    33    32    1
    29    26    32   am
    30    26    25    1
    31    36    37    1
    32    25    24    1
    33    25    28    1
    34    30    28    1
    35    71    70    1
    36    28    29    1
    37    69    70   ar
    38    69    67   ar
    39    70    68   ar
    40    29    31    1
    41    20    19    2
    42    67    65   ar
    43    68    66   ar
    44    19    18    1
    45    65    66   ar
    46    65    64    1
    47    23    21    1
    48    18    21    1
    49    18    17    1
    50    60    61    1
    51    64    61    1
    52    21    22    1
    53    61    62    1
    54    79    77    1
    55    62    63    2
    56    77    76    1
    57    13    12    2
    58    87    85    1
    59    76    78    1
    60    76    73    1
    61    12    11    1
    62    85    84    1
    63    72    73    1
    64    73    74    1
    65    15    14    1
    66    11    14    1
    67    11    10    1
    68    80    74   am
    69    80    81    1
    70    84    81    1
    71    84    86    1
    72    74    75    2
    73    14    16    1
    74    81    82    1
    75    82    83    2
    76    93    92    1
    77     4     3    2
    78    92    89    1
    79   100    99    1
    80    88    89    1
    81     3     2    1
    82    99   101    1
    83    99    98    1
    84    89    90    1
    85     2     1    1
    86     2     5    1
    87    98    95    1
    88     6     5    1
    89     6     7    1
    90     8     7    1
    91     8     9    1
    92    94    90   am
    93    94    95    1
    94    90    91    2
    95    95    96    1
    96    96    97    2
