@<TRIPOS>MOLECULE
tmp/6hloA03.pdb
 83 78 0 0 0
SMALL
GASTEIGER

@<TRIPOS>ATOM
      1  N        -13.4910    5.9140   38.8850 N.3    14  VAL14      -0.1245
      2  CA       -13.6170    5.4380   40.2600 C.3    14  VAL14       0.1561
      3  C        -12.2470    5.0700   40.8100 C.2    14  VAL14       0.2260
      4  O        -11.9140    5.3940   41.9610 O.2    14  VAL14      -0.2867
      5  CB       -14.5990    4.2540   40.3370 C.3    14  VAL14       0.0252
      6  CG1      -14.4710    3.5400   41.6740 C.3    14  VAL14       0.0019
      7  CG2      -16.0250    4.7380   40.1340 C.3    14  VAL14       0.0019
      8  N        -10.3940    8.5590   41.6030 N.3    17  VAL17      -0.1231
      9  CA       -10.8720    9.3130   42.7570 C.3    17  VAL17       0.1692
     10  C        -10.6170    8.5450   44.0490 C.2    17  VAL17       0.2592
     11  O        -10.1490    9.1230   45.0420 O.2    17  VAL17      -0.2718
     12  CB       -12.3590    9.6870   42.5860 C.3    17  VAL17       0.0266
     13  CG1      -12.5520   10.5180   41.3230 C.3    17  VAL17       0.0020
     14  CG2      -13.2460    8.4520   42.5490 C.3    17  VAL17       0.0020
     15  N        -10.8800    7.2310   44.0590 N.am   18  THR18      -0.1953
     16  CA       -10.6770    6.4770   45.2870 C.3    18  THR18       0.1897
     17  C         -9.2060    6.4530   45.6690 C.2    18  THR18       0.2313
     18  O         -8.8600    6.6480   46.8410 O.2    18  THR18      -0.2863
     19  CB       -11.2090    5.0550   45.1330 C.3    18  THR18       0.1794
     20  OG1      -12.5380    5.0950   44.5980 O.3    18  THR18      -0.2208
     21  CG2      -11.2290    4.3480   46.4850 C.3    18  THR18       0.0378
     22  N         -8.0910   10.1060   46.9320 N.3    21  VAL21      -0.1231
     23  CA        -8.6630   10.4790   48.2230 C.3    21  VAL21       0.1692
     24  C         -8.0980    9.6070   49.3360 C.2    21  VAL21       0.2592
     25  O         -7.6350   10.1150   50.3660 O.2    21  VAL21      -0.2718
     26  CB       -10.1990   10.4040   48.1760 C.3    21  VAL21       0.0266
     27  CG1      -10.7750   10.5410   49.5770 C.3    21  VAL21       0.0020
     28  CG2      -10.7550   11.4890   47.2630 C.3    21  VAL21       0.0020
     29  N         -8.0960    8.2850   49.1420 N.am   22  GLY22      -0.1957
     30  CA        -7.6690    7.4090   50.2160 C.3    22  GLY22       0.1869
     31  C         -6.1890    7.5290   50.5170 C.2    22  GLY22       0.2309
     32  O         -5.7840    7.5170   51.6830 O.2    22  GLY22      -0.2863
     33  N         -5.7190    1.8360   44.6910 N.3   453  MET453     -0.1245
     34  CA        -6.7860    2.2660   45.5870 C.3   453  MET453      0.1570
     35  C         -7.0680    1.3200   46.7530 C.2   453  MET453      0.2261
     36  O         -7.8710    1.6750   47.6230 O.2   453  MET453     -0.2867
     37  CB        -8.0880    2.4700   44.7960 C.3   453  MET453      0.0387
     38  CG        -8.8130    1.1760   44.4380 C.3   453  MET453      0.0595
     39  SD       -10.1100    1.3910   43.1980 S.3   453  MET453     -0.1393
     40  CE       -11.5650    1.5990   44.2190 C.3   453  MET453      0.0692
     41  N         -5.3650    1.9590   51.2020 N.3   456  PRO456     -0.2102
     42  CA        -6.0970    2.7380   52.2160 C.3   456  PRO456      0.1504
     43  C         -7.3640    2.0570   52.6880 C.2   456  PRO456      0.2575
     44  O         -7.7270    2.1830   53.8650 O.2   456  PRO456     -0.2718
     45  CB        -6.4000    4.0600   51.5000 C.3   456  PRO456      0.0282
     46  CG        -5.3760    4.1440   50.4130 C.3   456  PRO456      0.0208
     47  CD        -5.1700    2.7330   49.9640 C.3   456  PRO456      0.0893
     48  N         -8.0520    1.3370   51.8010 N.am  457  ILE457     -0.1980
     49  CA        -9.2030    0.5490   52.2260 C.3   457  ILE457      0.1595
     50  C         -8.7600   -0.5910   53.1320 C.2   457  ILE457      0.2287
     51  O         -9.4440   -0.9330   54.1050 O.2   457  ILE457     -0.2864
     52  CB        -9.9700    0.0300   50.9970 C.3   457  ILE457      0.0276
     53  CG1      -10.3030    1.1870   50.0510 C.3   457  ILE457      0.0022
     54  CG2      -11.2330   -0.7030   51.4220 C.3   457  ILE457      0.0022
     55  CD1      -11.0710    0.7600   48.8130 C.3   457  ILE457      0.0001
     56  N         -7.9340    0.7490   56.6400 N.3   460  CYS460     -0.1235
     57  CA        -9.1210    1.1550   57.3850 C.3   460  CYS460      0.1677
     58  C         -9.8550   -0.0390   57.9820 C.2   460  CYS460      0.2270
     59  O        -10.5470    0.1040   58.9960 O.2   460  CYS460     -0.2867
     60  CB       -10.0500    1.9590   56.4780 C.3   460  CYS460      0.0956
     61  SG       -11.4630    2.7090   57.3170 S.3   460  CYS460     -0.0801
     62  N         -9.3980    7.6780   59.5860 N.3   470  PHE470     -0.1241
     63  CA       -10.3980    7.8570   58.5390 C.3   470  PHE470      0.1605
     64  C        -11.7010    8.4070   59.1020 C.2   470  PHE470      0.2264
     65  O        -12.3740    9.2110   58.4450 O.2   470  PHE470     -0.2867
     66  CB       -10.6400    6.5390   57.8070 C.3   470  PHE470      0.0534
     67  CG        -9.7420    6.3350   56.6240 C.ar  470  PHE470     -0.0203
     68  CD1      -10.0820    6.8540   55.3840 C.ar  470  PHE470     -0.0042
     69  CD2       -8.5570    5.6310   56.7510 C.ar  470  PHE470     -0.0042
     70  CE1       -9.2570    6.6700   54.2890 C.ar  470  PHE470     -0.0003
     71  CE2       -7.7250    5.4430   55.6630 C.ar  470  PHE470     -0.0003
     72  CZ        -8.0750    5.9640   54.4300 C.ar  470  PHE470     -0.0000
     73  N        -13.2780   12.1750   57.9470 N.3   474  PHE474     -0.1241
     74  CA       -14.6270   12.2450   57.3960 C.3   474  PHE474      0.1605
     75  C        -15.6640   12.5200   58.4820 C.2   474  PHE474      0.2264
     76  O        -16.7690   11.9740   58.4600 O.2   474  PHE474     -0.2867
     77  CB       -14.9640   10.9600   56.6440 C.3   474  PHE474      0.0534
     78  CG       -14.1000   10.7210   55.4360 C.ar  474  PHE474     -0.0203
     79  CD1      -14.2950   11.4480   54.2730 C.ar  474  PHE474     -0.0042
     80  CD2      -13.0970    9.7660   55.4600 C.ar  474  PHE474     -0.0042
     81  CE1      -13.5040   11.2290   53.1590 C.ar  474  PHE474     -0.0003
     82  CE2      -12.3030    9.5440   54.3500 C.ar  474  PHE474     -0.0003
     83  CZ       -12.5060   10.2760   53.1980 C.ar  474  PHE474     -0.0000
@<TRIPOS>BOND
     1     1     2    1
     2     7     5    1
     3     2     5    1
     4     2     3    1
     5     5     6    1
     6     3     4    2
     7    13    12    1
     8     8     9    1
     9    14    12    1
    10    12     9    1
    11     9    10    1
    12    39    40    1
    13    39    38    1
    14    10    15   am
    15    10    11    2
    16    15    16    1
    17    38    37    1
    18    20    19    1
    19    33    34    1
    20    37    34    1
    21    19    16    1
    22    19    21    1
    23    16    17    1
    24    34    35    1
    25    17    18    2
    26    35    36    2
    27    22    23    1
    28    28    26    1
    29    26    23    1
    30    26    27    1
    31    23    24    1
    32    55    53    1
    33    29    24   am
    34    29    30    1
    35    24    25    2
    36    47    46    1
    37    47    41    1
    38    53    52    1
    39    30    31    1
    40    46    45    1
    41    31    32    2
    42    52    54    1
    43    52    49    1
    44    41    42    1
    45    45    42    1
    46    48    49    1
    47    48    43   am
    48    42    43    1
    49    49    50    1
    50    43    44    2
    51    50    51    2
    52    81    83   ar
    53    81    79   ar
    54    83    82   ar
    55    79    78   ar
    56    70    72   ar
    57    70    68   ar
    58    82    80   ar
    59    72    71   ar
    60    68    67   ar
    61    78    80   ar
    62    78    77    1
    63    71    69   ar
    64    60    61    1
    65    60    57    1
    66    67    69   ar
    67    67    66    1
    68    56    57    1
    69    77    74    1
    70    57    58    1
    71    74    73    1
    72    74    75    1
    73    66    63    1
    74    58    59    2
    75    65    64    2
    76    76    75    2
    77    63    64    1
    78    63    62    1
