@<TRIPOS>MOLECULE
tmp/6hloA07.pdb
 86 79 0 0 0
SMALL
GASTEIGER

@<TRIPOS>ATOM
      1  N          5.2060  -15.2110   59.9490 N.3   193  GLY193     -0.1225
      2  CA         3.8690  -15.6570   60.2850 C.3   193  GLY193      0.1811
      3  C          3.8640  -17.0180   60.9430 C.2   193  GLY193      0.2280
      4  O          3.1090  -17.2520   61.8940 O.2   193  GLY193     -0.2866
      5  N          5.1390  -16.4830   64.5530 N.3   196  LEU196     -0.1231
      6  CA         4.1540  -15.8580   65.4280 C.3   196  LEU196      0.1693
      7  C          3.0140  -16.8150   65.7570 C.2   196  LEU196      0.2591
      8  O          2.5680  -16.8810   66.9090 O.2   196  LEU196     -0.2718
      9  CB         3.6200  -14.5770   64.7880 C.3   196  LEU196      0.0284
     10  CG         4.5940  -13.3980   64.6840 C.3   196  LEU196      0.0019
     11  CD1        3.9330  -12.2310   63.9680 C.3   196  LEU196      0.0001
     12  CD2        5.0950  -12.9680   66.0590 C.3   196  LEU196      0.0001
     13  N          2.5230  -17.5680   64.7670 N.am  197  ARG197     -0.1980
     14  CA         1.4420  -18.5050   65.0510 C.3   197  ARG197      0.1597
     15  C          1.9030  -19.6070   65.9990 C.2   197  ARG197      0.2287
     16  O          1.1470  -20.0410   66.8760 O.2   197  ARG197     -0.2864
     17  CB         0.9110  -19.1020   63.7490 C.3   197  ARG197      0.0334
     18  CG        -0.3050  -19.9900   63.9330 C.3   197  ARG197      0.0492
     19  CD        -1.0290  -20.2350   62.6140 C.3   197  ARG197      0.2205
     20  NE        -0.1030  -20.4520   61.5100 N.pl3 197  ARG197     -0.0865
     21  CZ        -0.0140  -19.6640   60.4450 C.cat 197  ARG197      0.5346
     22  NH1       -0.8080  -18.6100   60.3240 N.pl3 197  ARG197      0.1354
     23  NH2        0.8640  -19.9370   59.4930 N.pl3 197  ARG197      0.1354
     24  N          0.7670  -10.2220   65.2060 N.3   401  ARG401     -0.1245
     25  CA         0.0530  -11.0420   64.2350 C.3   401  ARG401      0.1563
     26  C         -0.9720  -10.2220   63.4680 C.2   401  ARG401      0.2260
     27  O         -1.1570  -10.4330   62.2650 O.2   401  ARG401     -0.2867
     28  CB        -0.6310  -12.2240   64.9290 C.3   401  ARG401      0.0307
     29  CG         0.3120  -13.3350   65.3670 C.3   401  ARG401      0.0489
     30  CD        -0.1600  -14.6900   64.8690 C.3   401  ARG401      0.2205
     31  NE        -1.2600  -15.2430   65.6470 N.pl3 401  ARG401     -0.0865
     32  CZ        -2.0470  -16.2280   65.2260 C.cat 401  ARG401      0.5346
     33  NH1       -1.8670  -16.7560   64.0230 N.pl3 401  ARG401      0.1354
     34  NH2       -3.0220  -16.6810   66.0030 N.pl3 401  ARG401      0.1354
     35  N          1.0030   -8.1040   60.8830 N.3   404  VAL404     -0.1231
     36  CA         1.5420   -8.9520   59.8280 C.3   404  VAL404      0.1692
     37  C          0.4290   -9.4610   58.9180 C.2   404  VAL404      0.2591
     38  O          0.6140   -9.5760   57.6990 O.2   404  VAL404     -0.2718
     39  CB         2.3610  -10.0990   60.4470 C.3   404  VAL404      0.0266
     40  CG1        2.7120  -11.1440   59.3960 C.3   404  VAL404      0.0020
     41  CG2        3.6260   -9.5430   61.0840 C.3   404  VAL404      0.0020
     42  N         -0.7530   -9.7390   59.4790 N.am  405  LYS405     -0.1980
     43  CA        -1.8700  -10.1550   58.6390 C.3   405  LYS405      0.1596
     44  C         -2.2850   -9.0390   57.6890 C.2   405  LYS405      0.2287
     45  O         -2.5750   -9.2860   56.5070 O.2   405  LYS405     -0.2864
     46  CB        -3.0520  -10.5810   59.5090 C.3   405  LYS405      0.0298
     47  CG        -4.3160  -10.8720   58.7170 C.3   405  LYS405      0.0038
     48  CD        -5.5200  -11.0770   59.6170 C.3   405  LYS405      0.0206
     49  CE        -6.7940  -11.2020   58.7970 C.3   405  LYS405      0.1093
     50  NZ        -8.0070  -11.2190   59.6580 N.3   405  LYS405     -0.1314
     51  N          0.2440   -8.8660   54.8880 N.3   408  ILE408     -0.1231
     52  CA         0.0980   -9.9890   53.9680 C.3   408  ILE408      0.1692
     53  C         -1.0750   -9.7550   53.0260 C.2   408  ILE408      0.2591
     54  O         -1.0040  -10.0760   51.8310 O.2   408  ILE408     -0.2718
     55  CB        -0.0620  -11.3080   54.7470 C.3   408  ILE408      0.0266
     56  CG1        1.2470  -11.6920   55.4360 C.3   408  ILE408      0.0019
     57  CG2       -0.5330  -12.4280   53.8250 C.3   408  ILE408      0.0020
     58  CD1        1.0900  -12.7900   56.4620 C.3   408  ILE408      0.0001
     59  N         -2.1710   -9.1880   53.5390 N.am  409  VAL409     -0.1980
     60  CA        -3.2960   -8.8900   52.6560 C.3   409  VAL409      0.1595
     61  C         -2.8780   -7.8680   51.6050 C.2   409  VAL409      0.2287
     62  O         -3.2500   -7.9740   50.4270 O.2   409  VAL409     -0.2864
     63  CB        -4.5100   -8.4060   53.4730 C.3   409  VAL409      0.0276
     64  CG1       -5.6310   -7.9450   52.5470 C.3   409  VAL409      0.0022
     65  CG2       -5.0030   -9.5110   54.3960 C.3   409  VAL409      0.0022
     66  N         -0.6380   -9.7030   48.9550 N.3   412  CYS412     -0.1221
     67  CA        -1.4320  -10.5930   48.1140 C.3   412  CYS412      0.1808
     68  C         -2.2920   -9.8060   47.1370 C.2   412  CYS412      0.2601
     69  O         -2.4510  -10.2070   45.9750 O.2   412  CYS412     -0.2717
     70  CB        -2.3080  -11.5020   48.9790 C.3   412  CYS412      0.0970
     71  SG        -1.4150  -12.7920   49.8870 S.3   412  CYS412     -0.0800
     72  N         -2.8480   -8.6740   47.5830 N.am  413  THR413     -0.1953
     73  CA        -3.6310   -7.8460   46.6750 C.3   413  THR413      0.1897
     74  C         -2.7660   -7.3200   45.5400 C.2   413  THR413      0.2313
     75  O         -3.1910   -7.3050   44.3780 O.2   413  THR413     -0.2863
     76  CB        -4.2690   -6.6910   47.4460 C.3   413  THR413      0.1794
     77  OG1       -5.1330   -7.2130   48.4630 O.3   413  THR413     -0.2208
     78  CG2       -5.0710   -5.8030   46.5120 C.3   413  THR413      0.0378
     79  N         -2.0450  -10.2910   43.0580 N.3   416  ILE416     -0.1245
     80  CA        -3.2150  -10.6010   42.2450 C.3   416  ILE416      0.1561
     81  C         -3.4510   -9.5140   41.2050 C.2   416  ILE416      0.2260
     82  O         -3.7020   -9.8060   40.0300 O.2   416  ILE416     -0.2867
     83  CB        -4.4480  -10.7910   43.1470 C.3   416  ILE416      0.0252
     84  CG1       -4.2840  -12.0330   44.0240 C.3   416  ILE416      0.0019
     85  CG2       -5.7200  -10.8690   42.3130 C.3   416  ILE416      0.0019
     86  CD1       -5.4230  -12.2450   44.9950 C.3   416  ILE416      0.0001
@<TRIPOS>BOND
     1    82    81    2
     2    81    80    1
     3    80    79    1
     4    80    83    1
     5    85    83    1
     6    83    84    1
     7    84    86    1
     8    75    74    2
     9    74    73    1
    10    69    68    2
    11    78    76    1
    12    73    76    1
    13    73    72    1
    14    68    72   am
    15    68    67    1
    16    76    77    1
    17    67    66    1
    18    67    70    1
    19    70    71    1
    20    62    61    2
    21    61    60    1
    22    54    53    2
    23    64    63    1
    24    60    63    1
    25    60    59    1
    26    53    59   am
    27    53    52    1
    28    63    65    1
    29    57    55    1
    30    52    55    1
    31    52    51    1
    32    55    56    1
    33    56    58    1
    34    45    44    2
    35    44    43    1
    36    38    37    2
    37    43    42    1
    38    43    46    1
    39    47    46    1
    40    47    48    1
    41    49    48    1
    42    49    50    1
    43    37    42   am
    44    37    36    1
    45    40    39    1
    46    23    21    1
    47    36    39    1
    48    36    35    1
    49     1     2    1
    50     2     3    1
    51    22    21    1
    52    21    20    2
    53    39    41    1
    54     3     4    2
    55    20    19    1
    56    27    26    2
    57    19    18    1
    58    26    25    1
    59    17    18    1
    60    17    14    1
    61    11    10    1
    62    33    32    1
    63    25    28    1
    64    25    24    1
    65     5     6    1
    66    10     9    1
    67    10    12    1
    68    13    14    1
    69    13     7   am
    70     9     6    1
    71    30    29    1
    72    30    31    1
    73    28    29    1
    74    14    15    1
    75    32    31    2
    76    32    34    1
    77     6     7    1
    78     7     8    2
    79    15    16    2
