@<TRIPOS>MOLECULE
tmp/6hloA09.pdb
 81 78 0 0 0
SMALL
GASTEIGER

@<TRIPOS>ATOM
      1  N         -9.4090    6.4890   39.8970 N.3    16  VAL16      -0.1231
      2  CA        -8.6520    7.7210   40.1180 C.3    16  VAL16       0.1692
      3  C         -9.0820    8.3850   41.4210 C.2    16  VAL16       0.2591
      4  O         -8.2480    8.7260   42.2750 O.2    16  VAL16      -0.2718
      5  CB        -8.8160    8.6810   38.9260 C.3    16  VAL16       0.0266
      6  CG1       -8.0610    9.9780   39.1850 C.3    16  VAL16       0.0020
      7  CG2       -8.3360    8.0340   37.6490 C.3    16  VAL16       0.0020
      8  N        -10.3940    8.5590   41.6030 N.am   17  VAL17      -0.1980
      9  CA       -10.8720    9.3130   42.7570 C.3    17  VAL17       0.1595
     10  C        -10.6170    8.5450   44.0490 C.2    17  VAL17       0.2287
     11  O        -10.1490    9.1230   45.0420 O.2    17  VAL17      -0.2864
     12  CB       -12.3590    9.6870   42.5860 C.3    17  VAL17       0.0276
     13  CG1      -12.5520   10.5180   41.3230 C.3    17  VAL17       0.0022
     14  CG2      -13.2460    8.4520   42.5490 C.3    17  VAL17       0.0022
     15  N         -6.7580    8.6680   44.8620 N.3    20  VAL20      -0.1231
     16  CA        -6.2640    9.9660   45.3110 C.3    20  VAL20       0.1692
     17  C         -6.7840   10.2800   46.7090 C.2    20  VAL20       0.2591
     18  O         -6.0090   10.6290   47.6090 O.2    20  VAL20      -0.2718
     19  CB        -6.6370   11.0700   44.3060 C.3    20  VAL20       0.0266
     20  CG1       -6.2470   12.4360   44.8520 C.3    20  VAL20       0.0020
     21  CG2       -5.9470   10.8190   42.9700 C.3    20  VAL20       0.0020
     22  N         -8.0910   10.1060   46.9320 N.am   21  VAL21      -0.1980
     23  CA        -8.6630   10.4790   48.2230 C.3    21  VAL21       0.1595
     24  C         -8.0980    9.6070   49.3360 C.2    21  VAL21       0.2287
     25  O         -7.6350   10.1150   50.3660 O.2    21  VAL21      -0.2864
     26  CB       -10.1990   10.4040   48.1760 C.3    21  VAL21       0.0276
     27  CG1      -10.7750   10.5410   49.5770 C.3    21  VAL21       0.0022
     28  CG2      -10.7550   11.4890   47.2630 C.3    21  VAL21       0.0022
     29  N         -3.1530    9.5560   39.6980 N.3    56  ALA56      -0.1231
     30  CA        -3.5150   10.9160   39.3260 C.3    56  ALA56       0.1694
     31  C         -2.9450   11.3230   37.9740 C.2    56  ALA56       0.2592
     32  O         -3.5660   12.1250   37.2670 O.2    56  ALA56      -0.2718
     33  CB        -3.0450   11.8970   40.4020 C.3    56  ALA56       0.0304
     34  N         -1.7800   10.7990   37.5950 N.am   57  PHE57      -0.1976
     35  CA        -1.0790   11.3110   36.4270 C.3    57  PHE57       0.1639
     36  C         -0.9770   10.3310   35.2660 C.2    57  PHE57       0.2290
     37  O         -0.3830   10.6840   34.2420 O.2    57  PHE57      -0.2864
     38  CB         0.3230   11.7780   36.8330 C.3    57  PHE57       0.0560
     39  CG         0.3120   12.8590   37.8730 C.ar   57  PHE57      -0.0200
     40  CD1       -0.6040   13.8960   37.7960 C.ar   57  PHE57      -0.0042
     41  CD2        1.1970   12.8270   38.9390 C.ar   57  PHE57      -0.0042
     42  CE1       -0.6280   14.8930   38.7520 C.ar   57  PHE57      -0.0003
     43  CE2        1.1780   13.8200   39.9020 C.ar   57  PHE57      -0.0003
     44  CZ         0.2630   14.8540   39.8080 C.ar   57  PHE57      -0.0000
     45  N         -5.8730    8.4880   33.2380 N.3    60  VAL60      -0.1231
     46  CA        -6.8020    9.0580   32.2680 C.3    60  VAL60       0.1692
     47  C         -6.2650    8.8950   30.8510 C.2    60  VAL60       0.2591
     48  O         -6.9790    8.4460   29.9460 O.2    60  VAL60      -0.2718
     49  CB        -7.0850   10.5350   32.5970 C.3    60  VAL60       0.0266
     50  CG1       -7.8770   11.1840   31.4740 C.3    60  VAL60       0.0020
     51  CG2       -7.8360   10.6480   33.9190 C.3    60  VAL60       0.0020
     52  N         -5.0010    9.2640   30.6340 N.am   61  VAL61      -0.1980
     53  CA        -4.4420    9.1180   29.2980 C.3    61  VAL61       0.1595
     54  C         -4.2320    7.6520   28.9490 C.2    61  VAL61       0.2287
     55  O         -4.3600    7.2730   27.7800 O.2    61  VAL61      -0.2864
     56  CB        -3.1470    9.9350   29.1550 C.3    61  VAL61       0.0276
     57  CG1       -2.5900    9.8010   27.7420 C.3    61  VAL61       0.0022
     58  CG2       -3.4290   11.3930   29.4620 C.3    61  VAL61       0.0022
     59  N          4.8480   14.2320   27.5000 N.3    77  TYR77      -0.1241
     60  CA         3.9050   13.3600   28.1780 C.3    77  TYR77       0.1605
     61  C          3.9990   11.9310   27.6670 C.2    77  TYR77       0.2264
     62  O          3.7130   10.9990   28.4170 O.2    77  TYR77      -0.2867
     63  CB         2.4740   13.8690   28.0500 C.3    77  TYR77       0.0534
     64  CG         1.5690   13.1410   29.0110 C.ar   77  TYR77      -0.0201
     65  CD1        1.5440   13.4800   30.3560 C.ar   77  TYR77      -0.0009
     66  CD2        0.7780   12.0840   28.5880 C.ar   77  TYR77      -0.0009
     67  CE1        0.7370   12.8080   31.2480 C.ar   77  TYR77       0.0417
     68  CE2       -0.0290   11.4040   29.4730 C.ar   77  TYR77       0.0417
     69  CZ        -0.0500   11.7710   30.8010 C.ar   77  TYR77       0.1957
     70  OH        -0.8600   11.0960   31.6870 O.3    77  TYR77      -0.2866
     71  N        -13.2780   12.1750   57.9470 N.3   474  PHE474     -0.1241
     72  CA       -14.6270   12.2450   57.3960 C.3   474  PHE474      0.1605
     73  C        -15.6640   12.5200   58.4820 C.2   474  PHE474      0.2264
     74  O        -16.7690   11.9740   58.4600 O.2   474  PHE474     -0.2867
     75  CB       -14.9640   10.9600   56.6440 C.3   474  PHE474      0.0534
     76  CG       -14.1000   10.7210   55.4360 C.ar  474  PHE474     -0.0203
     77  CD1      -14.2950   11.4480   54.2730 C.ar  474  PHE474     -0.0042
     78  CD2      -13.0970    9.7660   55.4600 C.ar  474  PHE474     -0.0042
     79  CE1      -13.5040   11.2290   53.1590 C.ar  474  PHE474     -0.0003
     80  CE2      -12.3030    9.5440   54.3500 C.ar  474  PHE474     -0.0003
     81  CZ       -12.5060   10.2760   53.1980 C.ar  474  PHE474     -0.0000
@<TRIPOS>BOND
     1    59    60    1
     2    61    60    1
     3    61    62    2
     4    57    56    1
     5    55    54    2
     6    63    60    1
     7    63    64    1
     8    66    64   ar
     9    66    68   ar
    10    54    53    1
    11    64    65   ar
    12    56    53    1
    13    56    58    1
    14    53    52    1
    15    68    69   ar
    16    48    47    2
    17    65    67   ar
    18    52    47   am
    19    69    67   ar
    20    69    70    1
    21    47    46    1
    22    50    49    1
    23    46    49    1
    24    46    45    1
    25    49    51    1
    26    37    36    2
    27    36    35    1
    28    35    38    1
    29    35    34    1
    30    38    39    1
    31    32    31    2
    32    34    31   am
    33     7     5    1
    34    40    39   ar
    35    40    42   ar
    36    39    41   ar
    37    31    30    1
    38    42    44   ar
    39     5     6    1
    40     5     2    1
    41    41    43   ar
    42    30    29    1
    43    30    33    1
    44    44    43   ar
    45     1     2    1
    46     2     3    1
    47    13    12    1
    48     3     8   am
    49     3     4    2
    50     8     9    1
    51    14    12    1
    52    12     9    1
    53     9    10    1
    54    21    19    1
    55    10    11    2
    56    19    20    1
    57    19    16    1
    58    15    16    1
    59    16    17    1
    60    17    22   am
    61    17    18    2
    62    22    23    1
    63    28    26    1
    64    26    23    1
    65    26    27    1
    66    23    24    1
    67    24    25    2
    68    79    81   ar
    69    79    77   ar
    70    81    80   ar
    71    77    76   ar
    72    80    78   ar
    73    76    78   ar
    74    76    75    1
    75    75    72    1
    76    72    71    1
    77    72    73    1
    78    74    73    2
