@<TRIPOS>MOLECULE
tmp/6hloA10.pdb
 240 233 0 0 0
SMALL
GASTEIGER

@<TRIPOS>ATOM
      1  N          0.6640    7.8760   40.6130 N.3    54  MET54      -0.1245
      2  CA         0.4190    7.1320   39.3820 C.3    54  MET54       0.1570
      3  C         -1.0470    7.2140   38.9790 C.2    54  MET54       0.2261
      4  O         -1.3640    7.4610   37.8070 O.2    54  MET54      -0.2867
      5  CB         0.8480    5.6720   39.5270 C.3    54  MET54       0.0387
      6  CG         0.9520    4.9630   38.1800 C.3    54  MET54       0.0595
      7  SD         1.3280    3.2040   38.2710 S.3    54  MET54      -0.1393
      8  CE        -0.3060    2.5190   38.5250 C.3    54  MET54       0.0692
      9  N         -1.5350    9.1230   35.3700 N.3    58  ASN58      -0.1240
     10  CA        -1.4020    8.2240   34.2310 C.3    58  ASN58       0.1653
     11  C         -2.7200    7.6040   33.7840 C.2    58  ASN58       0.2266
     12  O         -2.8650    7.2500   32.6080 O.2    58  ASN58      -0.2867
     13  CB        -0.3960    7.1170   34.5560 C.3    58  ASN58       0.1155
     14  CG         1.0090    7.6500   34.7520 C.2    58  ASN58       0.2627
     15  OD1        1.4420    7.8800   35.8800 O.2    58  ASN58      -0.2716
     16  ND2        1.7260    7.8560   33.6500 N.am   58  ASN58      -0.0877
     17  N         -3.9510    6.7900   29.9330 N.3    62  ASN62      -0.1240
     18  CA        -3.8660    5.3680   29.6190 C.3    62  ASN62       0.1653
     19  C         -5.1970    4.8620   29.0850 C.2    62  ASN62       0.2266
     20  O         -5.2420    4.1720   28.0570 O.2    62  ASN62      -0.2867
     21  CB        -3.4450    4.5710   30.8550 C.3    62  ASN62       0.1155
     22  CG        -1.9660    4.7060   31.1630 C.2    62  ASN62       0.2627
     23  OD1       -1.2590    5.4990   30.5420 O.2    62  ASN62      -0.2716
     24  ND2       -1.4930    3.9340   32.1330 N.am   62  ASN62      -0.0877
     25  N          4.5140    9.1030   30.3020 N.3    81  HIS81      -0.1226
     26  CA         3.5350    8.0290   30.2830 C.3    81  HIS81       0.1752
     27  C          4.2080    6.6680   30.1940 C.2    81  HIS81       0.2596
     28  O          3.7090    5.6920   30.7650 O.2    81  HIS81      -0.2718
     29  CB         2.5720    8.3040   29.1180 C.3    81  HIS81       0.0759
     30  CG         2.0190    7.0870   28.4440 C.ar   81  HIS81       0.0818
     31  ND1        0.7790    6.5670   28.7490 N.ar   81  HIS81      -0.2268
     32  CD2        2.5050    6.3310   27.4310 C.ar   81  HIS81       0.1154
     33  CE1        0.5380    5.5230   27.9740 C.ar   81  HIS81       0.1986
     34  NE2        1.5700    5.3600   27.1650 N.ar   81  HIS81      -0.2212
     35  N          5.3530    6.5840   29.5140 N.am   82  ASN82      -0.1974
     36  CA         6.0960    5.3260   29.5300 C.3    82  ASN82       0.1688
     37  C          7.0880    5.2010   30.6850 C.2    82  ASN82       0.2292
     38  O          7.5830    4.0980   30.9370 O.2    82  ASN82      -0.2864
     39  CB         6.8310    5.1280   28.2040 C.3    82  ASN82       0.1181
     40  CG         5.8940    4.7330   27.0890 C.2    82  ASN82       0.2629
     41  OD1        4.8790    4.0800   27.3250 O.2    82  ASN82      -0.2716
     42  ND2        6.2180    5.1370   25.8690 N.am   82  ASN82      -0.0877
     43  N          5.1140    5.0450   35.5380 N.3    85  PRO85      -0.2102
     44  CA         4.5450    3.8660   36.2180 C.3    85  PRO85       0.1504
     45  C          5.5950    2.8750   36.6900 C.2    85  PRO85       0.2575
     46  O          5.4390    2.2910   37.7700 O.2    85  PRO85      -0.2718
     47  CB         3.6370    3.2470   35.1420 C.3    85  PRO85       0.0282
     48  CG         3.2980    4.3720   34.2390 C.3    85  PRO85       0.0208
     49  CD         4.5200    5.2410   34.2040 C.3    85  PRO85       0.0893
     50  N          6.6850    2.7090   35.9440 N.am   86  ILE86      -0.1980
     51  CA         7.7380    1.7940   36.3690 C.3    86  ILE86       0.1595
     52  C          8.3910    2.2970   37.6530 C.2    86  ILE86       0.2287
     53  O          8.5480    1.5460   38.6240 O.2    86  ILE86      -0.2864
     54  CB         8.7640    1.6000   35.2360 C.3    86  ILE86       0.0276
     55  CG1        8.1590    0.7380   34.1220 C.3    86  ILE86       0.0022
     56  CG2       10.0450    0.9810   35.7590 C.3    86  ILE86       0.0022
     57  CD1        9.0150    0.6270   32.8790 C.3    86  ILE86       0.0001
     58  N          5.7060    2.0490   40.6740 N.3    89  ILE89      -0.1245
     59  CA         5.4990    0.6920   41.1600 C.3    89  ILE89       0.1561
     60  C          6.7590    0.1660   41.8370 C.2    89  ILE89       0.2260
     61  O          6.6810   -0.5300   42.8580 O.2    89  ILE89      -0.2867
     62  CB         5.0450   -0.2220   40.0080 C.3    89  ILE89       0.0252
     63  CG1        3.6990    0.2590   39.4580 C.3    89  ILE89       0.0019
     64  CG2        4.9550   -1.6720   40.4690 C.3    89  ILE89       0.0019
     65  CD1        2.6650    0.5530   40.5320 C.3    89  ILE89       0.0001
     66  N         13.1760    3.3020   29.3600 N.3   138  GLN138     -0.1245
     67  CA        11.8760    3.2410   28.7010 C.3   138  GLN138      0.1566
     68  C         11.3510    4.6320   28.3610 C.2   138  GLN138      0.2260
     69  O         10.7030    4.8230   27.3250 O.2   138  GLN138     -0.2867
     70  CB        10.8840    2.4900   29.5890 C.3   138  GLN138      0.0367
     71  CG         9.5110    2.3190   28.9860 C.3   138  GLN138      0.0905
     72  CD         8.8670    1.0150   29.4000 C.2   138  GLN138      0.2608
     73  OE1        9.5530    0.0280   29.6570 O.2   138  GLN138     -0.2717
     74  NE2        7.5440    1.0030   29.4690 N.am  138  GLN138     -0.0878
     75  N          7.8770    3.1670   21.9930 N.3   155  ILE155     -0.1245
     76  CA         9.2340    2.9900   22.5000 C.3   155  ILE155      0.1561
     77  C         10.1090    2.4910   21.3570 C.2   155  ILE155      0.2260
     78  O          9.8650    1.4130   20.8030 O.2   155  ILE155     -0.2867
     79  CB         9.2600    2.0130   23.6840 C.3   155  ILE155      0.0252
     80  CG1        8.1960    2.3980   24.7130 C.3   155  ILE155      0.0019
     81  CG2       10.6410    1.9930   24.3260 C.3   155  ILE155      0.0019
     82  CD1        8.0530    1.4020   25.8390 C.3   155  ILE155      0.0001
     83  N         13.7320    1.5210   20.6170 N.3   157  TRP157     -0.1241
     84  CA        15.0990    1.1580   20.9440 C.3   157  TRP157      0.1605
     85  C         15.9690    1.2160   19.6900 C.2   157  TRP157      0.2264
     86  O         15.4680    1.0550   18.5730 O.2   157  TRP157     -0.2867
     87  CB        15.1460   -0.2400   21.5500 C.3   157  TRP157      0.0550
     88  CG        14.6580   -0.2690   22.9560 C.ar  157  TRP157      0.0003
     89  CD1       13.3680   -0.1260   23.3800 C.ar  157  TRP157      0.0946
     90  CD2       15.4520   -0.4390   24.1340 C.ar  157  TRP157      0.0152
     91  NE1       13.3100   -0.2020   24.7490 N.ar  157  TRP157     -0.2442
     92  CE2       14.5760   -0.3950   25.2370 C.ar  157  TRP157      0.0810
     93  CE3       16.8180   -0.6310   24.3640 C.ar  157  TRP157      0.0012
     94  CZ2       15.0210   -0.5340   26.5480 C.ar  157  TRP157      0.0191
     95  CZ3       17.2580   -0.7700   25.6680 C.ar  157  TRP157      0.0001
     96  CH2       16.3620   -0.7200   26.7430 C.ar  157  TRP157      0.0015
     97  N         16.1630   -4.5170   24.2620 N.3   166  GLU166     -0.1245
     98  CA        14.8310   -4.1490   24.7280 C.3   166  GLU166      0.1567
     99  C         14.1590   -5.3120   25.4470 C.2   166  GLU166      0.2260
    100  O         13.4980   -5.1230   26.4770 O.2   166  GLU166     -0.2867
    101  CB        13.9890   -3.6840   23.5390 C.3   166  GLU166      0.0388
    102  CG        12.5180   -3.5110   23.8340 C.3   166  GLU166      0.1160
    103  CD        11.7560   -2.9550   22.6540 C.2   166  GLU166      0.3649
    104  OE1       10.5820   -2.5680   22.8370 O.co2 166  GLU166     -0.2457
    105  OE2       12.3310   -2.9010   21.5430 O.co2 166  GLU166     -0.2457
    106  N         15.7580   -5.7990   28.8350 N.3   169  TYR169     -0.1227
    107  CA        15.3360   -4.7170   29.7170 C.3   169  TYR169      0.1736
    108  C         13.9310   -4.9570   30.2480 C.2   169  TYR169      0.2595
    109  O         13.6670   -4.7690   31.4450 O.2   169  TYR169     -0.2718
    110  CB        15.4040   -3.3820   28.9770 C.3   169  TYR169      0.0548
    111  CG        14.7510   -2.2460   29.7280 C.ar  169  TYR169     -0.0200
    112  CD1       13.4760   -1.8040   29.3910 C.ar  169  TYR169     -0.0009
    113  CD2       15.4030   -1.6230   30.7840 C.ar  169  TYR169     -0.0009
    114  CE1       12.8760   -0.7670   30.0820 C.ar  169  TYR169      0.0417
    115  CE2       14.8120   -0.5880   31.4780 C.ar  169  TYR169      0.0417
    116  CZ        13.5490   -0.1630   31.1230 C.ar  169  TYR169      0.1957
    117  OH        12.9600    0.8700   31.8150 O.3   169  TYR169     -0.2866
    118  N         13.0190   -5.3940   29.3750 N.am  170  HIS170     -0.1975
    119  CA        11.6560   -5.6570   29.8200 C.3   170  HIS170      0.1656
    120  C         11.6140   -6.8050   30.8230 C.2   170  HIS170      0.2291
    121  O         10.9150   -6.7230   31.8450 O.2   170  HIS170     -0.2864
    122  CB        10.7670   -5.9570   28.6140 C.3   170  HIS170      0.0771
    123  CG         9.3700   -6.3510   28.9770 C.ar  170  HIS170      0.0820
    124  ND1        8.6320   -7.2430   28.2310 N.ar  170  HIS170     -0.2267
    125  CD2        8.5750   -5.9730   30.0060 C.ar  170  HIS170      0.1154
    126  CE1        7.4430   -7.4010   28.7850 C.ar  170  HIS170      0.1986
    127  NE2        7.3830   -6.6410   29.8640 N.ar  170  HIS170     -0.2212
    128  N         12.9170   -5.5370   34.1940 N.3   173  VAL173     -0.1231
    129  CA        11.9730   -4.6880   34.9150 C.3   173  VAL173      0.1692
    130  C         10.8620   -5.5320   35.5230 C.2   173  VAL173      0.2592
    131  O         10.4740   -5.3330   36.6840 O.2   173  VAL173     -0.2718
    132  CB        11.4100   -3.5910   33.9940 C.3   173  VAL173      0.0266
    133  CG1       10.3080   -2.8190   34.7080 C.3   173  VAL173      0.0020
    134  CG2       12.5170   -2.6480   33.5540 C.3   173  VAL173      0.0020
    135  N         10.3550   -6.5110   34.7640 N.am  174  THR174     -0.1953
    136  CA         9.2970   -7.3620   35.2950 C.3   174  THR174      0.1897
    137  C          9.7750   -8.1620   36.5000 C.2   174  THR174      0.2313
    138  O          9.0090   -8.3770   37.4470 O.2   174  THR174     -0.2863
    139  CB         8.7750   -8.2970   34.2030 C.3   174  THR174      0.1794
    140  OG1        8.2510   -7.5190   33.1220 O.3   174  THR174     -0.2208
    141  CG2        7.6730   -9.1930   34.7450 C.3   174  THR174      0.0378
    142  N         10.3100   -5.4720   39.6290 N.3   177  ILE177     -0.1245
    143  CA         9.1230   -4.8580   40.2150 C.3   177  ILE177      0.1561
    144  C          8.0140   -5.8600   40.4880 C.2   177  ILE177      0.2260
    145  O          6.9450   -5.4660   40.9750 O.2   177  ILE177     -0.2867
    146  CB         8.5860   -3.7030   39.3440 C.3   177  ILE177      0.0252
    147  CG1        7.8960   -4.2410   38.0920 C.3   177  ILE177      0.0019
    148  CG2        9.7100   -2.7360   38.9870 C.3   177  ILE177      0.0019
    149  CD1        7.2270   -3.1550   37.2590 C.3   177  ILE177      0.0001
    150  N         -1.3940   -7.4450   39.7900 N.3   418  TRP418     -0.1241
    151  CA        -0.4030   -7.2680   38.7370 C.3   418  TRP418      0.1605
    152  C         -0.0850   -8.5290   37.9410 C.2   418  TRP418      0.2264
    153  O          0.5190   -8.4110   36.8680 O.2   418  TRP418     -0.2867
    154  CB         0.8890   -6.6800   39.3160 C.3   418  TRP418      0.0550
    155  CG         0.7300   -5.2330   39.6420 C.ar  418  TRP418      0.0003
    156  CD1        0.5170   -4.6880   40.8740 C.ar  418  TRP418      0.0946
    157  CD2        0.7300   -4.1400   38.7130 C.ar  418  TRP418      0.0152
    158  NE1        0.4010   -3.3220   40.7730 N.ar  418  TRP418     -0.2442
    159  CE2        0.5280   -2.9600   39.4570 C.ar  418  TRP418      0.0810
    160  CE3        0.8910   -4.0450   37.3260 C.ar  418  TRP418      0.0012
    161  CZ2        0.4790   -1.6990   38.8630 C.ar  418  TRP418      0.0191
    162  CZ3        0.8450   -2.7900   36.7340 C.ar  418  TRP418      0.0001
    163  CH2        0.6380   -1.6340   37.5040 C.ar  418  TRP418      0.0015
    164  N         -1.3490   -8.4790   34.2070 N.3   421  PHE421     -0.1227
    165  CA        -0.6820   -7.4490   33.4130 C.3   421  PHE421      0.1736
    166  C          0.6670   -7.9390   32.8930 C.2   421  PHE421      0.2595
    167  O          0.9610   -7.8650   31.6870 O.2   421  PHE421     -0.2718
    168  CB        -0.5290   -6.2010   34.2890 C.3   421  PHE421      0.0547
    169  CG         0.0630   -5.0090   33.5980 C.ar  421  PHE421     -0.0202
    170  CD1        1.4280   -4.7770   33.6400 C.ar  421  PHE421     -0.0042
    171  CD2       -0.7500   -4.0850   32.9600 C.ar  421  PHE421     -0.0042
    172  CE1        1.9790   -3.6600   33.0350 C.ar  421  PHE421     -0.0003
    173  CE2       -0.2070   -2.9640   32.3520 C.ar  421  PHE421     -0.0003
    174  CZ         1.1610   -2.7520   32.3900 C.ar  421  PHE421     -0.0000
    175  N          1.4940   -8.4720   33.7940 N.am  422  HIS422     -0.1975
    176  CA         2.7840   -9.0060   33.3820 C.3   422  HIS422      0.1656
    177  C          2.6310  -10.2410   32.5060 C.2   422  HIS422      0.2291
    178  O          3.4400  -10.4500   31.5960 O.2   422  HIS422     -0.2864
    179  CB         3.6330   -9.3050   34.6140 C.3   422  HIS422      0.0771
    180  CG         4.0490   -8.0780   35.3630 C.ar  422  HIS422      0.0820
    181  ND1        4.8880   -7.1280   34.8210 N.ar  422  HIS422     -0.2267
    182  CD2        3.7340   -7.6370   36.6040 C.ar  422  HIS422      0.1154
    183  CE1        5.0800   -6.1600   35.6990 C.ar  422  HIS422      0.1986
    184  NE2        4.3900   -6.4440   36.7890 N.ar  422  HIS422     -0.2212
    185  N          1.9620   -8.9370   29.0180 N.3   425  PHE425     -0.1241
    186  CA         3.1180   -8.4180   28.2970 C.3   425  PHE425      0.1605
    187  C          4.2320   -9.4410   28.0990 C.2   425  PHE425      0.2264
    188  O          5.1210   -9.2040   27.2730 O.2   425  PHE425     -0.2867
    189  CB         3.6560   -7.1660   28.9900 C.3   425  PHE425      0.0534
    190  CG         2.8990   -5.9240   28.6260 C.ar  425  PHE425     -0.0203
    191  CD1        3.1180   -5.3000   27.4060 C.ar  425  PHE425     -0.0042
    192  CD2        1.9440   -5.3990   29.4810 C.ar  425  PHE425     -0.0042
    193  CE1        2.4130   -4.1630   27.0550 C.ar  425  PHE425     -0.0003
    194  CE2        1.2350   -4.2590   29.1380 C.ar  425  PHE425     -0.0003
    195  CZ         1.4690   -3.6420   27.9200 C.ar  425  PHE425     -0.0000
    196  N          6.5320  -13.4010   24.1030 N.3   429  TYR429     -0.1241
    197  CA         7.8290  -14.0710   24.0890 C.3   429  TYR429      0.1605
    198  C          7.6980  -15.5870   23.9670 C.2   429  TYR429      0.2264
    199  O          8.6150  -16.2410   23.4570 O.2   429  TYR429     -0.2867
    200  CB         8.6240  -13.7110   25.3460 C.3   429  TYR429      0.0534
    201  CG         8.9330  -12.2360   25.4820 C.ar  429  TYR429     -0.0201
    202  CD1        9.0560  -11.4230   24.3610 C.ar  429  TYR429     -0.0009
    203  CD2        9.0960  -11.6550   26.7330 C.ar  429  TYR429     -0.0009
    204  CE1        9.3350  -10.0740   24.4850 C.ar  429  TYR429      0.0417
    205  CE2        9.3760  -10.3080   26.8660 C.ar  429  TYR429      0.0417
    206  CZ         9.4940   -9.5220   25.7410 C.ar  429  TYR429      0.1957
    207  OH         9.7710   -8.1790   25.8690 O.3   429  TYR429     -0.2866
    208  N         -7.5900   -6.0470   27.1780 N.3   441  TYR441     -0.1241
    209  CA        -6.5810   -5.1200   27.6760 C.3   441  TYR441      0.1605
    210  C         -7.1830   -4.1010   28.6310 C.2   441  TYR441      0.2264
    211  O         -6.5520   -3.7300   29.6270 O.2   441  TYR441     -0.2867
    212  CB        -5.8890   -4.4090   26.5160 C.3   441  TYR441      0.0534
    213  CG        -4.7800   -3.5010   26.9840 C.ar  441  TYR441     -0.0201
    214  CD1       -4.9270   -2.1210   26.9690 C.ar  441  TYR441     -0.0009
    215  CD2       -3.5920   -4.0280   27.4690 C.ar  441  TYR441     -0.0009
    216  CE1       -3.9110   -1.2920   27.4070 C.ar  441  TYR441      0.0417
    217  CE2       -2.5740   -3.2100   27.9080 C.ar  441  TYR441      0.0417
    218  CZ        -2.7380   -1.8450   27.8750 C.ar  441  TYR441      0.1957
    219  OH        -1.7170   -1.0360   28.3110 O.3   441  TYR441     -0.2866
    220  N         -5.7380   -3.8600   32.2930 N.3   445  MET445     -0.1245
    221  CA        -5.2000   -2.5770   32.7280 C.3   445  MET445      0.1570
    222  C         -5.9920   -2.0130   33.8990 C.2   445  MET445      0.2261
    223  O         -5.4100   -1.4300   34.8230 O.2   445  MET445     -0.2867
    224  CB        -5.1800   -1.5860   31.5640 C.3   445  MET445      0.0387
    225  CG        -4.9770   -0.1400   31.9870 C.3   445  MET445      0.0595
    226  SD        -4.3860    0.9090   30.6490 S.3   445  MET445     -0.1393
    227  CE        -2.6320    0.5950   30.7550 C.3   445  MET445      0.0692
    228  N         -4.8480   -3.8410   37.0960 N.3   448  ALA448     -0.1231
    229  CA        -3.5120   -3.4630   37.5380 C.3   448  ALA448      0.1694
    230  C         -3.5200   -2.0900   38.2010 C.2   448  ALA448      0.2591
    231  O         -2.9610   -1.9060   39.2880 O.2   448  ALA448     -0.2718
    232  CB        -2.5530   -3.4840   36.3490 C.3   448  ALA448      0.0304
    233  N         -4.1580   -1.1100   37.5610 N.am  449  MET449     -0.1979
    234  CA        -4.2120    0.2320   38.1280 C.3   449  MET449      0.1605
    235  C         -5.1420    0.3200   39.3300 C.2   449  MET449      0.2287
    236  O         -4.9760    1.2220   40.1590 O.2   449  MET449     -0.2864
    237  CB        -4.6310    1.2370   37.0530 C.3   449  MET449      0.0413
    238  CG        -3.7610    1.1730   35.8040 C.3   449  MET449      0.0598
    239  SD        -3.7190    2.7190   34.8810 S.3   449  MET449     -0.1393
    240  CE        -2.8470    3.7730   36.0380 C.3   449  MET449      0.0692
@<TRIPOS>BOND
     1    86    85    2
     2    85    84    1
     3    83    84    1
     4    78    77    2
     5    84    87    1
     6    77    76    1
     7   105   103   ar
     8    87    88    1
     9    75    76    1
    10    76    79    1
    11   103   104   ar
    12   103   102    1
    13    88    89   ar
    14    88    90   ar
    15    89    91   ar
    16   199   198    2
    17   101   102    1
    18   101    98    1
    19    79    81    1
    20    79    80    1
    21   198   197    1
    22   197   196    1
    23   197   200    1
    24    90    93   ar
    25    90    92   ar
    26    97    98    1
    27   202   204   ar
    28   202   201   ar
    29    93    95   ar
    30   204   206   ar
    31    80    82    1
    32    98    99    1
    33    91    92   ar
    34    92    94   ar
    35   200   201    1
    36    99   100    2
    37   201   203   ar
    38    95    96   ar
    39   206   207    1
    40   206   205   ar
    41    42    40   am
    42   212   213    1
    43   212   209    1
    44    94    96   ar
    45   203   205   ar
    46   214   213   ar
    47   214   216   ar
    48   213   215   ar
    49   193   191   ar
    50   193   195   ar
    51    40    41    2
    52    40    39    1
    53    34    32   ar
    54    34    33   ar
    55   208   209    1
    56   188   187    2
    57    69    68    2
    58   191   190   ar
    59   216   218   ar
    60    32    30   ar
    61   215   217   ar
    62   209   210    1
    63   218   217   ar
    64   218   219    1
    65   195   194   ar
    66    33    31   ar
    67    20    19    2
    68   187   186    1
    69    39    36    1
    70   124   126   ar
    71   124   123   ar
    72   186   189    1
    73   186   185    1
    74    68    67    1
    75    30    31   ar
    76    30    29    1
    77   122   123    1
    78   122   119    1
    79   190   189    1
    80   190   192   ar
    81   210   211    2
    82    67    66    1
    83    67    70    1
    84   126   127   ar
    85   106   107    1
    86   110   107    1
    87   110   111    1
    88   123   125   ar
    89    71    72    1
    90    71    70    1
    91    19    18    1
    92    29    26    1
    93   194   192   ar
    94   118   119    1
    95   118   108   am
    96   112   111   ar
    97   112   114   ar
    98    72    74   am
    99    72    73    2
   100    35    36    1
   101    35    27   am
   102    36    37    1
   103    18    17    1
   104    18    21    1
   105   107   108    1
   106   111   113   ar
   107   119   120    1
   108   127   125   ar
   109   114   116   ar
   110    27    26    1
   111    27    28    2
   112   108   109    2
   113    26    25    1
   114    23    22    2
   115   226   227    1
   116   226   225    1
   117    37    38    2
   118   113   115   ar
   119   120   121    2
   120    21    22    1
   121   116   115   ar
   122   116   117    1
   123    22    24   am
   124   224   225    1
   125   224   221    1
   126   178   177    2
   127   167   166    2
   128   220   221    1
   129   173   174   ar
   130   173   171   ar
   131   174   172   ar
   132   177   176    1
   133    12    11    2
   134   221   222    1
   135    57    55    1
   136   166   165    1
   137   166   175   am
   138   171   169   ar
   139   172   170   ar
   140   140   139    1
   141   176   175    1
   142   176   179    1
   143   165   164    1
   144   165   168    1
   145   134   132    1
   146   169   170   ar
   147   169   168    1
   148    16    14   am
   149    11    10    1
   150   222   223    2
   151   132   133    1
   152   132   129    1
   153    55    54    1
   154   128   129    1
   155   139   141    1
   156   139   136    1
   157    49    48    1
   158    49    43    1
   159    10    13    1
   160    10     9    1
   161    48    47    1
   162    13    14    1
   163   179   180    1
   164    14    15    2
   165   135   136    1
   166   135   130   am
   167   181   180   ar
   168   181   183   ar
   169   239   238    1
   170   239   240    1
   171   129   130    1
   172    47    44    1
   173    54    56    1
   174    54    51    1
   175   136   137    1
   176   180   182   ar
   177   130   131    2
   178    43    44    1
   179   183   184   ar
   180   238   237    1
   181    50    51    1
   182    50    45   am
   183    44    45    1
   184   232   229    1
   185    51    52    1
   186   137   138    2
   187   182   184   ar
   188    45    46    2
   189   162   160   ar
   190   162   163   ar
   191   153   152    2
   192   237   234    1
   193   228   229    1
   194   149   147    1
   195   160   157   ar
   196   163   161   ar
   197   229   230    1
   198   233   234    1
   199   233   230   am
   200    52    53    2
   201     4     3    2
   202   152   151    1
   203   147   146    1
   204   234   235    1
   205     6     7    1
   206     6     5    1
   207   230   231    2
   208     7     8    1
   209   157   159   ar
   210   157   155   ar
   211   151   154    1
   212   151   150    1
   213   161   159   ar
   214     3     2    1
   215   148   146    1
   216   154   155    1
   217   235   236    2
   218   146   143    1
   219     2     5    1
   220     2     1    1
   221   159   158   ar
   222    63    62    1
   223    63    65    1
   224   142   143    1
   225   155   156   ar
   226    62    64    1
   227    62    59    1
   228   143   144    1
   229   144   145    2
   230    58    59    1
   231   158   156   ar
   232    59    60    1
   233    60    61    2
