@<TRIPOS>MOLECULE
tmp/6hloA04.pdb
 94 90 0 0 0
SMALL
GASTEIGER

@<TRIPOS>ATOM
      1  N          1.3390   11.5620   58.6730 N.3    31  LEU31      -0.1245
      2  CA         2.2370   12.7030   58.8210 C.3    31  LEU31       0.1561
      3  C          1.7570   13.7130   59.8560 C.2    31  LEU31       0.2260
      4  O          2.5840   14.3370   60.5300 O.2    31  LEU31      -0.2867
      5  CB         2.4300   13.3970   57.4690 C.3    31  LEU31       0.0270
      6  CG         3.1420   12.5920   56.3760 C.3    31  LEU31       0.0019
      7  CD1        3.1720   13.3690   55.0720 C.3    31  LEU31       0.0001
      8  CD2        4.5530   12.2190   56.8090 C.3    31  LEU31       0.0001
      9  N          4.2890    8.5010   63.3420 N.3    37  ARG37      -0.1245
     10  CA         5.5500    8.6520   62.6130 C.3    37  ARG37       0.1563
     11  C          6.5130    7.5590   63.0580 C.2    37  ARG37       0.2260
     12  O          7.3190    7.7370   63.9730 O.2    37  ARG37      -0.2867
     13  CB         6.1360   10.0410   62.8240 C.3    37  ARG37       0.0307
     14  CG         5.2130   11.1610   62.3910 C.3    37  ARG37       0.0489
     15  CD         5.9800   12.4510   62.1790 C.3    37  ARG37       0.2205
     16  NE         5.0850   13.5980   62.0670 N.pl3  37  ARG37      -0.0865
     17  CZ         4.9390   14.5210   63.0110 C.cat  37  ARG37       0.5346
     18  NH1        5.6430   14.4370   64.1320 N.pl3  37  ARG37       0.1354
     19  NH2        4.1010   15.5320   62.8310 N.pl3  37  ARG37       0.1354
     20  N          6.4700    5.4290   57.6360 N.3    42  TYR42      -0.1241
     21  CA         7.1490    6.2460   56.6340 C.3    42  TYR42       0.1605
     22  C          7.2310    5.5120   55.3050 C.2    42  TYR42       0.2264
     23  O          6.9740    6.1000   54.2420 O.2    42  TYR42      -0.2867
     24  CB         8.5460    6.6400   57.1080 C.3    42  TYR42       0.0534
     25  CG         8.5760    7.8750   57.9760 C.ar   42  TYR42      -0.0201
     26  CD1        7.4020    8.4670   58.4230 C.ar   42  TYR42      -0.0009
     27  CD2        9.7800    8.4570   58.3400 C.ar   42  TYR42      -0.0009
     28  CE1        7.4310    9.5990   59.2170 C.ar   42  TYR42       0.0417
     29  CE2        9.8190    9.5870   59.1300 C.ar   42  TYR42       0.0417
     30  CZ         8.6430   10.1550   59.5650 C.ar   42  TYR42       0.1957
     31  OH         8.6800   11.2820   60.3520 O.3    42  TYR42      -0.2866
     32  N          3.8050    5.7150   53.8170 N.3    45  VAL45      -0.1231
     33  CA         3.5170    7.0160   53.2210 C.3    45  VAL45       0.1692
     34  C          4.1970    7.1400   51.8670 C.2    45  VAL45       0.2592
     35  O          3.6240    7.6920   50.9210 O.2    45  VAL45      -0.2718
     36  CB         3.9390    8.1570   54.1700 C.3    45  VAL45       0.0266
     37  CG1        4.4090    9.3770   53.3820 C.3    45  VAL45       0.0020
     38  CG2        2.7880    8.5570   55.0520 C.3    45  VAL45       0.0020
     39  N          5.4180    6.6140   51.7440 N.am   46  ASN46      -0.1974
     40  CA         6.0880    6.6610   50.4480 C.3    46  ASN46       0.1688
     41  C          5.3190    5.8520   49.4090 C.2    46  ASN46       0.2292
     42  O          5.1270    6.3030   48.2690 O.2    46  ASN46      -0.2864
     43  CB         7.5200    6.1420   50.5770 C.3    46  ASN46       0.1181
     44  CG         8.3450    6.3920   49.3320 C.2    46  ASN46       0.2629
     45  OD1        8.3160    7.4850   48.7660 O.2    46  ASN46      -0.2716
     46  ND2        9.0840    5.3770   48.8950 N.am   46  ASN46      -0.0877
     47  N          2.1520    7.7340   48.4300 N.3    49  PHE49      -0.1241
     48  CA         2.4420    8.8410   47.5290 C.3    49  PHE49       0.1605
     49  C          2.7060    8.3380   46.1180 C.2    49  PHE49       0.2264
     50  O          2.2060    8.9150   45.1430 O.2    49  PHE49      -0.2867
     51  CB         3.6360    9.6420   48.0520 C.3    49  PHE49       0.0534
     52  CG         4.1990   10.6170   47.0560 C.ar   49  PHE49      -0.0203
     53  CD1        3.6100   11.8570   46.8730 C.ar   49  PHE49      -0.0042
     54  CD2        5.3230   10.2960   46.3090 C.ar   49  PHE49      -0.0042
     55  CE1        4.1260   12.7560   45.9590 C.ar   49  PHE49      -0.0003
     56  CE2        5.8430   11.1890   45.3920 C.ar   49  PHE49      -0.0003
     57  CZ         5.2440   12.4220   45.2180 C.ar   49  PHE49      -0.0000
     58  N         14.4860    7.6990   55.9120 N.3   121  LYS121     -0.1245
     59  CA        14.3740    8.7360   54.8900 C.3   121  LYS121      0.1561
     60  C         15.4610    8.5730   53.8310 C.2   121  LYS121      0.2260
     61  O         15.2050    8.7350   52.6270 O.2   121  LYS121     -0.2867
     62  CB        14.4490   10.1250   55.5270 C.3   121  LYS121      0.0271
     63  CG        13.3090   10.4520   56.4810 C.3   121  LYS121      0.0035
     64  CD        13.5280   11.8050   57.1400 C.3   121  LYS121      0.0206
     65  CE        12.5520   12.0380   58.2810 C.3   121  LYS121      0.1093
     66  NZ        12.9220   13.2410   59.0820 N.3   121  LYS121     -0.1314
     67  N         14.4690    5.7210   51.6160 N.3   124  ILE124     -0.1231
     68  CA        13.4020    6.1140   50.7020 C.3   124  ILE124      0.1692
     69  C         13.9660    6.9090   49.5300 C.2   124  ILE124      0.2592
     70  O         13.5600    6.7170   48.3720 O.2   124  ILE124     -0.2718
     71  CB        12.3220    6.9030   51.4660 C.3   124  ILE124      0.0266
     72  CG1       11.5750    5.9820   52.4360 C.3   124  ILE124      0.0019
     73  CG2       11.3590    7.5710   50.5020 C.3   124  ILE124      0.0020
     74  CD1       10.6120    6.7100   53.3500 C.3   124  ILE124      0.0001
     75  N         14.9350    7.7900   49.8010 N.am  125  CYS125     -0.1970
     76  CA        15.5690    8.5220   48.7070 C.3   125  CYS125      0.1712
     77  C         16.3320    7.5810   47.7790 C.2   125  CYS125      0.2296
     78  O         16.2820    7.7290   46.5510 O.2   125  CYS125     -0.2864
     79  CB        16.4990    9.5990   49.2620 C.3   125  CYS125      0.0983
     80  SG        15.6570   10.9840   50.0530 S.3   125  CYS125     -0.0798
     81  N         13.8230    5.8170   45.5540 N.3   128  TRP128     -0.1241
     82  CA        13.3450    6.6330   44.4430 C.3   128  TRP128      0.1605
     83  C         14.4190    6.8230   43.3770 C.2   128  TRP128      0.2264
     84  O         14.1110    6.8480   42.1790 O.2   128  TRP128     -0.2867
     85  CB        12.8370    7.9760   44.9570 C.3   128  TRP128      0.0550
     86  CG        11.3760    7.9330   45.2580 C.ar  128  TRP128      0.0003
     87  CD1       10.7910    7.9390   46.4880 C.ar  128  TRP128      0.0946
     88  CD2       10.3110    7.8450   44.3050 C.ar  128  TRP128      0.0152
     89  NE1        9.4240    7.8770   46.3610 N.ar  128  TRP128     -0.2442
     90  CE2        9.1040    7.8160   45.0300 C.ar  128  TRP128      0.0810
     91  CE3       10.2620    7.7970   42.9080 C.ar  128  TRP128      0.0012
     92  CZ2        7.8590    7.7410   44.4060 C.ar  128  TRP128      0.0191
     93  CZ3        9.0270    7.7190   42.2910 C.ar  128  TRP128      0.0001
     94  CH2        7.8420    7.6930   43.0400 C.ar  128  TRP128      0.0015
@<TRIPOS>BOND
     1    84    83    2
     2    93    91   ar
     3    93    94   ar
     4    91    88   ar
     5    94    92   ar
     6    83    82    1
     7    88    90   ar
     8    88    86   ar
     9    92    90   ar
    10    82    85    1
    11    82    81    1
    12    85    86    1
    13    90    89   ar
    14    50    49    2
    15    57    56   ar
    16    57    55   ar
    17    86    87   ar
    18    56    54   ar
    19    55    53   ar
    20    49    48    1
    21    54    52   ar
    22    89    87   ar
    23    78    77    2
    24    53    52   ar
    25    52    51    1
    26    48    51    1
    27    48    47    1
    28    77    76    1
    29    42    41    2
    30    70    69    2
    31    76    79    1
    32    76    75    1
    33    45    44    2
    34    46    44   am
    35    79    80    1
    36    44    43    1
    37    41    40    1
    38    69    75   am
    39    69    68    1
    40    40    43    1
    41    40    39    1
    42    73    71    1
    43    68    71    1
    44    68    67    1
    45    35    34    2
    46    71    72    1
    47    39    34   am
    48    34    33    1
    49    72    74    1
    50    61    60    2
    51    33    32    1
    52    33    36    1
    53    37    36    1
    54    60    59    1
    55    36    38    1
    56    23    22    2
    57    59    62    1
    58    59    58    1
    59     7     6    1
    60    22    21    1
    61    62    63    1
    62     6     8    1
    63     6     5    1
    64    63    64    1
    65    21    24    1
    66    21    20    1
    67    24    25    1
    68    64    65    1
    69     5     2    1
    70    25    27   ar
    71    25    26   ar
    72    65    66    1
    73    27    29   ar
    74    26    28   ar
    75     1     2    1
    76     2     3    1
    77    29    30   ar
    78    28    30   ar
    79    30    31    1
    80     3     4    2
    81    16    15    1
    82    16    17    2
    83    15    14    1
    84    14    13    1
    85    10    13    1
    86    10    11    1
    87    10     9    1
    88    19    17    1
    89    17    18    1
    90    11    12    2
