@<TRIPOS>MOLECULE
tmp/6hloA16.pdb
 78 75 0 0 0
SMALL
GASTEIGER

@<TRIPOS>ATOM
      1  N         11.3810   -9.3140   64.7490 N.3   107  ILE107     -0.1231
      2  CA        10.8780  -10.5630   65.3130 C.3   107  ILE107      0.1692
      3  C         11.9330  -11.6660   65.3090 C.2   107  ILE107      0.2591
      4  O         12.0850  -12.3800   66.3000 O.2   107  ILE107     -0.2718
      5  CB         9.5980  -11.0020   64.5690 C.3   107  ILE107      0.0266
      6  CG1        8.4500  -10.0480   64.9070 C.3   107  ILE107      0.0019
      7  CG2        9.2290  -12.4340   64.9260 C.3   107  ILE107      0.0020
      8  CD1        7.1640  -10.3540   64.1770 C.3   107  ILE107      0.0001
      9  N         12.6730  -11.8250   64.2160 N.am  108  ILE108     -0.1980
     10  CA        13.6330  -12.9170   64.1040 C.3   108  ILE108      0.1595
     11  C         14.9860  -12.5780   64.7330 C.2   108  ILE108      0.2287
     12  O         15.6440  -13.4630   65.2880 O.2   108  ILE108     -0.2864
     13  CB        13.7950  -13.3150   62.6250 C.3   108  ILE108      0.0276
     14  CG1       12.4330  -13.6210   61.9980 C.3   108  ILE108      0.0022
     15  CG2       14.7200  -14.5140   62.4810 C.3   108  ILE108      0.0022
     16  CD1       11.6680  -14.7150   62.7150 C.3   108  ILE108      0.0001
     17  N         15.7900   -9.7220   67.1890 N.3   110  PRO110     -0.2116
     18  CA        15.5040   -8.5110   67.9820 C.3   110  PRO110      0.1372
     19  C         16.7410   -7.7690   68.4650 C.2   110  PRO110      0.2244
     20  O         16.6910   -6.5410   68.6200 O.2   110  PRO110     -0.2868
     21  CB        14.6650   -9.0470   69.1500 C.3   110  PRO110      0.0268
     22  CG        14.9910  -10.4910   69.2340 C.3   110  PRO110      0.0207
     23  CD        15.2580  -10.9370   67.8280 C.3   110  PRO110      0.0892
     24  N          6.5010  -15.5220   55.4600 N.3   190  THR190     -0.1203
     25  CA         6.3040  -16.9190   55.8240 C.3   190  THR190      0.1994
     26  C          7.0300  -17.2360   57.1220 C.2   190  THR190      0.2617
     27  O          6.4410  -17.7980   58.0550 O.2   190  THR190     -0.2717
     28  CB         6.7810  -17.8400   54.7000 C.3   190  THR190      0.1784
     29  OG1        5.9210  -17.6940   53.5630 O.3   190  THR190     -0.2211
     30  CG2        6.7610  -19.2940   55.1600 C.3   190  THR190      0.0376
     31  N          8.3000  -16.8320   57.2180 N.am  191  VAL191     -0.1979
     32  CA         9.0490  -17.0770   58.4460 C.3   191  VAL191      0.1595
     33  C          8.3770  -16.3720   59.6180 C.2   191  VAL191      0.2287
     34  O          8.1320  -16.9760   60.6720 O.2   191  VAL191     -0.2864
     35  CB        10.5150  -16.6380   58.2790 C.3   191  VAL191      0.0276
     36  CG1       11.2460  -16.7050   59.6090 C.3   191  VAL191      0.0022
     37  CG2       11.2140  -17.5100   57.2480 C.3   191  VAL191      0.0022
     38  N          4.7480  -17.9160   60.4980 N.3   194  ILE194     -0.1231
     39  CA         4.8610  -19.2070   61.1640 C.3   194  ILE194      0.1692
     40  C          5.3750  -19.0240   62.5840 C.2   194  ILE194      0.2592
     41  O          4.8380  -19.6100   63.5330 O.2   194  ILE194     -0.2718
     42  CB         5.7620  -20.1570   60.3570 C.3   194  ILE194      0.0266
     43  CG1        5.0480  -20.6120   59.0830 C.3   194  ILE194      0.0019
     44  CG2        6.1700  -21.3490   61.2090 C.3   194  ILE194      0.0020
     45  CD1        5.9290  -21.3870   58.1370 C.3   194  ILE194      0.0001
     46  N          6.4100  -18.1930   62.7600 N.am  195  THR195     -0.1953
     47  CA         6.9790  -18.0280   64.0940 C.3   195  THR195      0.1897
     48  C          5.9820  -17.3880   65.0520 C.2   195  THR195      0.2313
     49  O          5.9530  -17.7220   66.2410 O.2   195  THR195     -0.2863
     50  CB         8.2610  -17.2030   64.0280 C.3   195  THR195      0.1794
     51  OG1        8.0150  -15.9910   63.3090 O.3   195  THR195     -0.2208
     52  CG2        9.3550  -17.9850   63.3330 C.3   195  THR195      0.0378
     53  N         12.0820  -24.7340   69.4170 N.3   321  PRO321     -0.2102
     54  CA        12.0350  -23.4820   68.6400 C.3   321  PRO321      0.1504
     55  C         11.0400  -22.4490   69.1570 C.2   321  PRO321      0.2575
     56  O         11.3120  -21.2480   69.0320 O.2   321  PRO321     -0.2718
     57  CB        11.6630  -23.9580   67.2240 C.3   321  PRO321      0.0282
     58  CG        11.0720  -25.3220   67.4100 C.3   321  PRO321      0.0208
     59  CD        11.7950  -25.9120   68.5810 C.3   321  PRO321      0.0893
     60  N          9.9080  -22.8560   69.7340 N.am  322  PHE322     -0.1977
     61  CA         8.8550  -21.8930   70.0340 C.3   322  PHE322      0.1639
     62  C          8.3910  -21.8580   71.4880 C.2   322  PHE322      0.2290
     63  O          8.0180  -20.7840   71.9670 O.2   322  PHE322     -0.2864
     64  CB         7.6560  -22.1400   69.1110 C.3   322  PHE322      0.0560
     65  CG         8.0090  -22.0560   67.6560 C.ar  322  PHE322     -0.0200
     66  CD1        8.3710  -20.8430   67.0910 C.ar  322  PHE322     -0.0042
     67  CD2        8.0020  -23.1870   66.8570 C.ar  322  PHE322     -0.0042
     68  CE1        8.7100  -20.7570   65.7520 C.ar  322  PHE322     -0.0003
     69  CE2        8.3340  -23.1090   65.5180 C.ar  322  PHE322     -0.0003
     70  CZ         8.6900  -21.8930   64.9630 C.ar  322  PHE322     -0.0000
     71  N         13.9060  -17.4010   75.1070 N.3   346  ASP346     -0.1239
     72  CA        13.3050  -16.0970   74.8310 C.3   346  ASP346      0.1674
     73  C         12.2150  -15.7260   75.8350 C.2   346  ASP346      0.2266
     74  O         12.0630  -14.5460   76.1700 O.2   346  ASP346     -0.2867
     75  CB        12.7480  -16.0640   73.4100 C.3   346  ASP346      0.1410
     76  CG        13.8360  -16.1680   72.3610 C.2   346  ASP346      0.3668
     77  OD1       14.9740  -15.7290   72.6430 O.co2 346  ASP346     -0.2456
     78  OD2       13.5560  -16.6920   71.2620 O.co2 346  ASP346     -0.2456
@<TRIPOS>BOND
     1    29    28    1
     2    28    30    1
     3    28    25    1
     4    24    25    1
     5    25    26    1
     6    26    31   am
     7    26    27    2
     8    31    32    1
     9    37    35    1
    10    45    43    1
    11    35    32    1
    12    35    36    1
    13    32    33    1
    14    43    42    1
    15    33    34    2
    16    42    39    1
    17    42    44    1
    18    38    39    1
    19    39    40    1
    20    14    13    1
    21    14    16    1
    22    15    13    1
    23    40    46   am
    24    40    41    2
    25    13    10    1
    26    46    47    1
    27    51    50    1
    28    52    50    1
    29    50    47    1
    30    47    48    1
    31    10     9    1
    32    10    11    1
    33     8     6    1
    34     9     3   am
    35     5     6    1
    36     5     7    1
    37     5     2    1
    38    11    12    2
    39     1     2    1
    40    70    69   ar
    41    70    68   ar
    42    48    49    2
    43     3     2    1
    44     3     4    2
    45    69    67   ar
    46    68    66   ar
    47    67    65   ar
    48    66    65   ar
    49    17    23    1
    50    17    18    1
    51    57    58    1
    52    57    54    1
    53    58    59    1
    54    65    64    1
    55    23    22    1
    56    18    19    1
    57    18    21    1
    58    19    20    2
    59    59    53    1
    60    54    55    1
    61    54    53    1
    62    56    55    2
    63    64    61    1
    64    21    22    1
    65    55    60   am
    66    60    61    1
    67    61    62    1
    68    78    76   ar
    69    62    63    2
    70    76    77   ar
    71    76    75    1
    72    75    72    1
    73    72    71    1
    74    72    73    1
    75    73    74    2
