@<TRIPOS>MOLECULE
tmp/6hloA00.pdb
 100 93 0 0 0
SMALL
GASTEIGER

@<TRIPOS>ATOM
      1  N          7.9390    0.5280   41.3170 N.3    90  PHE90      -0.1241
      2  CA         9.1790    0.1290   41.9740 C.3    90  PHE90       0.1605
      3  C          9.2500    0.7090   43.3780 C.2    90  PHE90       0.2264
      4  O          9.5140   -0.0120   44.3520 O.2    90  PHE90      -0.2867
      5  CB        10.3760    0.5880   41.1370 C.3    90  PHE90       0.0534
      6  CG        11.7110    0.1400   41.6720 C.ar   90  PHE90      -0.0203
      7  CD1       12.3290    0.8250   42.7080 C.ar   90  PHE90      -0.0042
      8  CD2       12.3560   -0.9540   41.1230 C.ar   90  PHE90      -0.0042
      9  CE1       13.5580    0.4200   43.1930 C.ar   90  PHE90      -0.0003
     10  CE2       13.5880   -1.3660   41.6020 C.ar   90  PHE90      -0.0003
     11  CZ        14.1890   -0.6800   42.6410 C.ar   90  PHE90      -0.0000
     12  N          9.0490   -1.7180   46.7460 N.3    94  TYR94      -0.1241
     13  CA        10.2170   -1.8040   47.6110 C.3    94  TYR94       0.1605
     14  C         10.0070   -1.1230   48.9560 C.2    94  TYR94       0.2264
     15  O         10.6530   -1.5140   49.9330 O.2    94  TYR94      -0.2867
     16  CB        11.4500   -1.2600   46.8920 C.3    94  TYR94       0.0534
     17  CG        12.0350   -2.3130   45.9880 C.ar   94  TYR94      -0.0201
     18  CD1       12.9170   -3.2640   46.4820 C.ar   94  TYR94      -0.0009
     19  CD2       11.6610   -2.3960   44.6550 C.ar   94  TYR94      -0.0009
     20  CE1       13.4370   -4.2470   45.6650 C.ar   94  TYR94       0.0417
     21  CE2       12.1740   -3.3740   43.8320 C.ar   94  TYR94       0.0417
     22  CZ        13.0620   -4.2980   44.3420 C.ar   94  TYR94       0.1957
     23  OH        13.5760   -5.2760   43.5230 O.3    94  TYR94      -0.2866
     24  N          8.6230   -3.9660   50.6850 N.3    97  THR97      -0.1203
     25  CA         9.7040   -4.8930   51.0000 C.3    97  THR97       0.1994
     26  C         10.4790   -4.4340   52.2280 C.2    97  THR97       0.2617
     27  O         10.8530   -5.2520   53.0780 O.2    97  THR97      -0.2717
     28  CB        10.6390   -5.0230   49.7990 C.3    97  THR97       0.1784
     29  OG1        9.9060   -5.5230   48.6750 O.3    97  THR97      -0.2211
     30  CG2       11.7950   -5.9660   50.1110 C.3    97  THR97       0.0376
     31  N         10.7040   -3.1230   52.3500 N.am   98  ALA98      -0.1979
     32  CA        11.3870   -2.5970   53.5270 C.3    98  ALA98       0.1597
     33  C         10.5460   -2.7820   54.7840 C.2    98  ALA98       0.2287
     34  O         11.0840   -3.0810   55.8560 O.2    98  ALA98      -0.2864
     35  CB        11.7320   -1.1230   53.3240 C.3    98  ALA98       0.0319
     36  N         10.9320   -6.3710   55.7670 N.3   101  PHE101     -0.1241
     37  CA        12.2610   -6.6330   56.3080 C.3   101  PHE101      0.1605
     38  C         12.4020   -6.0860   57.7220 C.2   101  PHE101      0.2264
     39  O         13.0410   -6.7120   58.5770 O.2   101  PHE101     -0.2867
     40  CB        13.3250   -6.0340   55.3900 C.3   101  PHE101      0.0534
     41  CG        14.7270   -6.4010   55.7710 C.ar  101  PHE101     -0.0203
     42  CD1       15.2480   -7.6360   55.4250 C.ar  101  PHE101     -0.0042
     43  CD2       15.5240   -5.5140   56.4780 C.ar  101  PHE101     -0.0042
     44  CE1       16.5390   -7.9820   55.7770 C.ar  101  PHE101     -0.0003
     45  CE2       16.8170   -5.8510   56.8320 C.ar  101  PHE101     -0.0003
     46  CZ        17.3250   -7.0870   56.4820 C.ar  101  PHE101     -0.0000
     47  N         16.5850    0.2540   61.5210 N.3   115  LEU115     -0.1245
     48  CA        16.7210    1.5860   60.9530 C.3   115  LEU115      0.1561
     49  C         16.1860    2.6580   61.8960 C.2   115  LEU115      0.2260
     50  O         15.1260    2.5030   62.5080 O.2   115  LEU115     -0.2867
     51  CB        15.9840    1.6650   59.6170 C.3   115  LEU115      0.0270
     52  CG        16.4860    0.7730   58.4820 C.3   115  LEU115      0.0019
     53  CD1       15.5190    0.8230   57.3130 C.3   115  LEU115      0.0001
     54  CD2       17.8780    1.2010   58.0490 C.3   115  LEU115      0.0001
     55  N         16.8520    5.6980   53.0160 N.3   123  VAL123     -0.1245
     56  CA        16.4920    4.5120   52.2450 C.3   123  VAL123      0.1561
     57  C         15.4000    4.8440   51.2380 C.2   123  VAL123      0.2260
     58  O         15.3980    4.3360   50.1120 O.2   123  VAL123     -0.2867
     59  CB        16.0620    3.3730   53.1900 C.3   123  VAL123      0.0252
     60  CG1       15.3580    2.2610   52.4200 C.3   123  VAL123      0.0019
     61  CG2       17.2600    2.8190   53.9430 C.3   123  VAL123      0.0019
     62  N         17.0240    6.5890   48.3480 N.3   126  VAL126     -0.1231
     63  CA        17.7470    5.6210   47.5240 C.3   126  VAL126      0.1692
     64  C         16.7700    4.8040   46.6900 C.2   126  VAL126      0.2591
     65  O         17.0340    4.4860   45.5210 O.2   126  VAL126     -0.2718
     66  CB        18.6260    4.7190   48.4120 C.3   126  VAL126      0.0266
     67  CG1       19.1690    3.5410   47.6150 C.3   126  VAL126      0.0020
     68  CG2       19.7620    5.5180   49.0270 C.3   126  VAL126      0.0020
     69  N         15.6080    4.4930   47.2650 N.am  127  ILE127     -0.1980
     70  CA        14.5950    3.7320   46.5450 C.3   127  ILE127      0.1595
     71  C         14.0990    4.5280   45.3480 C.2   127  ILE127      0.2287
     72  O         13.9680    4.0000   44.2370 O.2   127  ILE127     -0.2864
     73  CB        13.4370    3.3590   47.4900 C.3   127  ILE127      0.0276
     74  CG1       13.8220    2.1790   48.3850 C.3   127  ILE127      0.0022
     75  CG2       12.1690    3.0570   46.7050 C.3   127  ILE127      0.0022
     76  CD1       12.7510    1.8020   49.3900 C.3   127  ILE127      0.0001
     77  N         16.8140    4.6480   42.5870 N.3   130  LEU130     -0.1245
     78  CA        16.8750    3.3990   41.8340 C.3   130  LEU130      0.1561
     79  C         15.6520    3.2340   40.9410 C.2   130  LEU130      0.2260
     80  O         15.7570    2.7170   39.8230 O.2   130  LEU130     -0.2867
     81  CB        17.0030    2.2120   42.7870 C.3   130  LEU130      0.0270
     82  CG        18.2810    2.1370   43.6230 C.3   130  LEU130      0.0019
     83  CD1       18.3510    0.8160   44.3720 C.3   130  LEU130      0.0001
     84  CD2       19.5040    2.3280   42.7430 C.3   130  LEU130      0.0001
     85  N         12.3210   -7.1910   38.6230 N.3   176  LEU176     -0.1245
     86  CA        12.6330   -6.2860   39.7250 C.3   176  LEU176      0.1561
     87  C         11.3870   -5.7030   40.3850 C.2   176  LEU176      0.2260
     88  O         11.3970   -5.4520   41.5950 O.2   176  LEU176     -0.2867
     89  CB        13.5460   -5.1660   39.2330 C.3   176  LEU176      0.0270
     90  CG        14.9740   -5.6210   38.9270 C.3   176  LEU176      0.0019
     91  CD1       15.8010   -4.4720   38.3790 C.3   176  LEU176      0.0001
     92  CD2       15.6180   -6.2060   40.1760 C.3   176  LEU176      0.0001
     93  N         10.8400  -10.8860   41.9040 N.3   180  LEU180     -0.1245
     94  CA        11.8270  -10.8760   42.9830 C.3   180  LEU180      0.1561
     95  C         11.3110  -10.2600   44.2810 C.2   180  LEU180      0.2260
     96  O         11.4640  -10.8960   45.3410 O.2   180  LEU180     -0.2867
     97  CB        13.0990  -10.1680   42.5040 C.3   180  LEU180      0.0270
     98  CG        14.1260   -9.8750   43.6000 C.3   180  LEU180      0.0019
     99  CD1       14.7250  -11.1720   44.1320 C.3   180  LEU180      0.0001
    100  CD2       15.2120   -8.9360   43.1050 C.3   180  LEU180      0.0001
@<TRIPOS>BOND
     1    91    90    1
     2    85    86    1
     3    90    89    1
     4    90    92    1
     5    89    86    1
     6    86    87    1
     7    80    79    2
     8    87    88    2
     9    79    78    1
    10     8    10   ar
    11     8     6   ar
    12     5     6    1
    13     5     2    1
    14     1     2    1
    15    10    11   ar
    16     6     7   ar
    17    78    77    1
    18    78    81    1
    19    93    94    1
    20     2     3    1
    21    97    94    1
    22    97    98    1
    23    11     9   ar
    24     7     9   ar
    25    84    82    1
    26    81    82    1
    27    94    95    1
    28   100    98    1
    29     3     4    2
    30    23    22    1
    31    98    99    1
    32    82    83    1
    33    21    22   ar
    34    21    19   ar
    35    72    71    2
    36    95    96    2
    37    22    20   ar
    38    19    17   ar
    39    71    70    1
    40    65    64    2
    41    20    18   ar
    42    17    18   ar
    43    17    16    1
    44    70    69    1
    45    70    73    1
    46    64    69   am
    47    64    63    1
    48    75    73    1
    49    12    13    1
    50    16    13    1
    51    73    74    1
    52    63    62    1
    53    63    66    1
    54    13    14    1
    55    67    66    1
    56    74    76    1
    57    66    68    1
    58    29    28    1
    59    14    15    2
    60    28    30    1
    61    28    25    1
    62    58    57    2
    63    24    25    1
    64    25    26    1
    65    57    56    1
    66    26    31   am
    67    26    27    2
    68    56    55    1
    69    56    59    1
    70    31    32    1
    71    60    59    1
    72    59    61    1
    73    35    32    1
    74    32    33    1
    75    33    34    2
    76    40    41    1
    77    40    37    1
    78    42    41   ar
    79    42    44   ar
    80    36    37    1
    81    41    43   ar
    82    44    46   ar
    83    37    38    1
    84    43    45   ar
    85    46    45   ar
    86    53    52    1
    87    38    39    2
    88    54    52    1
    89    52    51    1
    90    51    48    1
    91    48    47    1
    92    48    49    1
    93    49    50    2
