@<TRIPOS>MOLECULE
tmp/6hloA12.pdb
 113 114 0 0 0
SMALL
GASTEIGER

@<TRIPOS>ATOM
      1  N          2.1520    7.7340   48.4300 N.3    49  PHE49      -0.1241
      2  CA         2.4420    8.8410   47.5290 C.3    49  PHE49       0.1605
      3  C          2.7060    8.3380   46.1180 C.2    49  PHE49       0.2264
      4  O          2.2060    8.9150   45.1430 O.2    49  PHE49      -0.2867
      5  CB         3.6360    9.6420   48.0520 C.3    49  PHE49       0.0534
      6  CG         4.1990   10.6170   47.0560 C.ar   49  PHE49      -0.0203
      7  CD1        3.6100   11.8570   46.8730 C.ar   49  PHE49      -0.0042
      8  CD2        5.3230   10.2960   46.3090 C.ar   49  PHE49      -0.0042
      9  CE1        4.1260   12.7560   45.9590 C.ar   49  PHE49      -0.0003
     10  CE2        5.8430   11.1890   45.3920 C.ar   49  PHE49      -0.0003
     11  CZ         5.2440   12.4220   45.2180 C.ar   49  PHE49      -0.0000
     12  N          6.7000   15.1190   25.6070 N.3    76  PHE76      -0.1241
     13  CA         7.1160   14.9670   26.9940 C.3    76  PHE76       0.1605
     14  C          6.1470   14.0850   27.7610 C.2    76  PHE76       0.2264
     15  O          6.5620   13.2660   28.5880 O.2    76  PHE76      -0.2867
     16  CB         7.2320   16.3240   27.6870 C.3    76  PHE76       0.0534
     17  CG         7.4140   16.2120   29.1740 C.ar   76  PHE76      -0.0203
     18  CD1        8.6590   15.9230   29.7050 C.ar   76  PHE76      -0.0042
     19  CD2        6.3370   16.3570   30.0380 C.ar   76  PHE76      -0.0042
     20  CE1        8.8350   15.7990   31.0650 C.ar   76  PHE76      -0.0003
     21  CE2        6.5080   16.2310   31.4030 C.ar   76  PHE76      -0.0003
     22  CZ         7.7590   15.9520   31.9170 C.ar   76  PHE76      -0.0000
     23  N          6.8520   10.4570   26.9560 N.3    79  LYS79      -0.1231
     24  CA         7.9460    9.9220   27.7600 C.3    79  LYS79       0.1693
     25  C          7.5040    9.6740   29.2000 C.2    79  LYS79       0.2592
     26  O          7.8030    8.6230   29.7750 O.2    79  LYS79      -0.2718
     27  CB         9.1440   10.8710   27.7190 C.3    79  LYS79       0.0285
     28  CG         9.7600   11.0270   26.3360 C.3    79  LYS79       0.0035
     29  CD        10.9930   11.9150   26.3800 C.3    79  LYS79       0.0206
     30  CE        11.6650   12.0100   25.0170 C.3    79  LYS79       0.1093
     31  NZ        12.1990   10.6920   24.5580 N.3    79  LYS79      -0.1314
     32  N          6.7750   10.6260   29.7960 N.am   80  PHE80      -0.1976
     33  CA         6.3350   10.4540   31.1810 C.3    80  PHE80       0.1639
     34  C          5.3660    9.2860   31.3100 C.2    80  PHE80       0.2290
     35  O          5.4050    8.5370   32.2950 O.2    80  PHE80      -0.2864
     36  CB         5.6860   11.7450   31.6840 C.3    80  PHE80       0.0560
     37  CG         5.1660   11.6630   33.0980 C.ar   80  PHE80      -0.0200
     38  CD1        5.9890   11.9720   34.1700 C.ar   80  PHE80      -0.0042
     39  CD2        3.8520   11.2910   33.3530 C.ar   80  PHE80      -0.0042
     40  CE1        5.5190   11.9010   35.4730 C.ar   80  PHE80      -0.0003
     41  CE2        3.3730   11.2170   34.6520 C.ar   80  PHE80      -0.0003
     42  CZ         4.2090   11.5270   35.7140 C.ar   80  PHE80      -0.0000
     43  N          7.3770    6.2870   31.3970 N.3    83  PHE83      -0.1227
     44  CA         8.4230    6.3090   32.4110 C.3    83  PHE83       0.1736
     45  C          7.8840    6.1550   33.8290 C.2    83  PHE83       0.2595
     46  O          8.3210    5.2680   34.5710 O.2    83  PHE83      -0.2718
     47  CB         9.2100    7.6240   32.2770 C.3    83  PHE83       0.0547
     48  CG        10.1690    7.9010   33.4070 C.ar   83  PHE83      -0.0202
     49  CD1        9.7550    8.5930   34.5390 C.ar   83  PHE83      -0.0042
     50  CD2       11.4970    7.5070   33.3180 C.ar   83  PHE83      -0.0042
     51  CE1       10.6380    8.8600   35.5710 C.ar   83  PHE83      -0.0003
     52  CE2       12.3870    7.7760   34.3440 C.ar   83  PHE83      -0.0003
     53  CZ        11.9570    8.4520   35.4720 C.ar   83  PHE83      -0.0000
     54  N          6.9550    7.0210   34.2250 N.am   84  PHE84      -0.1976
     55  CA         6.5560    7.0930   35.6270 C.3    84  PHE84       0.1639
     56  C          6.0010    5.7980   36.2060 C.2    84  PHE84       0.2290
     57  O          6.3450    5.4880   37.3580 O.2    84  PHE84      -0.2864
     58  CB         5.5580    8.2320   35.8460 C.3    84  PHE84       0.0560
     59  CG         5.3660    8.5650   37.2940 C.ar   84  PHE84      -0.0200
     60  CD1        6.4120    9.0990   38.0310 C.ar   84  PHE84      -0.0042
     61  CD2        4.1620    8.3180   37.9300 C.ar   84  PHE84      -0.0042
     62  CE1        6.2540    9.3950   39.3690 C.ar   84  PHE84      -0.0003
     63  CE2        3.9960    8.6130   39.2710 C.ar   84  PHE84      -0.0003
     64  CZ         5.0430    9.1510   39.9920 C.ar   84  PHE84      -0.0000
     65  N         13.8230    5.8170   45.5540 N.3   128  TRP128     -0.1241
     66  CA        13.3450    6.6330   44.4430 C.3   128  TRP128      0.1605
     67  C         14.4190    6.8230   43.3770 C.2   128  TRP128      0.2264
     68  O         14.1110    6.8480   42.1790 O.2   128  TRP128     -0.2867
     69  CB        12.8370    7.9760   44.9570 C.3   128  TRP128      0.0550
     70  CG        11.3760    7.9330   45.2580 C.ar  128  TRP128      0.0003
     71  CD1       10.7910    7.9390   46.4880 C.ar  128  TRP128      0.0946
     72  CD2       10.3110    7.8450   44.3050 C.ar  128  TRP128      0.0152
     73  NE1        9.4240    7.8770   46.3610 N.ar  128  TRP128     -0.2442
     74  CE2        9.1040    7.8160   45.0300 C.ar  128  TRP128      0.0810
     75  CE3       10.2620    7.7970   42.9080 C.ar  128  TRP128      0.0012
     76  CZ2        7.8590    7.7410   44.4060 C.ar  128  TRP128      0.0191
     77  CZ3        9.0270    7.7190   42.2910 C.ar  128  TRP128      0.0001
     78  CH2        7.8420    7.6930   43.0400 C.ar  128  TRP128      0.0015
     79  N         13.8650    5.6930   39.4980 N.3   132  LEU132     -0.1245
     80  CA        14.0150    6.5670   38.3410 C.3   132  LEU132      0.1561
     81  C         15.0600    6.0240   37.3740 C.2   132  LEU132      0.2260
     82  O         14.8690    6.0750   36.1520 O.2   132  LEU132     -0.2867
     83  CB        14.3820    7.9760   38.7990 C.3   132  LEU132      0.0270
     84  CG        13.3580    8.6490   39.7150 C.3   132  LEU132      0.0019
     85  CD1       13.8970    9.9580   40.2700 C.3   132  LEU132      0.0001
     86  CD2       12.0440    8.8740   38.9830 C.3   132  LEU132      0.0001
     87  N         14.3680    4.9050   33.5120 N.3   136  PHE136     -0.1241
     88  CA        14.9210    5.8380   32.5310 C.3   136  PHE136      0.1605
     89  C         14.9660    5.2980   31.1060 C.2   136  PHE136      0.2264
     90  O         14.5370    6.0220   30.1930 O.2   136  PHE136     -0.2867
     91  CB        16.3090    6.3010   32.9830 C.3   136  PHE136      0.0534
     92  CG        16.9610    7.2660   32.0310 C.ar  136  PHE136     -0.0203
     93  CD1       17.9030    6.8290   31.1120 C.ar  136  PHE136     -0.0042
     94  CD2       16.6290    8.6110   32.0520 C.ar  136  PHE136     -0.0042
     95  CE1       18.5030    7.7180   30.2340 C.ar  136  PHE136     -0.0003
     96  CE2       17.2250    9.5050   31.1770 C.ar  136  PHE136     -0.0003
     97  CZ        18.1620    9.0570   30.2680 C.ar  136  PHE136     -0.0000
     98  N         11.6180    5.6210   29.2160 N.3   139  GLY139     -0.1210
     99  CA        11.2270    6.9790   28.8920 C.3   139  GLY139      0.1956
    100  C         12.1360    7.6300   27.8750 C.2   139  GLY139      0.2611
    101  O         11.6860    8.4610   27.0800 O.2   139  GLY139     -0.2717
    102  N         13.4190    7.2590   27.8770 N.am  140  TYR140     -0.1976
    103  CA        14.3800    7.8650   26.9630 C.3   140  TYR140      0.1639
    104  C         14.0840    7.4980   25.5150 C.2   140  TYR140      0.2290
    105  O         14.2590    8.3230   24.6110 O.2   140  TYR140     -0.2864
    106  CB        15.7930    7.4310   27.3530 C.3   140  TYR140      0.0560
    107  CG        16.8910    8.0000   26.4880 C.ar  140  TYR140     -0.0198
    108  CD1       17.4700    7.2430   25.4770 C.ar  140  TYR140     -0.0009
    109  CD2       17.3540    9.2940   26.6850 C.ar  140  TYR140     -0.0009
    110  CE1       18.4770    7.7620   24.6840 C.ar  140  TYR140      0.0417
    111  CE2       18.3580    9.8210   25.8980 C.ar  140  TYR140      0.0417
    112  CZ        18.9160    9.0520   24.9000 C.ar  140  TYR140      0.1957
    113  OH        19.9200    9.5770   24.1150 O.3   140  TYR140     -0.2866
@<TRIPOS>BOND
     1   113   112    1
     2    31    30    1
     3   105   104    2
     4   110   112   ar
     5   110   108   ar
     6   112   111   ar
     7    30    29    1
     8   108   107   ar
     9   104   103    1
    10    12    13    1
    11   111   109   ar
    12    28    29    1
    13    28    27    1
    14   107   109   ar
    15   107   106    1
    16    23    24    1
    17   103   106    1
    18   103   102    1
    19    13    16    1
    20    13    14    1
    21   101   100    2
    22    16    17    1
    23    27    24    1
    24    24    25    1
    25    14    15    2
    26   100   102   am
    27   100    99    1
    28    99    98    1
    29    17    18   ar
    30    17    19   ar
    31    25    26    2
    32    25    32   am
    33    18    20   ar
    34    32    33    1
    35    19    21   ar
    36    90    89    2
    37    95    97   ar
    38    95    93   ar
    39    97    96   ar
    40    20    22   ar
    41    89    88    1
    42    93    92   ar
    43    96    94   ar
    44    33    34    1
    45    33    36    1
    46    34    35    2
    47    43    44    1
    48    21    22   ar
    49    36    37    1
    50    92    94   ar
    51    92    91    1
    52    47    44    1
    53    47    48    1
    54    44    45    1
    55    88    91    1
    56    88    87    1
    57    37    39   ar
    58    37    38   ar
    59    50    48   ar
    60    50    52   ar
    61    39    41   ar
    62    48    49   ar
    63    45    54   am
    64    45    46    2
    65    38    40   ar
    66    54    55    1
    67    52    53   ar
    68    49    51   ar
    69    41    42   ar
    70    53    51   ar
    71    40    42   ar
    72    55    58    1
    73    55    56    1
    74    58    59    1
    75    82    81    2
    76    56    57    2
    77    59    61   ar
    78    59    60   ar
    79    81    80    1
    80    61    63   ar
    81    60    62   ar
    82    80    83    1
    83    80    79    1
    84    83    84    1
    85    86    84    1
    86    63    64   ar
    87    62    64   ar
    88    84    85    1
    89    68    67    2
    90    77    75   ar
    91    77    78   ar
    92    75    72   ar
    93    78    76   ar
    94    67    66    1
    95    72    74   ar
    96    72    70   ar
    97    76    74   ar
    98    66    69    1
    99    66    65    1
   100    69    70    1
   101    74    73   ar
   102     4     3    2
   103    11    10   ar
   104    11     9   ar
   105    70    71   ar
   106    10     8   ar
   107     9     7   ar
   108     3     2    1
   109     8     6   ar
   110    73    71   ar
   111     7     6   ar
   112     6     5    1
   113     2     5    1
   114     2     1    1
