@<TRIPOS>MOLECULE
tmp/6hlpA13.pdb
 76 72 0 0 0
SMALL
GASTEIGER

@<TRIPOS>ATOM
      1  N        -10.1610    8.4860   41.3060 N.3    18  VAL18      -0.1231
      2  CA       -10.5990    9.2420   42.4720 C.3    18  VAL18       0.1692
      3  C        -10.3510    8.4470   43.7480 C.2    18  VAL18       0.2592
      4  O         -9.8740    8.9970   44.7520 O.2    18  VAL18      -0.2718
      5  CB       -12.0720    9.6740   42.3210 C.3    18  VAL18       0.0266
      6  CG1      -12.2600   10.4280   41.0080 C.3    18  VAL18       0.0020
      7  CG2      -13.0150    8.4850   42.3850 C.3    18  VAL18       0.0020
      8  N        -10.6090    7.1330   43.7210 N.am   19  THR19      -0.1953
      9  CA       -10.4090    6.3350   44.9210 C.3    19  THR19       0.1897
     10  C         -8.9410    6.3120   45.3170 C.2    19  THR19       0.2313
     11  O         -8.6060    6.5280   46.4910 O.2    19  THR19      -0.2863
     12  CB       -10.9310    4.9180   44.6920 C.3    19  THR19       0.1794
     13  OG1      -12.2640    4.9830   44.1680 O.3    19  THR19      -0.2208
     14  CG2      -10.9330    4.1360   46.0070 C.3    19  THR19       0.0378
     15  N         -7.8200   10.0480   46.5990 N.3    22  VAL22      -0.1231
     16  CA        -8.3660   10.4090   47.9050 C.3    22  VAL22       0.1692
     17  C         -7.8010    9.5050   48.9980 C.2    22  VAL22       0.2592
     18  O         -7.3290    9.9840   50.0400 O.2    22  VAL22      -0.2718
     19  CB        -9.9040   10.3660   47.8710 C.3    22  VAL22       0.0266
     20  CG1      -10.4730   10.4760   49.2790 C.3    22  VAL22       0.0020
     21  CG2      -10.4430   11.4850   46.9770 C.3    22  VAL22       0.0020
     22  N         -7.8110    8.1860   48.7750 N.am   23  GLY23      -0.1957
     23  CA        -7.3780    7.2850   49.8280 C.3    23  GLY23       0.1869
     24  C         -5.8990    7.4020   50.1400 C.2    23  GLY23       0.2309
     25  O         -5.5030    7.3970   51.3100 O.2    23  GLY23      -0.2863
     26  N         -5.5070    1.6930   44.2370 N.3   456  MET456     -0.1245
     27  CA        -6.5260    2.1770   45.1630 C.3   456  MET456      0.1570
     28  C         -6.7930    1.2640   46.3660 C.2   456  MET456      0.2261
     29  O         -7.5340    1.6690   47.2710 O.2   456  MET456     -0.2867
     30  CB        -7.8460    2.4200   44.4090 C.3   456  MET456      0.0387
     31  CG        -8.5640    1.1550   43.9720 C.3   456  MET456      0.0595
     32  SD       -10.0530    1.4610   42.9920 S.3   456  MET456     -0.1393
     33  CE       -10.6750   -0.2070   42.7910 C.3   456  MET456      0.0692
     34  N         -5.0940    1.8760   50.8680 N.3   459  PRO459     -0.2102
     35  CA        -5.8060    2.6380   51.9110 C.3   459  PRO459      0.1504
     36  C         -7.0520    1.9290   52.4150 C.2   459  PRO459      0.2575
     37  O         -7.3720    2.0200   53.6050 O.2   459  PRO459     -0.2718
     38  CB        -6.1510    3.9620   51.2150 C.3   459  PRO459      0.0282
     39  CG        -5.1550    4.0770   50.1130 C.3   459  PRO459      0.0208
     40  CD        -4.9390    2.6720   49.6350 C.3   459  PRO459      0.0893
     41  N         -7.7530    1.1930   51.5430 N.am  460  ILE460     -0.1980
     42  CA        -8.9250    0.4450   51.9910 C.3   460  ILE460      0.1595
     43  C         -8.5080   -0.6990   52.9060 C.2   460  ILE460      0.2287
     44  O         -9.1450   -0.9580   53.9370 O.2   460  ILE460     -0.2864
     45  CB        -9.7220   -0.0610   50.7760 C.3   460  ILE460      0.0276
     46  CG1      -10.1240    1.1110   49.8800 C.3   460  ILE460      0.0022
     47  CG2      -10.9490   -0.8410   51.2360 C.3   460  ILE460      0.0022
     48  CD1      -10.7590    0.6870   48.5710 C.3   460  ILE460      0.0001
     49  N         -7.6530    0.7880   56.2610 N.3   463  CYS463     -0.1235
     50  CA        -8.8570    1.1550   56.9960 C.3   463  CYS463      0.1677
     51  C         -9.5720   -0.0730   57.5570 C.2   463  CYS463      0.2270
     52  O        -10.1640   -0.0060   58.6410 O.2   463  CYS463     -0.2867
     53  CB        -9.7880    1.9590   56.0870 C.3   463  CYS463      0.0956
     54  SG       -11.2920    2.5530   56.8820 S.3   463  CYS463     -0.0801
     55  N         -9.0920    7.6050   59.1750 N.3   473  PHE473     -0.1241
     56  CA       -10.1030    7.8160   58.1440 C.3   473  PHE473      0.1605
     57  C        -11.3880    8.3900   58.7260 C.2   473  PHE473      0.2264
     58  O        -12.0500    9.2190   58.0830 O.2   473  PHE473     -0.2867
     59  CB       -10.3820    6.5070   57.4060 C.3   473  PHE473      0.0534
     60  CG        -9.4260    6.2390   56.2780 C.ar  473  PHE473     -0.0203
     61  CD1       -9.6390    6.7950   55.0290 C.ar  473  PHE473     -0.0042
     62  CD2       -8.3110    5.4410   56.4690 C.ar  473  PHE473     -0.0042
     63  CE1       -8.7590    6.5550   53.9880 C.ar  473  PHE473     -0.0003
     64  CE2       -7.4250    5.2000   55.4330 C.ar  473  PHE473     -0.0003
     65  CZ        -7.6500    5.7570   54.1940 C.ar  473  PHE473     -0.0000
     66  N        -12.9930   11.9710   57.5800 N.3   477  PHE477     -0.1241
     67  CA       -14.3310   12.0690   57.0110 C.3   477  PHE477      0.1605
     68  C        -15.3990   12.3720   58.0570 C.2   477  PHE477      0.2264
     69  O        -16.5760   12.0650   57.8400 O.2   477  PHE477     -0.2867
     70  CB       -14.6690   10.7940   56.2390 C.3   477  PHE477      0.0534
     71  CG       -13.8220   10.5990   55.0150 C.ar  477  PHE477     -0.0203
     72  CD1      -13.9660   11.4350   53.9190 C.ar  477  PHE477     -0.0042
     73  CD2      -12.8690    9.5990   54.9660 C.ar  477  PHE477     -0.0042
     74  CE1      -13.1840   11.2680   52.7940 C.ar  477  PHE477     -0.0003
     75  CE2      -12.0830    9.4270   53.8450 C.ar  477  PHE477     -0.0003
     76  CZ       -12.2420   10.2610   52.7570 C.ar  477  PHE477     -0.0000
@<TRIPOS>BOND
     1     6     5    1
     2     1     2    1
     3     5     7    1
     4     5     2    1
     5     2     3    1
     6    33    32    1
     7    32    31    1
     8     8     3   am
     9     8     9    1
    10     3     4    2
    11    31    30    1
    12    13    12    1
    13    26    27    1
    14    30    27    1
    15    12     9    1
    16    12    14    1
    17     9    10    1
    18    27    28    1
    19    10    11    2
    20    28    29    2
    21    15    16    1
    22    21    19    1
    23    19    16    1
    24    19    20    1
    25    16    17    1
    26    48    46    1
    27    22    17   am
    28    22    23    1
    29    17    18    2
    30    40    39    1
    31    40    34    1
    32    23    24    1
    33    46    45    1
    34    39    38    1
    35    24    25    2
    36    45    47    1
    37    45    42    1
    38    34    35    1
    39    38    35    1
    40    41    42    1
    41    41    36   am
    42    35    36    1
    43    42    43    1
    44    36    37    2
    45    76    74   ar
    46    76    75   ar
    47    74    72   ar
    48    43    44    2
    49    75    73   ar
    50    72    71   ar
    51    63    65   ar
    52    63    61   ar
    53    65    64   ar
    54    73    71   ar
    55    71    70    1
    56    61    60   ar
    57    64    62   ar
    58    53    54    1
    59    53    50    1
    60    70    67    1
    61    49    50    1
    62    60    62   ar
    63    60    59    1
    64    50    51    1
    65    67    66    1
    66    67    68    1
    67    59    56    1
    68    51    52    2
    69    69    68    2
    70    58    57    2
    71    56    57    1
    72    56    55    1
