@<TRIPOS>MOLECULE
tmp/6hlpA25.pdb
 96 89 0 0 0
SMALL
GASTEIGER

@<TRIPOS>ATOM
      1  N          8.1590  -10.4440   44.9020 N.3   183  LEU183     -0.1231
      2  CA         7.1500  -11.3390   45.4500 C.3   183  LEU183      0.1693
      3  C          7.7860  -12.5640   46.0880 C.2   183  LEU183      0.2591
      4  O          7.3450  -13.0070   47.1500 O.2   183  LEU183     -0.2718
      5  CB         6.1520  -11.7530   44.3710 C.3   183  LEU183      0.0284
      6  CG         5.1690  -10.6530   43.9680 C.3   183  LEU183      0.0019
      7  CD1        4.1110  -11.2040   43.0460 C.3   183  LEU183      0.0001
      8  CD2        4.5390  -10.0230   45.1970 C.3   183  LEU183      0.0001
      9  N          8.8420  -13.1070   45.4800 N.am  184  LEU184     -0.1980
     10  CA         9.5020  -14.2560   46.0920 C.3   184  LEU184      0.1596
     11  C         10.1670  -13.8670   47.4030 C.2   184  LEU184      0.2287
     12  O         10.0910  -14.6100   48.3920 O.2   184  LEU184     -0.2864
     13  CB        10.5260  -14.8580   45.1290 C.3   184  LEU184      0.0297
     14  CG         9.9380  -15.4150   43.8340 C.3   184  LEU184      0.0022
     15  CD1       11.0360  -15.8750   42.8830 C.3   184  LEU184      0.0001
     16  CD2        8.9710  -16.5490   44.1390 C.3   184  LEU184      0.0001
     17  N          9.3720  -11.2520   49.4700 N.3   186  ILE186     -0.1231
     18  CA         8.3410  -10.9760   50.4610 C.3   186  ILE186      0.1692
     19  C          7.6340  -12.2590   50.8780 C.2   186  ILE186      0.2592
     20  O          7.2590  -12.4150   52.0470 O.2   186  ILE186     -0.2718
     21  CB         7.3480   -9.9310   49.9100 C.3   186  ILE186      0.0266
     22  CG1        8.0410   -8.5850   49.6950 C.3   186  ILE186      0.0019
     23  CG2        6.1790   -9.7420   50.8500 C.3   186  ILE186      0.0020
     24  CD1        7.1730   -7.5800   48.9430 C.3   186  ILE186      0.0001
     25  N          7.4740  -13.2100   49.9570 N.am  187  GLY187     -0.1957
     26  CA         6.8340  -14.4580   50.3190 C.3   187  GLY187      0.1869
     27  C          7.6840  -15.2750   51.2670 C.2   187  GLY187      0.2309
     28  O          7.1740  -15.8150   52.2500 O.2   187  GLY187     -0.2863
     29  N          7.5470  -13.2460   54.8050 N.3   190  TYR190     -0.1227
     30  CA         6.2960  -13.4000   55.5310 C.3   190  TYR190      0.1736
     31  C          5.9240  -14.8550   55.7910 C.2   190  TYR190      0.2596
     32  O          5.1860  -15.1120   56.7380 O.2   190  TYR190     -0.2718
     33  CB         5.1640  -12.6770   54.7970 C.3   190  TYR190      0.0548
     34  CG         5.1860  -11.1770   55.0440 C.ar  190  TYR190     -0.0200
     35  CD1        5.6210  -10.6580   56.2640 C.ar  190  TYR190     -0.0009
     36  CD2        4.7880  -10.2840   54.0580 C.ar  190  TYR190     -0.0009
     37  CE1        5.6500   -9.2860   56.4910 C.ar  190  TYR190      0.0417
     38  CE2        4.8150   -8.9200   54.2700 C.ar  190  TYR190      0.0417
     39  CZ         5.2450   -8.4240   55.4840 C.ar  190  TYR190      0.1957
     40  OH         5.2670   -7.0630   55.6730 O.3   190  TYR190     -0.2866
     41  N          6.4500  -15.8170   55.0320 N.am  191  THR191     -0.1953
     42  CA         6.2330  -17.2080   55.4000 C.3   191  THR191      0.1897
     43  C          6.9600  -17.5260   56.6970 C.2   191  THR191      0.2313
     44  O          6.3760  -18.0950   57.6310 O.2   191  THR191     -0.2863
     45  CB         6.7020  -18.1380   54.2770 C.3   191  THR191      0.1794
     46  OG1        5.8340  -18.0120   53.1450 O.3   191  THR191     -0.2208
     47  CG2        6.6960  -19.5890   54.7450 C.3   191  THR191      0.0378
     48  N          5.2470  -15.4550   59.5390 N.3   194  GLY194     -0.1210
     49  CA         3.9000  -15.8690   59.8770 C.3   194  GLY194      0.1956
     50  C          3.8710  -17.2240   60.5490 C.2   194  GLY194      0.2611
     51  O          3.1100  -17.4370   61.4990 O.2   194  GLY194     -0.2717
     52  N          4.7430  -18.1380   60.1130 N.am  195  ILE195     -0.1979
     53  CA         4.8420  -19.4140   60.8070 C.3   195  ILE195      0.1595
     54  C          5.3750  -19.2110   62.2190 C.2   195  ILE195      0.2287
     55  O          4.8490  -19.7900   63.1790 O.2   195  ILE195     -0.2864
     56  CB         5.7080  -20.3950   59.9970 C.3   195  ILE195      0.0276
     57  CG1        4.9830  -20.7740   58.6970 C.3   195  ILE195      0.0022
     58  CG2        6.0460  -21.6220   60.8410 C.3   195  ILE195      0.0022
     59  CD1        5.8030  -21.6020   57.7150 C.3   195  ILE195      0.0001
     60  N          2.4840  -17.6660   64.3610 N.3   198  ARG198     -0.1245
     61  CA         1.3990  -18.5990   64.6480 C.3   198  ARG198      0.1563
     62  C          1.8500  -19.7030   65.6020 C.2   198  ARG198      0.2260
     63  O          1.0940  -20.1060   66.4920 O.2   198  ARG198     -0.2867
     64  CB         0.8590  -19.1960   63.3430 C.3   198  ARG198      0.0307
     65  CG        -0.3780  -20.0920   63.5140 C.3   198  ARG198      0.0489
     66  CD        -1.0130  -20.4270   62.1550 C.3   198  ARG198      0.2205
     67  NE         0.0340  -20.6500   61.1690 N.pl3 198  ARG198     -0.0865
     68  CZ         0.2140  -19.9470   60.0560 C.cat 198  ARG198      0.5346
     69  NH1       -0.6110  -18.9660   59.7130 N.pl3 198  ARG198      0.1354
     70  NH2        1.2310  -20.2510   59.2720 N.pl3 198  ARG198      0.1354
     71  N          0.3310   -9.0550   54.4560 N.3   409  ILE409     -0.1245
     72  CA         0.1620  -10.1790   53.5460 C.3   409  ILE409      0.1561
     73  C         -1.0090   -9.9240   52.6080 C.2   409  ILE409      0.2260
     74  O         -0.9460  -10.2470   51.4130 O.2   409  ILE409     -0.2867
     75  CB        -0.0150  -11.4890   54.3360 C.3   409  ILE409      0.0252
     76  CG1        1.2930  -11.8770   55.0290 C.3   409  ILE409      0.0019
     77  CG2       -0.4880  -12.6010   53.4220 C.3   409  ILE409      0.0019
     78  CD1        1.1510  -13.0340   55.9980 C.3   409  ILE409      0.0001
     79  N          0.2960   -7.5890   49.8830 N.3   412  VAL412     -0.1231
     80  CA         1.1510   -8.1920   48.8670 C.3   412  VAL412      0.1692
     81  C          0.3550   -9.1410   47.9740 C.2   412  VAL412      0.2592
     82  O          0.5860   -9.2060   46.7610 O.2   412  VAL412     -0.2718
     83  CB         2.3510   -8.8920   49.5250 C.3   412  VAL412      0.0266
     84  CG1        3.2820   -9.4380   48.4570 C.3   412  VAL412      0.0020
     85  CG2        3.0950   -7.9140   50.4040 C.3   412  VAL412      0.0020
     86  N         -0.5930   -9.8910   48.5460 N.am  413  CYS413     -0.1970
     87  CA        -1.4060  -10.7710   47.7150 C.3   413  CYS413      0.1712
     88  C         -2.2740   -9.9700   46.7520 C.2   413  CYS413      0.2296
     89  O         -2.4870  -10.3870   45.6060 O.2   413  CYS413     -0.2864
     90  CB        -2.2740  -11.6790   48.5870 C.3   413  CYS413      0.0983
     91  SG        -1.3630  -12.9650   49.5070 S.3   413  CYS413     -0.0798
     92  N         -0.0920   -8.9430   43.9170 N.3   416  ALA416     -0.1245
     93  CA         0.2050  -10.0850   43.0560 C.3   416  ALA416      0.1562
     94  C         -0.9680  -10.4080   42.1400 C.2   416  ALA416      0.2260
     95  O         -0.7850  -10.6600   40.9390 O.2   416  ALA416     -0.2867
     96  CB         0.5690  -11.2990   43.9150 C.3   416  ALA416      0.0290
@<TRIPOS>BOND
     1    95    94    2
     2    94    93    1
     3    15    14    1
     4     7     6    1
     5    93    96    1
     6    93    92    1
     7    14    16    1
     8    14    13    1
     9     6     5    1
    10     6     8    1
    11     5     2    1
    12     1     2    1
    13    13    10    1
    14     2     3    1
    15     9     3   am
    16     9    10    1
    17    89    88    2
    18     3     4    2
    19    10    11    1
    20    88    87    1
    21    82    81    2
    22    11    12    2
    23    87    86    1
    24    87    90    1
    25    81    86   am
    26    81    80    1
    27    84    83    1
    28    90    91    1
    29    80    83    1
    30    80    79    1
    31    24    22    1
    32    17    18    1
    33    83    85    1
    34    22    21    1
    35    21    18    1
    36    21    23    1
    37    25    26    1
    38    25    19   am
    39    26    27    1
    40    18    19    1
    41    19    20    2
    42    27    28    2
    43    74    73    2
    44    73    72    1
    45    46    45    1
    46    77    75    1
    47    72    75    1
    48    72    71    1
    49    36    38   ar
    50    36    34   ar
    51    38    39   ar
    52    45    47    1
    53    45    42    1
    54    75    76    1
    55    33    34    1
    56    33    30    1
    57    29    30    1
    58    76    78    1
    59    41    42    1
    60    41    31   am
    61    34    35   ar
    62    42    43    1
    63    39    40    1
    64    39    37   ar
    65    30    31    1
    66    31    32    2
    67    35    37   ar
    68    43    44    2
    69    59    57    1
    70    57    56    1
    71    70    68    1
    72    48    49    1
    73    69    68    1
    74    49    50    1
    75    56    53    1
    76    56    58    1
    77    68    67    2
    78    52    50   am
    79    52    53    1
    80    50    51    2
    81    53    54    1
    82    67    66    1
    83    66    65    1
    84    54    55    2
    85    64    65    1
    86    64    61    1
    87    60    61    1
    88    61    62    1
    89    62    63    2
