@<TRIPOS>MOLECULE
tmp/6hlpA28.pdb
 99 92 0 0 0
SMALL
GASTEIGER

@<TRIPOS>ATOM
      1  N          8.0740    0.1730   40.8030 N.3    91  PHE91      -0.1241
      2  CA         9.3080   -0.2290   41.4670 C.3    91  PHE91       0.1605
      3  C          9.3920    0.3780   42.8630 C.2    91  PHE91       0.2264
      4  O          9.6180   -0.3360   43.8490 O.2    91  PHE91      -0.2867
      5  CB        10.5160    0.1800   40.6150 C.3    91  PHE91       0.0534
      6  CG        11.8480   -0.2730   41.1680 C.ar   91  PHE91      -0.0203
      7  CD1       12.4470    0.4000   42.2220 C.ar   91  PHE91      -0.0042
      8  CD2       12.5100   -1.3600   40.6170 C.ar   91  PHE91      -0.0042
      9  CE1       13.6710   -0.0080   42.7250 C.ar   91  PHE91      -0.0003
     10  CE2       13.7350   -1.7710   41.1170 C.ar   91  PHE91      -0.0003
     11  CZ        14.3150   -1.0920   42.1710 C.ar   91  PHE91      -0.0000
     12  N          9.1520   -2.0480   46.1880 N.3    95  TYR95      -0.1241
     13  CA        10.3290   -2.1590   47.0390 C.3    95  TYR95       0.1605
     14  C         10.1520   -1.4650   48.3820 C.2    95  TYR95       0.2264
     15  O         10.8130   -1.8610   49.3510 O.2    95  TYR95      -0.2867
     16  CB        11.5760   -1.6640   46.3090 C.3    95  TYR95       0.0534
     17  CG        12.0970   -2.7560   45.4120 C.ar   95  TYR95      -0.0201
     18  CD1       12.9300   -3.7560   45.9050 C.ar   95  TYR95      -0.0009
     19  CD2       11.6910   -2.8380   44.0910 C.ar   95  TYR95      -0.0009
     20  CE1       13.3780   -4.7850   45.0840 C.ar   95  TYR95       0.0417
     21  CE2       12.1300   -3.8510   43.2710 C.ar   95  TYR95       0.0417
     22  CZ        12.9690   -4.8220   43.7650 C.ar   95  TYR95       0.1957
     23  OH        13.3910   -5.8260   42.9210 O.3    95  TYR95      -0.2866
     24  N          8.6830   -4.2530   50.2090 N.3    98  THR98      -0.1203
     25  CA         9.7360   -5.2140   50.5180 C.3    98  THR98       0.1994
     26  C         10.5670   -4.7580   51.7140 C.2    98  THR98       0.2617
     27  O         10.9480   -5.5770   52.5630 O.2    98  THR98      -0.2717
     28  CB        10.6220   -5.4240   49.2900 C.3    98  THR98       0.1784
     29  OG1        9.8180   -5.8910   48.2010 O.3    98  THR98      -0.2211
     30  CG2       11.6980   -6.4550   49.5750 C.3    98  THR98       0.0376
     31  N         10.8360   -3.4510   51.8120 N.am   99  ALA99      -0.1979
     32  CA        11.5510   -2.9430   52.9790 C.3    99  ALA99       0.1597
     33  C         10.7320   -3.1210   54.2510 C.2    99  ALA99       0.2287
     34  O         11.2880   -3.4160   55.3180 O.2    99  ALA99      -0.2864
     35  CB        11.9120   -1.4720   52.7830 C.3    99  ALA99       0.0319
     36  N         11.0570   -6.7340   55.2640 N.3   102  PHE102     -0.1241
     37  CA        12.3750   -6.9990   55.8290 C.3   102  PHE102      0.1605
     38  C         12.4960   -6.4390   57.2410 C.2   102  PHE102      0.2264
     39  O         13.1120   -7.0630   58.1130 O.2   102  PHE102     -0.2867
     40  CB        13.4530   -6.4100   54.9230 C.3   102  PHE102      0.0534
     41  CG        14.8290   -6.9190   55.2120 C.ar  102  PHE102     -0.0203
     42  CD1       15.3040   -8.0550   54.5800 C.ar  102  PHE102     -0.0042
     43  CD2       15.6530   -6.2590   56.1130 C.ar  102  PHE102     -0.0042
     44  CE1       16.5760   -8.5290   54.8430 C.ar  102  PHE102     -0.0003
     45  CE2       16.9280   -6.7270   56.3820 C.ar  102  PHE102     -0.0003
     46  CZ        17.3900   -7.8650   55.7470 C.ar  102  PHE102     -0.0000
     47  N         17.0840    5.2210   52.4910 N.3   124  VAL124     -0.1245
     48  CA        16.6940    4.0520   51.7090 C.3   124  VAL124      0.1561
     49  C         15.5960    4.4120   50.7180 C.2   124  VAL124      0.2260
     50  O         15.5630    3.9050   49.5920 O.2   124  VAL124     -0.2867
     51  CB        16.2670    2.9080   52.6470 C.3   124  VAL124      0.0252
     52  CG1       15.5910    1.7880   51.8610 C.3   124  VAL124      0.0019
     53  CG2       17.4750    2.3770   53.3930 C.3   124  VAL124      0.0019
     54  N         17.2270    6.0880   47.8420 N.3   127  VAL127     -0.1231
     55  CA        17.9470    5.1160   47.0250 C.3   127  VAL127      0.1692
     56  C         16.9740    4.3210   46.1660 C.2   127  VAL127      0.2591
     57  O         17.2440    4.0360   44.9900 O.2   127  VAL127     -0.2718
     58  CB        18.7910    4.1920   47.9210 C.3   127  VAL127      0.0266
     59  CG1       19.2640    2.9740   47.1330 C.3   127  VAL127      0.0020
     60  CG2       19.9710    4.9540   48.5130 C.3   127  VAL127      0.0020
     61  N         15.8180    3.9680   46.7350 N.am  128  ILE128     -0.1980
     62  CA        14.8120    3.2320   45.9810 C.3   128  ILE128      0.1595
     63  C         14.3450    4.0560   44.7960 C.2   128  ILE128      0.2287
     64  O         14.2090    3.5420   43.6790 O.2   128  ILE128     -0.2864
     65  CB        13.6300    2.8520   46.8920 C.3   128  ILE128      0.0276
     66  CG1       14.0140    1.7220   47.8480 C.3   128  ILE128      0.0022
     67  CG2       12.4180    2.4710   46.0600 C.3   128  ILE128      0.0022
     68  CD1       12.9220    1.3860   48.8310 C.3   128  ILE128      0.0001
     69  N         17.0820    4.1440   42.0560 N.3   131  LEU131     -0.1245
     70  CA        17.1030    2.9080   41.2810 C.3   131  LEU131      0.1561
     71  C         15.8800    2.7950   40.3780 C.2   131  LEU131      0.2260
     72  O         15.9860    2.3210   39.2410 O.2   131  LEU131     -0.2867
     73  CB        17.1920    1.7020   42.2160 C.3   131  LEU131      0.0270
     74  CG        18.4450    1.6510   43.0930 C.3   131  LEU131      0.0019
     75  CD1       18.5000    0.3650   43.8890 C.3   131  LEU131      0.0001
     76  CD2       19.6910    1.8090   42.2370 C.3   131  LEU131      0.0001
     77  N         12.1870   -7.5930   38.1880 N.3   177  LEU177     -0.1245
     78  CA        12.4840   -6.6590   39.2730 C.3   177  LEU177      0.1561
     79  C         11.2310   -6.1020   39.9360 C.2   177  LEU177      0.2260
     80  O         11.2470   -5.8250   41.1410 O.2   177  LEU177     -0.2867
     81  CB        13.3560   -5.5140   38.7590 C.3   177  LEU177      0.0270
     82  CG        14.7950   -5.9220   38.4480 C.3   177  LEU177      0.0019
     83  CD1       15.5490   -4.8100   37.7410 C.3   177  LEU177      0.0001
     84  CD2       15.4980   -6.3190   39.7360 C.3   177  LEU177      0.0001
     85  N         10.7320  -11.2390   41.4590 N.3   181  LEU181     -0.1245
     86  CA        11.7170  -11.2020   42.5390 C.3   181  LEU181      0.1561
     87  C         11.1770  -10.6080   43.8370 C.2   181  LEU181      0.2260
     88  O         11.3330  -11.2480   44.8950 O.2   181  LEU181     -0.2867
     89  CB        12.9750  -10.4580   42.0740 C.3   181  LEU181      0.0270
     90  CG        13.9710  -10.1700   43.2050 C.3   181  LEU181      0.0019
     91  CD1       14.5490  -11.4700   43.7600 C.3   181  LEU181      0.0001
     92  CD2       15.0770   -9.2360   42.7380 C.3   181  LEU181      0.0001
     93  N         10.7710  -12.6780   47.4460 N.3   185  VAL185     -0.1245
     94  CA        11.4510  -12.2370   48.6600 C.3   185  VAL185      0.1561
     95  C         10.4420  -11.9890   49.7770 C.2   185  VAL185      0.2260
     96  O         10.6110  -12.4600   50.9120 O.2   185  VAL185     -0.2867
     97  CB        12.2950  -10.9850   48.3670 C.3   185  VAL185      0.0252
     98  CG1       12.8290  -10.3810   49.6600 C.3   185  VAL185      0.0019
     99  CG2       13.4290  -11.3290   47.4230 C.3   185  VAL185      0.0019
@<TRIPOS>BOND
     1    83    82    1
     2    77    78    1
     3    82    81    1
     4    82    84    1
     5    81    78    1
     6    72    71    2
     7    78    79    1
     8    79    80    2
     9    71    70    1
    10     5     6    1
    11     5     2    1
    12     8    10   ar
    13     8     6   ar
    14     1     2    1
    15    10    11   ar
    16     6     7   ar
    17    70    69    1
    18    70    73    1
    19    85    86    1
    20     2     3    1
    21    89    86    1
    22    89    90    1
    23    11     9   ar
    24    73    74    1
    25     7     9   ar
    26    76    74    1
    27    86    87    1
    28    92    90    1
    29     3     4    2
    30    23    22    1
    31    74    75    1
    32    90    91    1
    33    21    22   ar
    34    21    19   ar
    35    64    63    2
    36    22    20   ar
    37    87    88    2
    38    19    17   ar
    39    63    62    1
    40    57    56    2
    41    20    18   ar
    42    17    18   ar
    43    17    16    1
    44    62    61    1
    45    62    65    1
    46    67    65    1
    47    56    61   am
    48    56    55    1
    49    12    13    1
    50    16    13    1
    51    65    66    1
    52    55    54    1
    53    55    58    1
    54    13    14    1
    55    59    58    1
    56    99    97    1
    57    93    94    1
    58    66    68    1
    59    58    60    1
    60    29    28    1
    61    97    94    1
    62    97    98    1
    63    14    15    2
    64    94    95    1
    65    28    30    1
    66    28    25    1
    67    50    49    2
    68    95    96    2
    69    24    25    1
    70    25    26    1
    71    49    48    1
    72    48    47    1
    73    48    51    1
    74    26    31   am
    75    26    27    2
    76    31    32    1
    77    52    51    1
    78    51    53    1
    79    35    32    1
    80    32    33    1
    81    33    34    2
    82    42    44   ar
    83    42    41   ar
    84    44    46   ar
    85    40    41    1
    86    40    37    1
    87    41    43   ar
    88    36    37    1
    89    46    45   ar
    90    37    38    1
    91    43    45   ar
    92    38    39    2
