@<TRIPOS>MOLECULE
tmp/6hlpA10.pdb
 103 97 0 0 0
SMALL
GASTEIGER

@<TRIPOS>ATOM
      1  N         12.7790   -7.5750   63.0520 N.3   107  ALA107     -0.1231
      2  CA        12.2920   -7.3820   64.4120 C.3   107  ALA107      0.1694
      3  C         11.8730   -8.6960   65.0580 C.2   107  ALA107      0.2591
      4  O         12.0310   -8.8670   66.2710 O.2   107  ALA107     -0.2718
      5  CB        11.1260   -6.3970   64.4200 C.3   107  ALA107      0.0304
      6  N         11.3530   -9.6380   64.2810 N.am  108  ILE108     -0.1980
      7  CA        10.8120  -10.8650   64.8460 C.3   108  ILE108      0.1595
      8  C         11.8310  -12.0010   64.8430 C.2   108  ILE108      0.2287
      9  O         11.8990  -12.7740   65.7980 O.2   108  ILE108     -0.2864
     10  CB         9.5190  -11.2530   64.0990 C.3   108  ILE108      0.0276
     11  CG1        8.3930  -10.2980   64.4950 C.3   108  ILE108      0.0022
     12  CG2        9.1150  -12.6910   64.3850 C.3   108  ILE108      0.0022
     13  CD1        7.1490  -10.4500   63.6550 C.3   108  ILE108      0.0001
     14  N         15.7760  -10.0370   66.7240 N.3   111  PRO111     -0.2116
     15  CA        15.5170   -8.8100   67.5010 C.3   111  PRO111      0.1372
     16  C         16.7750   -8.0900   67.9650 C.2   111  PRO111      0.2244
     17  O         16.7550   -6.8600   68.0980 O.2   111  PRO111     -0.2868
     18  CB        14.6810   -9.3170   68.6870 C.3   111  PRO111      0.0268
     19  CG        14.9340  -10.7930   68.7530 C.3   111  PRO111      0.0207
     20  CD        15.1660  -11.2280   67.3400 C.3   111  PRO111      0.0892
     21  N          6.3930  -18.3550   62.3830 N.3   196  THR196     -0.1203
     22  CA         6.9460  -18.1420   63.7180 C.3   196  THR196      0.1994
     23  C          5.9110  -17.5350   64.6570 C.2   196  THR196      0.2617
     24  O          5.7980  -17.9450   65.8190 O.2   196  THR196     -0.2717
     25  CB         8.1840  -17.2460   63.6440 C.3   196  THR196      0.1784
     26  OG1        9.1960  -17.8950   62.8640 O.3   196  THR196     -0.2211
     27  CG2        8.7330  -16.9610   65.0450 C.3   196  THR196      0.0376
     28  N          5.1090  -16.5980   64.1600 N.am  197  LEU197     -0.1979
     29  CA         4.1220  -15.9650   65.0230 C.3   197  LEU197      0.1596
     30  C          2.9780  -16.9160   65.3520 C.2   197  LEU197      0.2287
     31  O          2.5410  -16.9880   66.5080 O.2   197  LEU197     -0.2864
     32  CB         3.5980  -14.6860   64.3710 C.3   197  LEU197      0.0297
     33  CG         4.6070  -13.5390   64.2700 C.3   197  LEU197      0.0022
     34  CD1        4.0110  -12.3690   63.5110 C.3   197  LEU197      0.0001
     35  CD2        5.0680  -13.1040   65.6730 C.3   197  LEU197      0.0001
     36  N          4.0210  -19.3970   67.8970 N.3   200  SER200     -0.1217
     37  CA         4.2170  -18.7710   69.2000 C.3   200  SER200      0.1889
     38  C          2.8750  -18.3050   69.7520 C.2   200  SER200      0.2288
     39  O          2.7800  -17.8300   70.8830 O.2   200  SER200     -0.2866
     40  CB         5.1850  -17.5890   69.0960 C.3   200  SER200      0.2089
     41  OG         6.3900  -17.9620   68.4490 O.3   200  SER200     -0.2183
     42  N         11.9210  -24.9420   68.8440 N.3   322  PRO322     -0.2102
     43  CA        11.8910  -23.6690   68.1020 C.3   322  PRO322      0.1504
     44  C         10.9120  -22.6380   68.6570 C.2   322  PRO322      0.2575
     45  O         11.1970  -21.4390   68.5670 O.2   322  PRO322     -0.2718
     46  CB        11.5280  -24.1040   66.6650 C.3   322  PRO322      0.0282
     47  CG        10.9460  -25.4810   66.8020 C.3   322  PRO322      0.0208
     48  CD        11.6420  -26.1020   67.9750 C.3   322  PRO322      0.0893
     49  N          9.7760  -23.0490   69.2270 N.am  323  PHE323     -0.1977
     50  CA         8.7550  -22.0660   69.5730 C.3   323  PHE323      0.1639
     51  C          8.3140  -22.0870   71.0370 C.2   323  PHE323      0.2290
     52  O          8.0220  -21.0270   71.6020 O.2   323  PHE323     -0.2864
     53  CB         7.5660  -22.2330   68.6280 C.3   323  PHE323      0.0560
     54  CG         7.9550  -22.1230   67.1840 C.ar  323  PHE323     -0.0200
     55  CD1        8.3630  -20.9020   66.6630 C.ar  323  PHE323     -0.0042
     56  CD2        7.9560  -23.2380   66.3540 C.ar  323  PHE323     -0.0042
     57  CE1        8.7470  -20.7910   65.3330 C.ar  323  PHE323     -0.0003
     58  CE2        8.3300  -23.1310   65.0220 C.ar  323  PHE323     -0.0003
     59  CZ         8.7280  -21.9060   64.5130 C.ar  323  PHE323     -0.0000
     60  N         12.8120  -21.0870   71.4340 N.3   344  GLY344     -0.1225
     61  CA        11.7300  -20.3000   71.9960 C.3   344  GLY344      0.1811
     62  C         11.6890  -20.3290   73.5110 C.2   344  GLY344      0.2280
     63  O         11.2170  -19.3740   74.1350 O.2   344  GLY344     -0.2866
     64  N         13.8930  -17.7200   74.5450 N.3   347  ASP347     -0.1239
     65  CA        13.2710  -16.4220   74.2740 C.3   347  ASP347      0.1674
     66  C         12.2370  -16.0420   75.3360 C.2   347  ASP347      0.2266
     67  O         12.1770  -14.8830   75.7640 O.2   347  ASP347     -0.2867
     68  CB        12.6200  -16.4230   72.8890 C.3   347  ASP347      0.1410
     69  CG        13.6340  -16.4830   71.7640 C.2   347  ASP347      0.3668
     70  OD1       14.7620  -15.9790   71.9450 O.co2 347  ASP347     -0.2456
     71  OD2       13.2980  -17.0310   70.6920 O.co2 347  ASP347     -0.2456
     72  N          3.8470  -11.6080   76.5770 N.3   394  PHE394     -0.1241
     73  CA         4.4010  -12.2020   75.3620 C.3   394  PHE394      0.1605
     74  C          3.2980  -12.5460   74.3680 C.2   394  PHE394      0.2264
     75  O          3.4710  -12.3720   73.1570 O.2   394  PHE394     -0.2867
     76  CB         5.2220  -13.4460   75.7110 C.3   394  PHE394      0.0534
     77  CG         5.8350  -14.1430   74.5190 C.ar  394  PHE394     -0.0203
     78  CD1        5.1300  -15.1130   73.8170 C.ar  394  PHE394     -0.0042
     79  CD2        7.1310  -13.8480   74.1170 C.ar  394  PHE394     -0.0042
     80  CE1        5.6980  -15.7630   72.7250 C.ar  394  PHE394     -0.0003
     81  CE2        7.7030  -14.4940   73.0250 C.ar  394  PHE394     -0.0003
     82  CZ         6.9850  -15.4530   72.3300 C.ar  394  PHE394     -0.0000
     83  N          1.9810   -9.3020   72.5670 N.3   397  GLN397     -0.1231
     84  CA         2.8460   -8.8670   71.4750 C.3   397  GLN397      0.1698
     85  C          2.6840   -9.7530   70.2470 C.2   397  GLN397      0.2592
     86  O          2.6910   -9.2610   69.1080 O.2   397  GLN397     -0.2718
     87  CB         4.3050   -8.8620   71.9340 C.3   397  GLN397      0.0381
     88  CG         4.5800   -7.9890   73.1430 C.3   397  GLN397      0.0905
     89  CD         5.9830   -8.1850   73.6910 C.2   397  GLN397      0.2608
     90  OE1        6.9370   -8.3640   72.9350 O.2   397  GLN397     -0.2717
     91  NE2        6.1110   -8.1710   75.0120 N.am  397  GLN397     -0.0878
     92  N          2.5050  -11.0610   70.4600 N.am  398  VAL398     -0.1980
     93  CA         2.3790  -11.9860   69.3370 C.3   398  VAL398      0.1595
     94  C          1.1070  -11.7060   68.5500 C.2   398  VAL398      0.2287
     95  O          1.1310  -11.6670   67.3150 O.2   398  VAL398     -0.2864
     96  CB         2.4270  -13.4480   69.8230 C.3   398  VAL398      0.0276
     97  CG1        1.9750  -14.4050   68.7050 C.3   398  VAL398      0.0022
     98  CG2        3.8300  -13.8030   70.2900 C.3   398  VAL398      0.0022
     99  N          1.4930   -8.3460   66.5390 N.3   401  ALA401     -0.1245
    100  CA         2.3400   -8.5480   65.3710 C.3   401  ALA401      0.1562
    101  C          1.6400   -9.4010   64.3230 C.2   401  ALA401      0.2260
    102  O          1.7910   -9.1580   63.1210 O.2   401  ALA401     -0.2867
    103  CB         3.6650   -9.1890   65.7830 C.3   401  ALA401      0.0290
@<TRIPOS>BOND
     1    21    22    1
     2    26    25    1
     3     1     2    1
     4   102   101    2
     5    34    33    1
     6    25    22    1
     7    25    27    1
     8    13    11    1
     9    22    23    1
    10    10    12    1
    11    10    11    1
    12    10     7    1
    13    28    23   am
    14    28    29    1
    15    33    32    1
    16    33    35    1
    17     6     7    1
    18     6     3   am
    19   101   100    1
    20    32    29    1
    21     2     5    1
    22     2     3    1
    23    59    58   ar
    24    59    57   ar
    25    23    24    2
    26     8     7    1
    27     8     9    2
    28    58    56   ar
    29    29    30    1
    30     3     4    2
    31    57    55   ar
    32    30    31    2
    33   100   103    1
    34   100    99    1
    35    56    54   ar
    36    55    54   ar
    37    46    47    1
    38    46    43    1
    39    14    20    1
    40    14    15    1
    41    47    48    1
    42    54    53    1
    43    95    94    2
    44    20    19    1
    45    15    16    1
    46    15    18    1
    47    36    37    1
    48    16    17    2
    49    48    42    1
    50    43    44    1
    51    43    42    1
    52    41    40    1
    53    94    93    1
    54    45    44    2
    55    53    50    1
    56    44    49   am
    57    18    19    1
    58    97    96    1
    59    40    37    1
    60    86    85    2
    61    37    38    1
    62    49    50    1
    63    93    96    1
    64    93    92    1
    65    50    51    1
    66    38    39    2
    67    96    98    1
    68    85    92   am
    69    85    84    1
    70    71    69   ar
    71    51    52    2
    72    60    61    1
    73    84    87    1
    74    84    83    1
    75    69    70   ar
    76    69    68    1
    77    87    88    1
    78    61    62    1
    79    82    80   ar
    80    82    81   ar
    81    80    78   ar
    82    68    65    1
    83    90    89    2
    84    81    79   ar
    85    88    89    1
    86    75    74    2
    87    62    63    2
    88    89    91   am
    89    78    77   ar
    90    79    77   ar
    91    65    64    1
    92    65    66    1
    93    74    73    1
    94    77    76    1
    95    66    67    2
    96    73    76    1
    97    73    72    1
