@<TRIPOS>MOLECULE
tmp/6hlpA20.pdb
 104 102 0 0 0
SMALL
GASTEIGER

@<TRIPOS>ATOM
      1  N         11.3530   -9.6380   64.2810 N.3   108  ILE108     -0.1231
      2  CA        10.8120  -10.8650   64.8460 C.3   108  ILE108      0.1692
      3  C         11.8310  -12.0010   64.8430 C.2   108  ILE108      0.2592
      4  O         11.8990  -12.7740   65.7980 O.2   108  ILE108     -0.2718
      5  CB         9.5190  -11.2530   64.0990 C.3   108  ILE108      0.0266
      6  CG1        8.3930  -10.2980   64.4950 C.3   108  ILE108      0.0019
      7  CG2        9.1150  -12.6910   64.3850 C.3   108  ILE108      0.0020
      8  CD1        7.1490  -10.4500   63.6550 C.3   108  ILE108      0.0001
      9  N         12.6440  -12.1110   63.7940 N.am  109  ILE109     -0.1966
     10  CA        13.5730  -13.2270   63.6630 C.3   109  ILE109      0.1727
     11  C         14.9540  -12.9150   64.2430 C.2   109  ILE109      0.2616
     12  O         15.6390  -13.8260   64.7210 O.2   109  ILE109     -0.2715
     13  CB        13.6730  -13.6460   62.1830 C.3   109  ILE109      0.0290
     14  CG1       12.2880  -13.9890   61.6370 C.3   109  ILE109      0.0022
     15  CG2       14.5920  -14.8460   62.0120 C.3   109  ILE109      0.0023
     16  CD1       11.5960  -15.0940   62.4140 C.3   109  ILE109      0.0001
     17  N         15.3970  -11.6570   64.2010 N.am  110  HIS110     -0.1960
     18  CA        16.6730  -11.2480   64.7940 C.3   110  HIS110      0.1772
     19  C         16.4840   -9.9680   65.5940 C.2   110  HIS110      0.2462
     20  O         16.9990   -8.9090   65.2190 O.2   110  HIS110     -0.2730
     21  CB        17.7400  -11.0430   63.7200 C.3   110  HIS110      0.0785
     22  CG        17.8100  -12.1480   62.7170 C.ar  110  HIS110      0.0821
     23  ND1       17.2150  -12.0630   61.4770 N.ar  110  HIS110     -0.2267
     24  CD2       18.3990  -13.3650   62.7700 C.ar  110  HIS110      0.1154
     25  CE1       17.4420  -13.1780   60.8060 C.ar  110  HIS110      0.1986
     26  NE2       18.1560  -13.9860   61.5690 N.ar  110  HIS110     -0.2212
     27  N         15.7760  -10.0370   66.7240 N.am  111  PRO111     -0.2727
     28  CA        15.5170   -8.8100   67.5010 C.3   111  PRO111      0.1402
     29  C         16.7750   -8.0900   67.9650 C.2   111  PRO111      0.2269
     30  O         16.7550   -6.8600   68.0980 O.2   111  PRO111     -0.2865
     31  CB        14.6810   -9.3170   68.6870 C.3   111  PRO111      0.0296
     32  CG        14.9340  -10.7930   68.7530 C.3   111  PRO111      0.0237
     33  CD        15.1660  -11.2280   67.3400 C.3   111  PRO111      0.0939
     34  N          9.0020  -15.3070   51.0380 N.3   188  TYR188     -0.1241
     35  CA         9.8850  -15.9550   52.0030 C.3   188  TYR188      0.1605
     36  C          9.8010  -15.2680   53.3610 C.2   188  TYR188      0.2264
     37  O          9.6270  -15.9280   54.3990 O.2   188  TYR188     -0.2867
     38  CB        11.3340  -15.9520   51.5080 C.3   188  TYR188      0.0534
     39  CG        12.3040  -16.2500   52.6370 C.ar  188  TYR188     -0.0201
     40  CD1       12.5720  -17.5590   53.0180 C.ar  188  TYR188     -0.0009
     41  CD2       12.9190  -15.2230   53.3480 C.ar  188  TYR188     -0.0009
     42  CE1       13.4330  -17.8380   54.0650 C.ar  188  TYR188      0.0417
     43  CE2       13.7790  -15.4900   54.3960 C.ar  188  TYR188      0.0417
     44  CZ        14.0350  -16.8000   54.7520 C.ar  188  TYR188      0.1957
     45  OH        14.8930  -17.0760   55.7950 O.3   188  TYR188     -0.2866
     46  N          6.4500  -15.8170   55.0320 N.3   191  THR191     -0.1203
     47  CA         6.2330  -17.2080   55.4000 C.3   191  THR191      0.1994
     48  C          6.9600  -17.5260   56.6970 C.2   191  THR191      0.2617
     49  O          6.3760  -18.0950   57.6310 O.2   191  THR191     -0.2717
     50  CB         6.7020  -18.1380   54.2770 C.3   191  THR191      0.1784
     51  OG1        5.8340  -18.0120   53.1450 O.3   191  THR191     -0.2211
     52  CG2        6.6960  -19.5890   54.7450 C.3   191  THR191      0.0376
     53  N          8.2240  -17.1050   56.7940 N.am  192  VAL192     -0.1979
     54  CA         8.9870  -17.3670   58.0090 C.3   192  VAL192      0.1595
     55  C          8.3640  -16.6350   59.1920 C.2   192  VAL192      0.2287
     56  O          8.1310  -17.2240   60.2590 O.2   192  VAL192     -0.2864
     57  CB        10.4620  -16.9790   57.8040 C.3   192  VAL192      0.0276
     58  CG1       11.2110  -17.0070   59.1170 C.3   192  VAL192      0.0022
     59  CG2       11.1110  -17.9170   56.7920 C.3   192  VAL192      0.0022
     60  N          4.7430  -18.1380   60.1130 N.3   195  ILE195     -0.1231
     61  CA         4.8420  -19.4140   60.8070 C.3   195  ILE195      0.1692
     62  C          5.3750  -19.2110   62.2190 C.2   195  ILE195      0.2592
     63  O          4.8490  -19.7900   63.1790 O.2   195  ILE195     -0.2718
     64  CB         5.7080  -20.3950   59.9970 C.3   195  ILE195      0.0266
     65  CG1        4.9830  -20.7740   58.6970 C.3   195  ILE195      0.0019
     66  CG2        6.0460  -21.6220   60.8410 C.3   195  ILE195      0.0020
     67  CD1        5.8030  -21.6020   57.7150 C.3   195  ILE195      0.0001
     68  N          6.3930  -18.3550   62.3830 N.am  196  THR196     -0.1953
     69  CA         6.9460  -18.1420   63.7180 C.3   196  THR196      0.1897
     70  C          5.9110  -17.5350   64.6570 C.2   196  THR196      0.2313
     71  O          5.7980  -17.9450   65.8190 O.2   196  THR196     -0.2863
     72  CB         8.1840  -17.2460   63.6440 C.3   196  THR196      0.1794
     73  OG1        9.1960  -17.8950   62.8640 O.3   196  THR196     -0.2208
     74  CG2        8.7330  -16.9610   65.0450 C.3   196  THR196      0.0378
     75  N         11.9210  -24.9420   68.8440 N.3   322  PRO322     -0.2102
     76  CA        11.8910  -23.6690   68.1020 C.3   322  PRO322      0.1504
     77  C         10.9120  -22.6380   68.6570 C.2   322  PRO322      0.2575
     78  O         11.1970  -21.4390   68.5670 O.2   322  PRO322     -0.2718
     79  CB        11.5280  -24.1040   66.6650 C.3   322  PRO322      0.0282
     80  CG        10.9460  -25.4810   66.8020 C.3   322  PRO322      0.0208
     81  CD        11.6420  -26.1020   67.9750 C.3   322  PRO322      0.0893
     82  N          9.7760  -23.0490   69.2270 N.am  323  PHE323     -0.1977
     83  CA         8.7550  -22.0660   69.5730 C.3   323  PHE323      0.1639
     84  C          8.3140  -22.0870   71.0370 C.2   323  PHE323      0.2290
     85  O          8.0220  -21.0270   71.6020 O.2   323  PHE323     -0.2864
     86  CB         7.5660  -22.2330   68.6280 C.3   323  PHE323      0.0560
     87  CG         7.9550  -22.1230   67.1840 C.ar  323  PHE323     -0.0200
     88  CD1        8.3630  -20.9020   66.6630 C.ar  323  PHE323     -0.0042
     89  CD2        7.9560  -23.2380   66.3540 C.ar  323  PHE323     -0.0042
     90  CE1        8.7470  -20.7910   65.3330 C.ar  323  PHE323     -0.0003
     91  CE2        8.3300  -23.1310   65.0220 C.ar  323  PHE323     -0.0003
     92  CZ         8.7280  -21.9060   64.5130 C.ar  323  PHE323     -0.0000
     93  N         16.2210  -21.9980   71.7740 N.3   343  GLY343     -0.1225
     94  CA        15.1120  -21.5880   70.9210 C.3   343  GLY343      0.1811
     95  C         14.0810  -20.7170   71.6220 C.2   343  GLY343      0.2280
     96  O         14.4000  -19.7430   72.3230 O.2   343  GLY343     -0.2866
     97  N         13.8930  -17.7200   74.5450 N.3   347  ASP347     -0.1239
     98  CA        13.2710  -16.4220   74.2740 C.3   347  ASP347      0.1674
     99  C         12.2370  -16.0420   75.3360 C.2   347  ASP347      0.2266
    100  O         12.1770  -14.8830   75.7640 O.2   347  ASP347     -0.2867
    101  CB        12.6200  -16.4230   72.8890 C.3   347  ASP347      0.1410
    102  CG        13.6340  -16.4830   71.7640 C.2   347  ASP347      0.3668
    103  OD1       14.7620  -15.9790   71.9450 O.co2 347  ASP347     -0.2456
    104  OD2       13.2980  -17.0310   70.6920 O.co2 347  ASP347     -0.2456
@<TRIPOS>BOND
     1    34    35    1
     2    38    35    1
     3    38    39    1
     4    35    36    1
     5    39    40   ar
     6    39    41   ar
     7    40    42   ar
     8    51    50    1
     9    41    43   ar
    10    36    37    2
    11    42    44   ar
    12    50    52    1
    13    50    47    1
    14    43    44   ar
    15    44    45    1
    16    46    47    1
    17    47    48    1
    18    48    53   am
    19    48    49    2
    20    59    57    1
    21    53    54    1
    22    67    65    1
    23    57    54    1
    24    57    58    1
    25    54    55    1
    26    65    64    1
    27    55    56    2
    28    64    61    1
    29    64    66    1
    30    60    61    1
    31    25    23   ar
    32    25    26   ar
    33    61    62    1
    34    23    22   ar
    35    26    24   ar
    36    14    13    1
    37    14    16    1
    38    15    13    1
    39    13    10    1
    40    62    68   am
    41    62    63    2
    42    68    69    1
    43    22    24   ar
    44    22    21    1
    45    73    72    1
    46    72    69    1
    47    72    74    1
    48     8     6    1
    49    10     9    1
    50    10    11    1
    51    69    70    1
    52    21    18    1
    53     9     3   am
    54     5     7    1
    55     5     6    1
    56     5     2    1
    57    17    11   am
    58    17    18    1
    59    11    12    2
    60     1     2    1
    61    92    91   ar
    62    92    90   ar
    63    70    71    2
    64    18    19    1
    65     3     2    1
    66     3     4    2
    67    91    89   ar
    68    20    19    2
    69    90    88   ar
    70    19    27   am
    71    89    87   ar
    72    88    87   ar
    73    79    80    1
    74    79    76    1
    75    27    33    1
    76    27    28    1
    77    80    81    1
    78    87    86    1
    79    33    32    1
    80    28    29    1
    81    28    31    1
    82    29    30    2
    83    81    75    1
    84    76    77    1
    85    76    75    1
    86    78    77    2
    87    86    83    1
    88    77    82   am
    89    31    32    1
    90    82    83    1
    91    83    84    1
    92   104   102   ar
    93    94    95    1
    94    94    93    1
    95    84    85    2
    96    95    96    2
    97   102   103   ar
    98   102   101    1
    99   101    98    1
   100    98    97    1
   101    98    99    1
   102    99   100    2
