@<TRIPOS>MOLECULE
tmp/6hlpA03.pdb
 102 98 0 0 0
SMALL
GASTEIGER

@<TRIPOS>ATOM
      1  N          1.8110   11.3710   58.1810 N.3    32  LEU32      -0.1245
      2  CA         2.7100   12.5170   58.3140 C.3    32  LEU32       0.1561
      3  C          2.2340   13.5330   59.3490 C.2    32  LEU32       0.2260
      4  O          3.0640   14.1980   59.9800 O.2    32  LEU32      -0.2867
      5  CB         2.8930   13.1980   56.9540 C.3    32  LEU32       0.0270
      6  CG         3.5690   12.3520   55.8690 C.3    32  LEU32       0.0019
      7  CD1        3.5890   13.0810   54.5330 C.3    32  LEU32       0.0001
      8  CD2        4.9790   11.9580   56.2890 C.3    32  LEU32       0.0001
      9  N          6.8000    5.1490   57.1940 N.3    43  TYR43      -0.1241
     10  CA         7.4830    5.9520   56.1800 C.3    43  TYR43       0.1605
     11  C          7.5380    5.2130   54.8520 C.2    43  TYR43       0.2264
     12  O          7.2800    5.8040   53.7900 O.2    43  TYR43      -0.2867
     13  CB         8.8940    6.3320   56.6260 C.3    43  TYR43       0.0534
     14  CG         8.9560    7.5540   57.5150 C.ar   43  TYR43      -0.0201
     15  CD1        7.7990    8.1200   58.0360 C.ar   43  TYR43      -0.0009
     16  CD2       10.1710    8.1440   57.8320 C.ar   43  TYR43      -0.0009
     17  CE1        7.8530    9.2370   58.8550 C.ar   43  TYR43       0.0417
     18  CE2       10.2340    9.2620   58.6500 C.ar   43  TYR43       0.0417
     19  CZ         9.0730    9.8050   59.1560 C.ar   43  TYR43       0.1957
     20  OH         9.1310   10.9190   59.9630 O.3    43  TYR43      -0.2866
     21  N          4.1270    5.4590   53.3820 N.3    46  VAL46      -0.1231
     22  CA         3.8570    6.7720   52.8100 C.3    46  VAL46       0.1692
     23  C          4.5010    6.8860   51.4390 C.2    46  VAL46       0.2592
     24  O          3.9060    7.4320   50.4990 O.2    46  VAL46      -0.2718
     25  CB         4.3460    7.8850   53.7600 C.3    46  VAL46       0.0266
     26  CG1        4.1800    9.2500   53.1180 C.3    46  VAL46       0.0020
     27  CG2        3.5710    7.8500   55.0530 C.3    46  VAL46       0.0020
     28  N          5.7100    6.3410   51.2920 N.am   47  ASN47      -0.1974
     29  CA         6.3640    6.3820   49.9900 C.3    47  ASN47       0.1688
     30  C          5.5720    5.5900   48.9520 C.2    47  ASN47       0.2292
     31  O          5.3900    6.0410   47.8080 O.2    47  ASN47      -0.2864
     32  CB         7.7870    5.8380   50.1030 C.3    47  ASN47       0.1181
     33  CG         8.5830    6.0500   48.8380 C.2    47  ASN47       0.2629
     34  OD1        8.6400    7.1590   48.3200 O.2    47  ASN47      -0.2716
     35  ND2        9.1830    4.9850   48.3210 N.am   47  ASN47      -0.0877
     36  N          2.5420    7.5420   47.9570 N.3    50  PHE50      -0.1241
     37  CA         2.8600    8.6510   47.0690 C.3    50  PHE50       0.1605
     38  C          3.0480    8.1590   45.6430 C.2    50  PHE50       0.2264
     39  O          2.5040    8.7470   44.6950 O.2    50  PHE50      -0.2867
     40  CB         4.1140    9.3750   47.5650 C.3    50  PHE50       0.0534
     41  CG         4.7340   10.2770   46.5390 C.ar   50  PHE50      -0.0203
     42  CD1        4.2300   11.5510   46.3250 C.ar   50  PHE50      -0.0042
     43  CD2        5.8190    9.8530   45.7850 C.ar   50  PHE50      -0.0042
     44  CE1        4.7930   12.3860   45.3720 C.ar   50  PHE50      -0.0003
     45  CE2        6.3860   10.6830   44.8300 C.ar   50  PHE50      -0.0003
     46  CZ         5.8730   11.9510   44.6230 C.ar   50  PHE50      -0.0000
     47  N          7.1100    6.7170   33.7540 N.3    85  PHE85      -0.1241
     48  CA         6.6890    6.7600   35.1490 C.3    85  PHE85       0.1605
     49  C          6.1340    5.4500   35.6900 C.2    85  PHE85       0.2264
     50  O          6.4460    5.1310   36.8470 O.2    85  PHE85      -0.2867
     51  CB         5.6860    7.8900   35.3870 C.3    85  PHE85       0.0534
     52  CG         5.5340    8.2320   36.8410 C.ar   85  PHE85      -0.0203
     53  CD1        6.6090    8.7450   37.5530 C.ar   85  PHE85      -0.0042
     54  CD2        4.3460    8.0030   37.5070 C.ar   85  PHE85      -0.0042
     55  CE1        6.4890    9.0450   38.9030 C.ar   85  PHE85      -0.0003
     56  CE2        4.2210    8.3070   38.8590 C.ar   85  PHE85      -0.0003
     57  CZ         5.2950    8.8280   39.5530 C.ar   85  PHE85      -0.0000
     58  N         14.7760    7.2640   55.3950 N.3   122  LYS122     -0.1245
     59  CA        14.6690    8.2920   54.3620 C.3   122  LYS122      0.1561
     60  C         15.7640    8.1270   53.3110 C.2   122  LYS122      0.2260
     61  O         15.5200    8.2990   52.1060 O.2   122  LYS122     -0.2867
     62  CB        14.7210    9.6830   54.9930 C.3   122  LYS122      0.0271
     63  CG        13.4490   10.0710   55.7360 C.3   122  LYS122      0.0035
     64  CD        13.5010   11.5170   56.2080 C.3   122  LYS122      0.0206
     65  CE        12.2360   11.9040   56.9670 C.3   122  LYS122      0.1093
     66  NZ        12.3360   13.2620   57.5840 N.3   122  LYS122     -0.1314
     67  N         14.7000    5.3180   51.1060 N.3   125  ILE125     -0.1231
     68  CA        13.6390    5.7390   50.2000 C.3   125  ILE125      0.1692
     69  C         14.2220    6.4950   49.0120 C.2   125  ILE125      0.2592
     70  O         13.8340    6.2670   47.8530 O.2   125  ILE125     -0.2718
     71  CB        12.6030    6.5770   50.9720 C.3   125  ILE125      0.0266
     72  CG1       11.7820    5.6620   51.8890 C.3   125  ILE125      0.0019
     73  CG2       11.7090    7.3600   50.0130 C.3   125  ILE125      0.0020
     74  CD1       10.9480    6.3890   52.9140 C.3   125  ILE125      0.0001
     75  N         15.1910    7.3780   49.2740 N.am  126  CYS126     -0.1970
     76  CA        15.8460    8.0770   48.1720 C.3   126  CYS126      0.1712
     77  C         16.5910    7.1070   47.2620 C.2   126  CYS126      0.2296
     78  O         16.5780    7.2600   46.0350 O.2   126  CYS126     -0.2864
     79  CB        16.8020    9.1380   48.7120 C.3   126  CYS126      0.0983
     80  SG        15.9680   10.5330   49.4830 S.3   126  CYS126     -0.0798
     81  N         14.1080    5.3520   45.0140 N.3   129  TRP129     -0.1241
     82  CA        13.6750    6.1830   43.8980 C.3   129  TRP129      0.1605
     83  C         14.7770    6.3660   42.8620 C.2   129  TRP129      0.2264
     84  O         14.4930    6.3990   41.6600 O.2   129  TRP129     -0.2867
     85  CB        13.1670    7.5300   44.4080 C.3   129  TRP129      0.0550
     86  CG        11.7060    7.4860   44.7220 C.ar  129  TRP129      0.0003
     87  CD1       11.1280    7.4690   45.9570 C.ar  129  TRP129      0.0946
     88  CD2       10.6340    7.4230   43.7750 C.ar  129  TRP129      0.0152
     89  NE1        9.7600    7.4120   45.8390 N.ar  129  TRP129     -0.2442
     90  CE2        9.4310    7.3850   44.5090 C.ar  129  TRP129      0.0810
     91  CE3       10.5740    7.4060   42.3760 C.ar  129  TRP129      0.0012
     92  CZ2        8.1810    7.3290   43.8930 C.ar  129  TRP129      0.0191
     93  CZ3        9.3320    7.3440   41.7650 C.ar  129  TRP129      0.0001
     94  CH2        8.1520    7.3060   42.5240 C.ar  129  TRP129      0.0015
     95  N         14.1080    5.2980   38.9980 N.3   133  LEU133     -0.1245
     96  CA        14.2540    6.2050   37.8680 C.3   133  LEU133      0.1561
     97  C         15.3050    5.6990   36.8890 C.2   133  LEU133      0.2260
     98  O         15.1150    5.7840   35.6690 O.2   133  LEU133     -0.2867
     99  CB        14.5930    7.6070   38.3710 C.3   133  LEU133      0.0270
    100  CG        13.5450    8.1690   39.3400 C.3   133  LEU133      0.0019
    101  CD1       14.0020    9.4830   39.9770 C.3   133  LEU133      0.0001
    102  CD2       12.1940    8.3360   38.6570 C.3   133  LEU133      0.0001
@<TRIPOS>BOND
     1    47    48    1
     2    48    51    1
     3    48    49    1
     4    51    52    1
     5    98    97    2
     6    49    50    2
     7    52    54   ar
     8    52    53   ar
     9    97    96    1
    10    54    56   ar
    11    53    55   ar
    12    96    99    1
    13    96    95    1
    14    99   100    1
    15   102   100    1
    16    56    57   ar
    17    55    57   ar
    18   100   101    1
    19    84    83    2
    20    93    91   ar
    21    93    94   ar
    22    91    88   ar
    23    94    92   ar
    24    83    82    1
    25    88    90   ar
    26    88    86   ar
    27    92    90   ar
    28    82    85    1
    29    82    81    1
    30    85    86    1
    31    90    89   ar
    32    46    45   ar
    33    46    44   ar
    34    39    38    2
    35    86    87   ar
    36    45    43   ar
    37    44    42   ar
    38    38    37    1
    39    43    41   ar
    40    89    87   ar
    41    78    77    2
    42    42    41   ar
    43    41    40    1
    44    37    40    1
    45    37    36    1
    46    77    76    1
    47    31    30    2
    48    70    69    2
    49    76    79    1
    50    76    75    1
    51    34    33    2
    52    35    33   am
    53    79    80    1
    54    33    32    1
    55    30    29    1
    56    69    75   am
    57    69    68    1
    58    29    32    1
    59    29    28    1
    60    73    71    1
    61    68    71    1
    62    68    67    1
    63    24    23    2
    64    71    72    1
    65    28    23   am
    66    23    22    1
    67    72    74    1
    68    61    60    2
    69    22    21    1
    70    22    25    1
    71    26    25    1
    72    60    59    1
    73    25    27    1
    74    12    11    2
    75    59    62    1
    76    59    58    1
    77     7     6    1
    78    11    10    1
    79    62    63    1
    80    63    64    1
    81     6     8    1
    82     6     5    1
    83    10    13    1
    84    10     9    1
    85    64    65    1
    86    13    14    1
    87     5     2    1
    88    65    66    1
    89    14    16   ar
    90    14    15   ar
    91    16    18   ar
    92    15    17   ar
    93     1     2    1
    94     2     3    1
    95    18    19   ar
    96    17    19   ar
    97    19    20    1
    98     3     4    2
