@<TRIPOS>MOLECULE
tmp/6hlpA29.pdb
 92 88 0 0 0
SMALL
GASTEIGER

@<TRIPOS>ATOM
      1  N         -2.0880   -9.3280   53.1230 N.3   410  VAL410     -0.1245
      2  CA        -3.2070   -8.9900   52.2470 C.3   410  VAL410      0.1561
      3  C         -2.7670   -7.9630   51.2070 C.2   410  VAL410      0.2260
      4  O         -3.1350   -8.0520   50.0270 O.2   410  VAL410     -0.2867
      5  CB        -4.4080   -8.4910   53.0740 C.3   410  VAL410      0.0252
      6  CG1       -5.5140   -7.9510   52.1590 C.3   410  VAL410      0.0019
      7  CG2       -4.9480   -9.6050   53.9730 C.3   410  VAL410      0.0019
      8  N         -2.7630   -8.8060   47.1890 N.3   414  THR414     -0.1218
      9  CA        -3.5660   -7.9740   46.3010 C.3   414  THR414      0.1862
     10  C         -2.7280   -7.4380   45.1440 C.2   414  THR414      0.2287
     11  O         -3.1730   -7.4540   43.9890 O.2   414  THR414     -0.2866
     12  CB        -4.1930   -6.8380   47.1110 C.3   414  THR414      0.1770
     13  OG1       -5.1010   -7.3990   48.0660 O.3   414  THR414     -0.2211
     14  CG2       -4.9370   -5.8590   46.2120 C.3   414  THR414      0.0375
     15  N         -2.1880  -10.3560   42.6800 N.3   417  ILE417     -0.1231
     16  CA        -3.3690  -10.6540   41.8750 C.3   417  ILE417      0.1692
     17  C         -3.5820   -9.5790   40.8210 C.2   417  ILE417      0.2592
     18  O         -3.8740   -9.8800   39.6560 O.2   417  ILE417     -0.2718
     19  CB        -4.6020  -10.7960   42.7870 C.3   417  ILE417      0.0266
     20  CG1       -4.5250  -12.0910   43.5990 C.3   417  ILE417      0.0019
     21  CG2       -5.8890  -10.7320   41.9760 C.3   417  ILE417      0.0020
     22  CD1       -5.4510  -12.1010   44.8040 C.3   417  ILE417      0.0001
     23  N         -3.4400   -8.3100   41.2090 N.am  418  CYS418     -0.1970
     24  CA        -3.7160   -7.2240   40.2810 C.3   418  CYS418      0.1712
     25  C         -2.7410   -7.2110   39.1160 C.2   418  CYS418      0.2296
     26  O         -3.1350   -6.8880   37.9900 O.2   418  CYS418     -0.2864
     27  CB        -3.6840   -5.8830   41.0180 C.3   418  CYS418      0.0983
     28  SG        -5.0860   -5.6210   42.1260 S.3   418  CYS418     -0.0798
     29  N         -7.4400   -2.3610   33.6050 N.3   449  TRP449     -0.1227
     30  CA        -8.2020   -1.8190   34.7230 C.3   449  TRP449      0.1737
     31  C         -7.7880   -2.4770   36.0290 C.2   449  TRP449      0.2595
     32  O         -7.5990   -1.7940   37.0420 O.2   449  TRP449     -0.2718
     33  CB        -9.7050   -1.9970   34.5040 C.3   449  TRP449      0.0564
     34  CG       -10.5090   -1.3160   35.5790 C.ar  449  TRP449      0.0003
     35  CD1      -11.0440   -0.0620   35.5290 C.ar  449  TRP449      0.0946
     36  CD2      -10.8370   -1.8380   36.8780 C.ar  449  TRP449      0.0152
     37  NE1      -11.6950    0.2240   36.7040 N.ar  449  TRP449     -0.2442
     38  CE2      -11.5810   -0.8490   37.5500 C.ar  449  TRP449      0.0810
     39  CE3      -10.5850   -3.0510   37.5300 C.ar  449  TRP449      0.0012
     40  CZ2      -12.0740   -1.0320   38.8410 C.ar  449  TRP449      0.0191
     41  CZ3      -11.0700   -3.2290   38.8130 C.ar  449  TRP449      0.0001
     42  CH2      -11.8080   -2.2250   39.4550 C.ar  449  TRP449      0.0015
     43  N         -7.6210   -3.8010   36.0230 N.am  450  LEU450     -0.1980
     44  CA        -7.2060   -4.4790   37.2480 C.3   450  LEU450      0.1596
     45  C         -5.8270   -3.9980   37.6960 C.2   450  LEU450      0.2287
     46  O         -5.6130   -3.6540   38.8800 O.2   450  LEU450     -0.2864
     47  CB        -7.2070   -5.9920   37.0210 C.3   450  LEU450      0.0297
     48  CG        -6.8330   -6.8630   38.2210 C.3   450  LEU450      0.0022
     49  CD1       -7.8030   -6.6340   39.3790 C.3   450  LEU450      0.0001
     50  CD2       -6.8010   -8.3270   37.8110 C.3   450  LEU450      0.0001
     51  N         -6.2160    0.0610   46.4220 N.3   457  TYR457     -0.1241
     52  CA        -6.6550   -0.8940   47.4410 C.3   457  TYR457      0.1605
     53  C         -5.9850   -0.6980   48.7980 C.2   457  TYR457      0.2264
     54  O         -6.6230   -0.9530   49.8270 O.2   457  TYR457     -0.2867
     55  CB        -6.4280   -2.3300   46.9650 C.3   457  TYR457      0.0534
     56  CG        -7.2680   -2.6790   45.7630 C.ar  457  TYR457     -0.0201
     57  CD1       -8.6550   -2.5920   45.8170 C.ar  457  TYR457     -0.0009
     58  CD2       -6.6800   -3.0720   44.5710 C.ar  457  TYR457     -0.0009
     59  CE1       -9.4310   -2.8960   44.7190 C.ar  457  TYR457      0.0417
     60  CE2       -7.4500   -3.3780   43.4630 C.ar  457  TYR457      0.0417
     61  CZ        -8.8220   -3.2860   43.5420 C.ar  457  TYR457      0.1957
     62  OH        -9.5860   -3.5900   42.4380 O.3   457  TYR457     -0.2866
     63  N         -7.7530    1.1930   51.5430 N.3   460  ILE460     -0.1231
     64  CA        -8.9250    0.4450   51.9910 C.3   460  ILE460      0.1692
     65  C         -8.5080   -0.6990   52.9060 C.2   460  ILE460      0.2591
     66  O         -9.1450   -0.9580   53.9370 O.2   460  ILE460     -0.2718
     67  CB        -9.7220   -0.0610   50.7760 C.3   460  ILE460      0.0266
     68  CG1      -10.1240    1.1110   49.8800 C.3   460  ILE460      0.0019
     69  CG2      -10.9490   -0.8410   51.2360 C.3   460  ILE460      0.0020
     70  CD1      -10.7590    0.6870   48.5710 C.3   460  ILE460      0.0001
     71  N         -7.4150   -1.3800   52.5580 N.am  461  ILE461     -0.1980
     72  CA        -6.9030   -2.4630   53.3900 C.3   461  ILE461      0.1595
     73  C         -6.4760   -1.9330   54.7560 C.2   461  ILE461      0.2287
     74  O         -6.7550   -2.5510   55.7960 O.2   461  ILE461     -0.2864
     75  CB        -5.7470   -3.1720   52.6570 C.3   461  ILE461      0.0276
     76  CG1       -6.2610   -3.8450   51.3790 C.3   461  ILE461      0.0022
     77  CG2       -5.0450   -4.1780   53.5620 C.3   461  ILE461      0.0022
     78  CD1       -5.1570   -4.3650   50.4620 C.3   461  ILE461      0.0001
     79  N         -9.5110   -1.2060   56.8510 N.3   464  CYS464     -0.1221
     80  CA       -10.2290   -2.3900   57.3130 C.3   464  CYS464      0.1808
     81  C         -9.4630   -3.1560   58.3870 C.2   464  CYS464      0.2601
     82  O        -10.0800   -3.7390   59.2850 O.2   464  CYS464     -0.2717
     83  CB       -10.5380   -3.3190   56.1370 C.3   464  CYS464      0.0970
     84  SG       -11.8560   -2.7420   55.0450 S.3   464  CYS464     -0.0800
     85  N         -8.1310   -3.1850   58.3160 N.am  465  LEU465     -0.1979
     86  CA        -7.3520   -4.1220   59.1220 C.3   465  LEU465      0.1596
     87  C         -6.4390   -3.4570   60.1490 C.2   465  LEU465      0.2287
     88  O         -5.6070   -4.1440   60.7530 O.2   465  LEU465     -0.2864
     89  CB        -6.5290   -5.0330   58.2080 C.3   465  LEU465      0.0297
     90  CG        -7.3590   -5.9030   57.2620 C.3   465  LEU465      0.0022
     91  CD1       -6.4580   -6.7500   56.3740 C.3   465  LEU465      0.0001
     92  CD2       -8.3260   -6.7810   58.0660 C.3   465  LEU465      0.0001
@<TRIPOS>BOND
     1    29    30    1
     2    33    30    1
     3    33    34    1
     4    30    31    1
     5    35    34   ar
     6    35    37   ar
     7    34    36   ar
     8    43    31   am
     9    43    44    1
    10    31    32    2
    11    37    38   ar
    12    36    39   ar
    13    36    38   ar
    14    47    44    1
    15    47    48    1
    16    44    45    1
    17    39    41   ar
    18    38    40   ar
    19    45    46    2
    20    50    48    1
    21    26    25    2
    22    48    49    1
    23    41    42   ar
    24    40    42   ar
    25    25    24    1
    26    18    17    2
    27    24    27    1
    28    24    23    1
    29    17    23   am
    30    17    16    1
    31    27    28    1
    32    16    15    1
    33    16    19    1
    34    21    19    1
    35    62    61    1
    36    19    20    1
    37    60    61   ar
    38    60    58   ar
    39    61    59   ar
    40    20    22    1
    41    11    10    2
    42    58    56   ar
    43    59    57   ar
    44    10     9    1
    45    56    57   ar
    46    56    55    1
    47    14    12    1
    48     9    12    1
    49     9     8    1
    50    51    52    1
    51    55    52    1
    52    12    13    1
    53    52    53    1
    54    70    68    1
    55    53    54    2
    56    68    67    1
    57     4     3    2
    58    78    76    1
    59    67    69    1
    60    67    64    1
    61     3     2    1
    62    76    75    1
    63    63    64    1
    64    64    65    1
    65     6     5    1
    66     2     5    1
    67     2     1    1
    68    71    65   am
    69    71    72    1
    70    75    72    1
    71    75    77    1
    72    65    66    2
    73     5     7    1
    74    72    73    1
    75    73    74    2
    76    84    83    1
    77    83    80    1
    78    91    90    1
    79    79    80    1
    80    90    92    1
    81    90    89    1
    82    80    81    1
    83    89    86    1
    84    85    81   am
    85    85    86    1
    86    81    82    2
    87    86    87    1
    88    87    88    2
