@<TRIPOS>MOLECULE
tmp/6hlpA31.pdb
 86 79 0 0 0
SMALL
GASTEIGER

@<TRIPOS>ATOM
      1  N          5.2470  -15.4550   59.5390 N.3   194  GLY194     -0.1225
      2  CA         3.9000  -15.8690   59.8770 C.3   194  GLY194      0.1811
      3  C          3.8710  -17.2240   60.5490 C.2   194  GLY194      0.2280
      4  O          3.1100  -17.4370   61.4990 O.2   194  GLY194     -0.2866
      5  N          5.1090  -16.5980   64.1600 N.3   197  LEU197     -0.1231
      6  CA         4.1220  -15.9650   65.0230 C.3   197  LEU197      0.1693
      7  C          2.9780  -16.9160   65.3520 C.2   197  LEU197      0.2591
      8  O          2.5410  -16.9880   66.5080 O.2   197  LEU197     -0.2718
      9  CB         3.5980  -14.6860   64.3710 C.3   197  LEU197      0.0284
     10  CG         4.6070  -13.5390   64.2700 C.3   197  LEU197      0.0019
     11  CD1        4.0110  -12.3690   63.5110 C.3   197  LEU197      0.0001
     12  CD2        5.0680  -13.1040   65.6730 C.3   197  LEU197      0.0001
     13  N          2.4840  -17.6660   64.3610 N.am  198  ARG198     -0.1980
     14  CA         1.3990  -18.5990   64.6480 C.3   198  ARG198      0.1597
     15  C          1.8500  -19.7030   65.6020 C.2   198  ARG198      0.2287
     16  O          1.0940  -20.1060   66.4920 O.2   198  ARG198     -0.2864
     17  CB         0.8590  -19.1960   63.3430 C.3   198  ARG198      0.0334
     18  CG        -0.3780  -20.0920   63.5140 C.3   198  ARG198      0.0492
     19  CD        -1.0130  -20.4270   62.1550 C.3   198  ARG198      0.2205
     20  NE         0.0340  -20.6500   61.1690 N.pl3 198  ARG198     -0.0865
     21  CZ         0.2140  -19.9470   60.0560 C.cat 198  ARG198      0.5346
     22  NH1       -0.6110  -18.9660   59.7130 N.pl3 198  ARG198      0.1354
     23  NH2        1.2310  -20.2510   59.2720 N.pl3 198  ARG198      0.1354
     24  N          0.8440  -10.3860   64.7540 N.3   402  ARG402     -0.1245
     25  CA         0.1310  -11.2180   63.7870 C.3   402  ARG402      0.1563
     26  C         -0.8790  -10.3990   62.9990 C.2   402  ARG402      0.2260
     27  O         -1.0830  -10.6380   61.8030 O.2   402  ARG402     -0.2867
     28  CB        -0.5790  -12.3750   64.4900 C.3   402  ARG402      0.0307
     29  CG         0.3180  -13.5270   64.8990 C.3   402  ARG402      0.0489
     30  CD        -0.2180  -14.8360   64.3500 C.3   402  ARG402      0.2205
     31  NE        -1.1710  -15.4520   65.2570 N.pl3 402  ARG402     -0.0865
     32  CZ        -2.0550  -16.3850   64.9180 C.cat 402  ARG402      0.5346
     33  NH1       -2.1380  -16.8160   63.6690 N.pl3 402  ARG402      0.1354
     34  NH2       -2.8650  -16.8850   65.8430 N.pl3 402  ARG402      0.1354
     35  N          1.0580   -8.3080   60.4440 N.3   405  VAL405     -0.1231
     36  CA         1.5880   -9.1610   59.3880 C.3   405  VAL405      0.1692
     37  C          0.4730   -9.6440   58.4750 C.2   405  VAL405      0.2591
     38  O          0.6540   -9.7290   57.2540 O.2   405  VAL405     -0.2718
     39  CB         2.3910  -10.3270   59.9910 C.3   405  VAL405      0.0266
     40  CG1        2.6840  -11.3870   58.9390 C.3   405  VAL405      0.0020
     41  CG2        3.6970   -9.7990   60.5630 C.3   405  VAL405      0.0020
     42  N         -0.7070   -9.9310   59.0330 N.am  406  LYS406     -0.1980
     43  CA        -1.8270  -10.3150   58.1830 C.3   406  LYS406      0.1596
     44  C         -2.2070   -9.1770   57.2460 C.2   406  LYS406      0.2287
     45  O         -2.5140   -9.4060   56.0640 O.2   406  LYS406     -0.2864
     46  CB        -3.0260  -10.7130   59.0400 C.3   406  LYS406      0.0298
     47  CG        -4.3080  -10.9330   58.2480 C.3   406  LYS406      0.0038
     48  CD        -5.5030  -11.0240   59.1810 C.3   406  LYS406      0.0206
     49  CE        -6.8090  -11.0980   58.4090 C.3   406  LYS406      0.1093
     50  NZ        -7.9670  -10.8570   59.3140 N.3   406  LYS406     -0.1314
     51  N          0.3310   -9.0550   54.4560 N.3   409  ILE409     -0.1231
     52  CA         0.1620  -10.1790   53.5460 C.3   409  ILE409      0.1692
     53  C         -1.0090   -9.9240   52.6080 C.2   409  ILE409      0.2591
     54  O         -0.9460  -10.2470   51.4130 O.2   409  ILE409     -0.2718
     55  CB        -0.0150  -11.4890   54.3360 C.3   409  ILE409      0.0266
     56  CG1        1.2930  -11.8770   55.0290 C.3   409  ILE409      0.0019
     57  CG2       -0.4880  -12.6010   53.4220 C.3   409  ILE409      0.0020
     58  CD1        1.1510  -13.0340   55.9980 C.3   409  ILE409      0.0001
     59  N         -2.0880   -9.3280   53.1230 N.am  410  VAL410     -0.1980
     60  CA        -3.2070   -8.9900   52.2470 C.3   410  VAL410      0.1595
     61  C         -2.7670   -7.9630   51.2070 C.2   410  VAL410      0.2287
     62  O         -3.1350   -8.0520   50.0270 O.2   410  VAL410     -0.2864
     63  CB        -4.4080   -8.4910   53.0740 C.3   410  VAL410      0.0276
     64  CG1       -5.5140   -7.9510   52.1590 C.3   410  VAL410      0.0022
     65  CG2       -4.9480   -9.6050   53.9730 C.3   410  VAL410      0.0022
     66  N         -0.5930   -9.8910   48.5460 N.3   413  CYS413     -0.1221
     67  CA        -1.4060  -10.7710   47.7150 C.3   413  CYS413      0.1808
     68  C         -2.2740   -9.9700   46.7520 C.2   413  CYS413      0.2601
     69  O         -2.4870  -10.3870   45.6060 O.2   413  CYS413     -0.2717
     70  CB        -2.2740  -11.6790   48.5870 C.3   413  CYS413      0.0970
     71  SG        -1.3630  -12.9650   49.5070 S.3   413  CYS413     -0.0800
     72  N         -2.7630   -8.8060   47.1890 N.am  414  THR414     -0.1953
     73  CA        -3.5660   -7.9740   46.3010 C.3   414  THR414      0.1897
     74  C         -2.7280   -7.4380   45.1440 C.2   414  THR414      0.2313
     75  O         -3.1730   -7.4540   43.9890 O.2   414  THR414     -0.2863
     76  CB        -4.1930   -6.8380   47.1110 C.3   414  THR414      0.1794
     77  OG1       -5.1010   -7.3990   48.0660 O.3   414  THR414     -0.2208
     78  CG2       -4.9370   -5.8590   46.2120 C.3   414  THR414      0.0378
     79  N         -2.1880  -10.3560   42.6800 N.3   417  ILE417     -0.1245
     80  CA        -3.3690  -10.6540   41.8750 C.3   417  ILE417      0.1561
     81  C         -3.5820   -9.5790   40.8210 C.2   417  ILE417      0.2260
     82  O         -3.8740   -9.8800   39.6560 O.2   417  ILE417     -0.2867
     83  CB        -4.6020  -10.7960   42.7870 C.3   417  ILE417      0.0252
     84  CG1       -4.5250  -12.0910   43.5990 C.3   417  ILE417      0.0019
     85  CG2       -5.8890  -10.7320   41.9760 C.3   417  ILE417      0.0019
     86  CD1       -5.4510  -12.1010   44.8040 C.3   417  ILE417      0.0001
@<TRIPOS>BOND
     1    82    81    2
     2    81    80    1
     3    80    79    1
     4    80    83    1
     5    85    83    1
     6    83    84    1
     7    84    86    1
     8    75    74    2
     9    74    73    1
    10    69    68    2
    11    78    76    1
    12    73    76    1
    13    73    72    1
    14    68    72   am
    15    68    67    1
    16    76    77    1
    17    67    66    1
    18    67    70    1
    19    70    71    1
    20    62    61    2
    21    61    60    1
    22    54    53    2
    23    64    63    1
    24    60    63    1
    25    60    59    1
    26    53    59   am
    27    53    52    1
    28    63    65    1
    29    57    55    1
    30    52    55    1
    31    52    51    1
    32    55    56    1
    33    56    58    1
    34    45    44    2
    35    44    43    1
    36    38    37    2
    37    43    42    1
    38    43    46    1
    39    47    46    1
    40    47    48    1
    41    49    48    1
    42    49    50    1
    43    37    42   am
    44    37    36    1
    45    40    39    1
    46    23    21    1
    47    36    39    1
    48    36    35    1
    49     1     2    1
    50    22    21    1
    51     2     3    1
    52    39    41    1
    53    21    20    2
    54     3     4    2
    55    20    19    1
    56    27    26    2
    57    19    18    1
    58    26    25    1
    59    17    18    1
    60    17    14    1
    61    11    10    1
    62    33    32    1
    63    25    28    1
    64    25    24    1
    65     5     6    1
    66    10     9    1
    67    10    12    1
    68    30    29    1
    69    30    31    1
    70    13    14    1
    71    13     7   am
    72     9     6    1
    73    28    29    1
    74    14    15    1
    75    32    31    2
    76    32    34    1
    77     6     7    1
    78     7     8    2
    79    15    16    2
