@<TRIPOS>MOLECULE
tmp/6hlpA23.pdb
 250 242 0 0 0
SMALL
GASTEIGER

@<TRIPOS>ATOM
      1  N          0.9060    7.6440   40.1290 N.3    55  MET55      -0.1245
      2  CA         0.6160    6.8980   38.9100 C.3    55  MET55       0.1570
      3  C         -0.8620    6.9800   38.5640 C.2    55  MET55       0.2261
      4  O         -1.2210    7.1740   37.3950 O.2    55  MET55      -0.2867
      5  CB         1.0490    5.4380   39.0450 C.3    55  MET55       0.0387
      6  CG         1.0810    4.7200   37.7030 C.3    55  MET55       0.0595
      7  SD         1.5560    2.9840   37.7750 S.3    55  MET55      -0.1393
      8  CE        -0.0010    2.2280   38.2230 C.3    55  MET55       0.0692
      9  N         -1.3420    8.9060   35.0350 N.3    59  ASN59      -0.1240
     10  CA        -1.2060    7.9690   33.9260 C.3    59  ASN59       0.1653
     11  C         -2.5330    7.3670   33.4770 C.2    59  ASN59       0.2266
     12  O         -2.6910    7.0460   32.2900 O.2    59  ASN59      -0.2867
     13  CB        -0.2410    6.8390   34.3050 C.3    59  ASN59       0.1155
     14  CG         1.1930    7.3110   34.4190 C.2    59  ASN59       0.2627
     15  OD1        1.7070    7.5100   35.5190 O.2    59  ASN59      -0.2716
     16  ND2        1.8470    7.4960   33.2790 N.am   59  ASN59      -0.0877
     17  N         -3.8090    6.4830   29.6470 N.3    63  ASN63      -0.1240
     18  CA        -3.7060    5.0680   29.3080 C.3    63  ASN63       0.1653
     19  C         -5.0400    4.5540   28.7990 C.2    63  ASN63       0.2266
     20  O         -5.1020    3.8660   27.7700 O.2    63  ASN63      -0.2867
     21  CB        -3.2560    4.2480   30.5220 C.3    63  ASN63       0.1155
     22  CG        -1.8040    4.4830   30.8900 C.2    63  ASN63       0.2627
     23  OD1       -1.0510    5.1100   30.1450 O.2    63  ASN63      -0.2716
     24  ND2       -1.4010    3.9670   32.0450 N.am   63  ASN63      -0.0877
     25  N          4.6160    8.8470   29.9100 N.3    82  HIS82      -0.1226
     26  CA         3.6720    7.7450   29.8310 C.3    82  HIS82       0.1752
     27  C          4.3880    6.4060   29.7730 C.2    82  HIS82       0.2596
     28  O          3.9190    5.4270   30.3630 O.2    82  HIS82      -0.2718
     29  CB         2.7820    7.9920   28.6020 C.3    82  HIS82       0.0759
     30  CG         2.1920    6.7640   27.9830 C.ar   82  HIS82       0.0818
     31  ND1        0.9330    6.3010   28.3030 N.ar   82  HIS82      -0.2268
     32  CD2        2.6600    5.9410   27.0140 C.ar   82  HIS82       0.1154
     33  CE1        0.6640    5.2270   27.5830 C.ar   82  HIS82       0.1986
     34  NE2        1.6970    4.9840   26.7960 N.ar   82  HIS82      -0.2212
     35  N          5.5430    6.3450   29.1080 N.am   83  ASN83      -0.1974
     36  CA         6.2840    5.0850   29.1180 C.3    83  ASN83       0.1688
     37  C          7.3130    4.9760   30.2420 C.2    83  ASN83       0.2292
     38  O          7.8320    3.8820   30.4820 O.2    83  ASN83      -0.2864
     39  CB         6.9660    4.8660   27.7710 C.3    83  ASN83       0.1181
     40  CG         5.9740    4.5240   26.6840 C.2    83  ASN83       0.2629
     41  OD1        5.0700    3.7180   26.8920 O.2    83  ASN83      -0.2716
     42  ND2        6.1160    5.1580   25.5330 N.am   83  ASN83      -0.0877
     43  N          5.2660    4.7060   34.9900 N.3    86  PRO86      -0.2102
     44  CA         4.6810    3.5200   35.6390 C.3    86  PRO86       0.1504
     45  C          5.7190    2.5310   36.1350 C.2    86  PRO86       0.2575
     46  O          5.5460    1.9500   37.2140 O.2    86  PRO86      -0.2718
     47  CB         3.8080    2.9120   34.5290 C.3    86  PRO86       0.0282
     48  CG         3.4740    4.0600   33.6470 C.3    86  PRO86       0.0208
     49  CD         4.7020    4.9180   33.6420 C.3    86  PRO86       0.0893
     50  N          6.8320    2.3770   35.4170 N.am   87  ILE87      -0.1980
     51  CA         7.8670    1.4510   35.8600 C.3    87  ILE87       0.1595
     52  C          8.5140    1.9550   37.1460 C.2    87  ILE87       0.2287
     53  O          8.6670    1.2040   38.1200 O.2    87  ILE87      -0.2864
     54  CB         8.9030    1.2390   34.7420 C.3    87  ILE87       0.0276
     55  CG1        8.2640    0.4970   33.5630 C.3    87  ILE87       0.0022
     56  CG2       10.1160    0.4910   35.2610 C.3    87  ILE87       0.0022
     57  CD1        9.1600    0.3830   32.3540 C.3    87  ILE87       0.0001
     58  N          5.8590    1.7100   40.1250 N.3    90  ILE90      -0.1245
     59  CA         5.6390    0.3600   40.6320 C.3    90  ILE90       0.1561
     60  C          6.8900   -0.1600   41.3270 C.2    90  ILE90       0.2260
     61  O          6.8000   -0.8280   42.3660 O.2    90  ILE90      -0.2867
     62  CB         5.1820   -0.5780   39.5020 C.3    90  ILE90       0.0252
     63  CG1        3.8560   -0.0870   38.9190 C.3    90  ILE90       0.0019
     64  CG2        5.0170   -2.0030   40.0240 C.3    90  ILE90       0.0019
     65  CD1        2.7960    0.1670   39.9750 C.3    90  ILE90       0.0001
     66  N         13.1250    3.4980   28.7770 N.3   139  GLN139     -0.1245
     67  CA        11.7980    3.6410   28.1430 C.3   139  GLN139      0.1566
     68  C         11.4950    5.1180   27.9050 C.2   139  GLN139      0.2260
     69  O         10.8730    5.4330   26.9330 O.2   139  GLN139     -0.2867
     70  CB        10.7480    2.8270   28.8880 C.3   139  GLN139      0.0367
     71  CG        10.9160    1.3380   28.6690 C.3   139  GLN139      0.0905
     72  CD         9.5920    0.6910   28.3900 C.2   139  GLN139      0.2608
     73  OE1        8.5580    1.2010   28.7670 O.2   139  GLN139     -0.2717
     74  NE2        9.6220   -0.4350   27.7210 N.am  139  GLN139     -0.0878
     75  N          8.0830    3.3830   21.6100 N.3   156  ILE156     -0.1245
     76  CA         9.4440    3.2460   22.1200 C.3   156  ILE156      0.1561
     77  C         10.3150    2.7460   20.9730 C.2   156  ILE156      0.2260
     78  O         10.1630    1.6120   20.5140 O.2   156  ILE156     -0.2867
     79  CB         9.5020    2.2910   23.3160 C.3   156  ILE156      0.0252
     80  CG1        8.4410    2.6740   24.3450 C.3   156  ILE156      0.0019
     81  CG2       10.8930    2.3010   23.9520 C.3   156  ILE156      0.0019
     82  CD1        8.2800    1.6610   25.4270 C.3   156  ILE156      0.0001
     83  N         15.0030   -4.8070   23.6870 N.3   167  GLU167     -0.1231
     84  CA        13.6860   -4.6050   24.3270 C.3   167  GLU167      0.1699
     85  C         13.2560   -5.8770   25.0570 C.2   167  GLU167      0.2592
     86  O         12.5880   -5.7460   26.0640 O.2   167  GLU167     -0.2718
     87  CB        12.6430   -4.0330   23.3760 C.3   167  GLU167      0.0402
     88  CG        12.3550   -4.9070   22.1930 C.3   167  GLU167      0.1161
     89  CD        11.9750   -4.1180   20.9590 C.2   167  GLU167      0.3649
     90  OE1       12.8910   -3.6680   20.2430 O.co2 167  GLU167     -0.2457
     91  OE2       10.7680   -3.9740   20.7130 O.co2 167  GLU167     -0.2457
     92  N         13.5350   -7.0500   24.4900 N.am  168  LYS168     -0.1980
     93  CA        13.1400   -8.3140   25.1570 C.3   168  LYS168      0.1596
     94  C         13.8970   -8.4730   26.4770 C.2   168  LYS168      0.2287
     95  O         13.2650   -8.7730   27.4690 O.2   168  LYS168     -0.2864
     96  CB        13.3940   -9.5120   24.2450 C.3   168  LYS168      0.0298
     97  CG        12.5180   -9.5770   23.0090 C.3   168  LYS168      0.0038
     98  CD        12.8680  -10.7220   22.0920 C.3   168  LYS168      0.0206
     99  CE        11.9540  -10.8190   20.8900 C.3   168  LYS168      0.1093
    100  NZ        11.5680   -9.4760   20.4060 N.3   168  LYS168     -0.1314
    101  N         15.2150   -6.1190   28.3190 N.3   170  TYR170     -0.1227
    102  CA        14.7480   -5.0870   29.2310 C.3   170  TYR170      0.1736
    103  C         13.3690   -5.4190   29.7800 C.2   170  TYR170      0.2595
    104  O         13.1260   -5.2720   30.9830 O.2   170  TYR170     -0.2718
    105  CB        14.7290   -3.7320   28.5230 C.3   170  TYR170      0.0548
    106  CG        14.1570   -2.6210   29.3680 C.ar  170  TYR170     -0.0200
    107  CD1       12.8160   -2.2670   29.2720 C.ar  170  TYR170     -0.0009
    108  CD2       14.9560   -1.9300   30.2690 C.ar  170  TYR170     -0.0009
    109  CE1       12.2910   -1.2600   30.0510 C.ar  170  TYR170      0.0417
    110  CE2       14.4430   -0.9140   31.0450 C.ar  170  TYR170      0.0417
    111  CZ        13.1110   -0.5800   30.9330 C.ar  170  TYR170      0.1957
    112  OH        12.6000    0.4310   31.7180 O.3   170  TYR170     -0.2866
    113  N         12.4560   -5.8820   28.9210 N.am  171  HIS171     -0.1975
    114  CA        11.1200   -6.2230   29.3910 C.3   171  HIS171      0.1656
    115  C         11.1770   -7.3560   30.4080 C.2   171  HIS171      0.2291
    116  O         10.5130   -7.2970   31.4530 O.2   171  HIS171     -0.2864
    117  CB        10.2360   -6.5950   28.1960 C.3   171  HIS171      0.0771
    118  CG         8.8910   -7.1330   28.5750 C.ar  171  HIS171      0.0820
    119  ND1        8.2030   -8.0290   27.7860 N.ar  171  HIS171     -0.2267
    120  CD2        8.1040   -6.8990   29.6520 C.ar  171  HIS171      0.1154
    121  CE1        7.0520   -8.3280   28.3630 C.ar  171  HIS171      0.1986
    122  NE2        6.9690   -7.6570   29.4980 N.ar  171  HIS171     -0.2212
    123  N         12.7010   -6.0550   33.7410 N.3   174  VAL174     -0.1231
    124  CA        11.7680   -5.2150   34.4820 C.3   174  VAL174      0.1692
    125  C         10.6770   -6.0660   35.1150 C.2   174  VAL174      0.2592
    126  O         10.3040   -5.8500   36.2740 O.2   174  VAL174     -0.2718
    127  CB        11.1740   -4.1200   33.5780 C.3   174  VAL174      0.0266
    128  CG1       10.0640   -3.3820   34.3220 C.3   174  VAL174      0.0020
    129  CG2       12.2570   -3.1450   33.1470 C.3   174  VAL174      0.0020
    130  N         10.1600   -7.0590   34.3810 N.am  175  THR175     -0.1953
    131  CA         9.1160   -7.9010   34.9540 C.3   175  THR175      0.1897
    132  C          9.6370   -8.6890   36.1470 C.2   175  THR175      0.2313
    133  O          8.8930   -8.9290   37.1040 O.2   175  THR175     -0.2863
    134  CB         8.5490   -8.8510   33.8980 C.3   175  THR175      0.1794
    135  OG1        8.0810   -8.0980   32.7730 O.3   175  THR175     -0.2208
    136  CG2        7.3790   -9.6400   34.4740 C.3   175  THR175      0.0378
    137  N         10.1710   -5.9020   39.1760 N.3   178  ILE178     -0.1245
    138  CA         8.9600   -5.2950   39.7790 C.3   178  ILE178      0.1561
    139  C          7.8880   -6.3400   40.0660 C.2   178  ILE178      0.2260
    140  O          6.8540   -5.9570   40.5240 O.2   178  ILE178     -0.2867
    141  CB         8.4400   -4.1470   38.9080 C.3   178  ILE178      0.0252
    142  CG1        7.7880   -4.6630   37.6330 C.3   178  ILE178      0.0019
    143  CG2        9.5340   -3.1420   38.6170 C.3   178  ILE178      0.0019
    144  CD1        6.8980   -3.6690   36.9810 C.3   178  ILE178      0.0001
    145  N         -1.4790   -7.5790   39.3470 N.3   419  TRP419     -0.1241
    146  CA        -0.4990   -7.4880   38.2750 C.3   419  TRP419      0.1605
    147  C         -0.2630   -8.7910   37.5130 C.2   419  TRP419      0.2264
    148  O          0.3390   -8.7400   36.4350 O.2   419  TRP419     -0.2867
    149  CB         0.8310   -6.9550   38.8140 C.3   419  TRP419      0.0550
    150  CG         0.7420   -5.4920   39.1200 C.ar  419  TRP419      0.0003
    151  CD1        0.5960   -4.9160   40.3510 C.ar  419  TRP419      0.0946
    152  CD2        0.7480   -4.4180   38.1700 C.ar  419  TRP419      0.0152
    153  NE1        0.5300   -3.5470   40.2250 N.ar  419  TRP419     -0.2442
    154  CE2        0.6210   -3.2170   38.8970 C.ar  419  TRP419      0.0810
    155  CE3        0.8590   -4.3550   36.7750 C.ar  419  TRP419      0.0012
    156  CZ2        0.5980   -1.9660   38.2770 C.ar  419  TRP419      0.0191
    157  CZ3        0.8380   -3.1080   36.1590 C.ar  419  TRP419      0.0001
    158  CH2        0.7070   -1.9330   36.9110 C.ar  419  TRP419      0.0015
    159  N         -1.7410   -8.7380   33.8680 N.3   422  PHE422     -0.1227
    160  CA        -1.0310   -7.7460   33.0610 C.3   422  PHE422      0.1736
    161  C          0.2790   -8.3080   32.5170 C.2   422  PHE422      0.2595
    162  O          0.5570   -8.2500   31.3060 O.2   422  PHE422     -0.2718
    163  CB        -0.7840   -6.5110   33.9380 C.3   422  PHE422      0.0547
    164  CG        -0.1970   -5.3250   33.2190 C.ar  422  PHE422     -0.0202
    165  CD1        1.1780   -5.1350   33.1670 C.ar  422  PHE422     -0.0042
    166  CD2       -1.0210   -4.3680   32.6540 C.ar  422  PHE422     -0.0042
    167  CE1        1.7200   -4.0280   32.5300 C.ar  422  PHE422     -0.0003
    168  CE2       -0.4890   -3.2580   32.0210 C.ar  422  PHE422     -0.0003
    169  CZ         0.8840   -3.0890   31.9560 C.ar  422  PHE422     -0.0000
    170  N          1.0950   -8.8780   33.4060 N.am  423  HIS423     -0.1975
    171  CA         2.3540   -9.4540   32.9640 C.3   423  HIS423      0.1656
    172  C          2.1420  -10.6840   32.0980 C.2   423  HIS423      0.2291
    173  O          2.9280  -10.9160   31.1760 O.2   423  HIS423     -0.2864
    174  CB         3.2370   -9.7640   34.1680 C.3   423  HIS423      0.0771
    175  CG         3.6800   -8.5390   34.9030 C.ar  423  HIS423      0.0820
    176  ND1        4.3310   -7.4950   34.2780 N.ar  423  HIS423     -0.2267
    177  CD2        3.5470   -8.1780   36.2010 C.ar  423  HIS423      0.1154
    178  CE1        4.5900   -6.5490   35.1640 C.ar  423  HIS423      0.1986
    179  NE2        4.1210   -6.9370   36.3380 N.ar  423  HIS423     -0.2212
    180  N          1.4550   -9.4230   28.5970 N.3   426  PHE426     -0.1241
    181  CA         2.6200   -8.9510   27.8540 C.3   426  PHE426      0.1605
    182  C          3.7280   -9.9930   27.6900 C.2   426  PHE426      0.2264
    183  O          4.6330   -9.7830   26.8770 O.2   426  PHE426     -0.2867
    184  CB         3.1640   -7.6720   28.4960 C.3   426  PHE426      0.0534
    185  CG         2.3360   -6.4580   28.1680 C.ar  426  PHE426     -0.0203
    186  CD1        2.4260   -5.8640   26.9140 C.ar  426  PHE426     -0.0042
    187  CD2        1.4310   -5.9440   29.0850 C.ar  426  PHE426     -0.0042
    188  CE1        1.6510   -4.7630   26.5910 C.ar  426  PHE426     -0.0003
    189  CE2        0.6510   -4.8410   28.7650 C.ar  426  PHE426     -0.0003
    190  CZ         0.7620   -4.2510   27.5140 C.ar  426  PHE426     -0.0000
    191  N          3.1160  -13.2620   24.1280 N.3   429  PRO429     -0.2102
    192  CA         3.6570  -13.3600   22.7610 C.3   429  PRO429      0.1504
    193  C          4.9500  -14.1540   22.6710 C.2   429  PRO429      0.2575
    194  O          5.1800  -14.8270   21.6610 O.2   429  PRO429     -0.2718
    195  CB         3.8640  -11.8960   22.3630 C.3   429  PRO429      0.0282
    196  CG         2.8470  -11.1640   23.1360 C.3   429  PRO429      0.0208
    197  CD         2.7810  -11.8620   24.4650 C.3   429  PRO429      0.0893
    198  N          5.8070  -14.0960   23.6970 N.am  430  TYR430     -0.1977
    199  CA         7.0080  -14.9240   23.6960 C.3   430  TYR430      0.1639
    200  C          6.6630  -16.4090   23.7330 C.2   430  TYR430      0.2290
    201  O          7.3620  -17.2320   23.1290 O.2   430  TYR430     -0.2864
    202  CB         7.8940  -14.5700   24.8890 C.3   430  TYR430      0.0560
    203  CG         8.2970  -13.1170   24.9870 C.ar  430  TYR430     -0.0198
    204  CD1        8.7400  -12.4090   23.8730 C.ar  430  TYR430     -0.0009
    205  CD2        8.2350  -12.4520   26.2020 C.ar  430  TYR430     -0.0009
    206  CE1        9.1120  -11.0770   23.9820 C.ar  430  TYR430      0.0417
    207  CE2        8.6030  -11.1330   26.3170 C.ar  430  TYR430      0.0417
    208  CZ         9.0390  -10.4490   25.2150 C.ar  430  TYR430      0.1957
    209  OH         9.3970   -9.1310   25.3680 O.3   430  TYR430     -0.2866
    210  N         -1.8760  -12.8120   19.6370 N.3   435  LEU435     -0.1245
    211  CA        -2.6750  -11.8020   20.3270 C.3   435  LEU435      0.1561
    212  C         -3.6250  -11.1140   19.3550 C.2   435  LEU435      0.2260
    213  O         -3.4380   -9.9480   19.0070 O.2   435  LEU435     -0.2867
    214  CB        -1.7800  -10.7630   21.0120 C.3   435  LEU435      0.0270
    215  CG        -1.3190  -11.0530   22.4450 C.3   435  LEU435      0.0019
    216  CD1       -0.5700   -9.8600   23.0270 C.3   435  LEU435      0.0001
    217  CD2       -2.4960  -11.4300   23.3320 C.3   435  LEU435      0.0001
    218  N         -7.9850   -6.4160   27.0180 N.3   444  TYR444     -0.1241
    219  CA        -6.9220   -5.4940   27.3930 C.3   444  TYR444      0.1605
    220  C         -7.4350   -4.4050   28.3250 C.2   444  TYR444      0.2264
    221  O         -6.7550   -4.0420   29.2890 O.2   444  TYR444     -0.2867
    222  CB        -6.2850   -4.8730   26.1540 C.3   444  TYR444      0.0534
    223  CG        -5.2110   -3.8720   26.5070 C.ar  444  TYR444     -0.0201
    224  CD1       -4.0120   -4.2880   27.0760 C.ar  444  TYR444     -0.0009
    225  CD2       -5.3990   -2.5120   26.2900 C.ar  444  TYR444     -0.0009
    226  CE1       -3.0260   -3.3770   27.4100 C.ar  444  TYR444      0.0417
    227  CE2       -4.4190   -1.5950   26.6210 C.ar  444  TYR444      0.0417
    228  CZ        -3.2360   -2.0320   27.1790 C.ar  444  TYR444      0.1957
    229  OH        -2.2630   -1.1170   27.5040 O.3   444  TYR444     -0.2866
    230  N         -5.9010   -4.0840   32.0330 N.3   448  MET448     -0.1245
    231  CA        -5.3200   -2.8180   32.4460 C.3   448  MET448      0.1570
    232  C         -6.1140   -2.1810   33.5750 C.2   448  MET448      0.2261
    233  O         -5.5210   -1.5430   34.4500 O.2   448  MET448     -0.2867
    234  CB        -5.2110   -1.8530   31.2660 C.3   448  MET448      0.0387
    235  CG        -4.5100   -0.5570   31.6560 C.3   448  MET448      0.0595
    236  SD        -4.0010    0.4670   30.2700 S.3   448  MET448     -0.1393
    237  CE        -5.5870    0.8390   29.5200 C.3   448  MET448      0.0692
    238  N         -4.9000   -3.8940   36.7400 N.3   451  ALA451     -0.1231
    239  CA        -3.5510   -3.4650   37.0820 C.3   451  ALA451      0.1694
    240  C         -3.5570   -2.0570   37.6680 C.2   451  ALA451      0.2591
    241  O         -2.9600   -1.8130   38.7220 O.2   451  ALA451     -0.2718
    242  CB        -2.6490   -3.5460   35.8510 C.3   451  ALA451      0.0304
    243  N         -4.2540   -1.1190   37.0140 N.am  452  MET452     -0.1979
    244  CA        -4.3040    0.2510   37.5230 C.3   452  MET452      0.1605
    245  C         -5.0420    0.3330   38.8500 C.2   452  MET452      0.2287
    246  O         -4.7070    1.1740   39.6900 O.2   452  MET452     -0.2864
    247  CB        -4.9800    1.1910   36.5190 C.3   452  MET452      0.0413
    248  CG        -4.3410    1.2510   35.1430 C.3   452  MET452      0.0598
    249  SD        -2.6500    1.8630   35.1390 S.3   452  MET452     -0.1393
    250  CE        -2.8600    3.5180   35.7810 C.3   452  MET452      0.0692
@<TRIPOS>BOND
     1   213   212    2
     2   212   211    1
     3   210   211    1
     4    90    89   ar
     5   211   214    1
     6   100    99    1
     7    78    77    2
     8    91    89   ar
     9    99    98    1
    10    89    88    1
    11    77    76    1
    12   214   215    1
    13    75    76    1
    14   194   193    2
    15    98    97    1
    16    76    79    1
    17    88    87    1
    18   195   192    1
    19   195   196    1
    20   215   216    1
    21   215   217    1
    22   193   192    1
    23   193   198   am
    24   192   191    1
    25    97    96    1
    26   201   200    2
    27   196   197    1
    28    79    81    1
    29    79    80    1
    30    87    84    1
    31    83    84    1
    32   199   198    1
    33   199   200    1
    34   199   202    1
    35   204   206   ar
    36   204   203   ar
    37   206   208   ar
    38   191   197    1
    39    96    93    1
    40    84    85    1
    41    80    82    1
    42    92    85   am
    43    92    93    1
    44   202   203    1
    45   203   205   ar
    46    85    86    2
    47    93    94    1
    48   208   209    1
    49   208   207   ar
    50    42    40   am
    51   222   223    1
    52   222   219    1
    53   205   207   ar
    54   225   223   ar
    55   225   227   ar
    56    94    95    2
    57   223   224   ar
    58   188   186   ar
    59   188   190   ar
    60   227   228   ar
    61    40    41    2
    62    40    39    1
    63    34    32   ar
    64    34    33   ar
    65   183   182    2
    66   186   185   ar
    67    69    68    2
    68    32    30   ar
    69   218   219    1
    70   224   226   ar
    71   228   226   ar
    72   228   229    1
    73   219   220    1
    74   190   189   ar
    75    33    31   ar
    76   182   181    1
    77    74    72   am
    78    20    19    2
    79    39    36    1
    80   119   121   ar
    81   119   118   ar
    82   181   184    1
    83   181   180    1
    84    68    67    1
    85    30    31   ar
    86    30    29    1
    87    67    66    1
    88    67    70    1
    89   185   184    1
    90   185   187   ar
    91   117   118    1
    92   117   114    1
    93   101   102    1
    94   220   221    2
    95   121   122   ar
    96    72    71    1
    97    72    73    2
    98   105   102    1
    99   105   106    1
   100   118   120   ar
   101    29    26    1
   102    71    70    1
   103   189   187   ar
   104    19    18    1
   105   113   114    1
   106   113   103   am
   107    35    36    1
   108    35    27   am
   109    36    37    1
   110   102   103    1
   111   107   106   ar
   112   107   109   ar
   113    18    17    1
   114    18    21    1
   115   106   108   ar
   116   114   115    1
   117   122   120   ar
   118   237   236    1
   119    27    26    1
   120    27    28    2
   121   103   104    2
   122    26    25    1
   123   109   111   ar
   124    23    22    2
   125    37    38    2
   126   108   110   ar
   127   236   235    1
   128   115   116    2
   129    21    22    1
   130    22    24   am
   131   111   110   ar
   132   111   112    1
   133   173   172    2
   134   234   235    1
   135   234   231    1
   136   162   161    2
   137   169   168   ar
   138   169   167   ar
   139   168   166   ar
   140   230   231    1
   141   172   171    1
   142    12    11    2
   143    57    55    1
   144   231   232    1
   145   161   160    1
   146   161   170   am
   147   167   165   ar
   148   166   164   ar
   149   135   134    1
   150   171   170    1
   151   171   174    1
   152   160   159    1
   153   160   163    1
   154   129   127    1
   155   165   164   ar
   156   164   163    1
   157    16    14   am
   158    11    10    1
   159    55    54    1
   160   232   233    2
   161   127   128    1
   162   127   124    1
   163    49    48    1
   164    49    43    1
   165    48    47    1
   166   123   124    1
   167   134   136    1
   168   134   131    1
   169    10    13    1
   170    10     9    1
   171   174   175    1
   172   176   175   ar
   173   176   178   ar
   174    13    14    1
   175   130   131    1
   176   130   125   am
   177    14    15    2
   178   124   125    1
   179    47    44    1
   180    54    56    1
   181    54    51    1
   182   175   177   ar
   183   131   132    1
   184    43    44    1
   185   125   126    2
   186   249   248    1
   187   249   250    1
   188   248   247    1
   189   178   179   ar
   190    50    51    1
   191    50    45   am
   192    44    45    1
   193   242   239    1
   194    51    52    1
   195    45    46    2
   196   132   133    2
   197   157   155   ar
   198   157   158   ar
   199   177   179   ar
   200   148   147    2
   201   247   244    1
   202   238   239    1
   203   155   152   ar
   204   158   156   ar
   205   144   142    1
   206   243   244    1
   207   243   240   am
   208   239   240    1
   209    52    53    2
   210     4     3    2
   211   147   146    1
   212   244   245    1
   213   142   141    1
   214   240   241    2
   215     6     7    1
   216     6     5    1
   217     7     8    1
   218   152   154   ar
   219   152   150   ar
   220   146   149    1
   221   146   145    1
   222   156   154   ar
   223     3     2    1
   224   143   141    1
   225   149   150    1
   226   245   246    2
   227   154   153   ar
   228   141   138    1
   229     2     5    1
   230     2     1    1
   231    63    62    1
   232    63    65    1
   233   150   151   ar
   234   137   138    1
   235    62    64    1
   236    62    59    1
   237   138   139    1
   238   139   140    2
   239    58    59    1
   240   153   151   ar
   241    59    60    1
   242    60    61    2
