@<TRIPOS>MOLECULE
tmp/6hlpA00.pdb
 93 90 0 0 0
SMALL
GASTEIGER

@<TRIPOS>ATOM
      1  N         11.0570   -6.7340   55.2640 N.3   102  PHE102     -0.1241
      2  CA        12.3750   -6.9990   55.8290 C.3   102  PHE102      0.1605
      3  C         12.4960   -6.4390   57.2410 C.2   102  PHE102      0.2264
      4  O         13.1120   -7.0630   58.1130 O.2   102  PHE102     -0.2867
      5  CB        13.4530   -6.4100   54.9230 C.3   102  PHE102      0.0534
      6  CG        14.8290   -6.9190   55.2120 C.ar  102  PHE102     -0.0203
      7  CD1       15.3040   -8.0550   54.5800 C.ar  102  PHE102     -0.0042
      8  CD2       15.6530   -6.2590   56.1130 C.ar  102  PHE102     -0.0042
      9  CE1       16.5760   -8.5290   54.8430 C.ar  102  PHE102     -0.0003
     10  CE2       16.9280   -6.7270   56.3820 C.ar  102  PHE102     -0.0003
     11  CZ        17.3900   -7.8650   55.7470 C.ar  102  PHE102     -0.0000
     12  N         10.7110   -8.8350   59.4750 N.3   105  TYR105     -0.1227
     13  CA        11.5020  -10.0500   59.6070 C.3   105  TYR105      0.1736
     14  C         12.6690   -9.8400   60.5570 C.2   105  TYR105      0.2595
     15  O         13.0030  -10.7280   61.3450 O.2   105  TYR105     -0.2718
     16  CB        12.0050  -10.4810   58.2320 C.3   105  TYR105      0.0548
     17  CG        12.8540  -11.7290   58.2030 C.ar  105  TYR105     -0.0200
     18  CD1       14.2270  -11.6720   58.4300 C.ar  105  TYR105     -0.0009
     19  CD2       12.2930  -12.9600   57.9000 C.ar  105  TYR105     -0.0009
     20  CE1       15.0110  -12.8120   58.3830 C.ar  105  TYR105      0.0417
     21  CE2       13.0680  -14.1040   57.8440 C.ar  105  TYR105      0.0417
     22  CZ        14.4250  -14.0230   58.0890 C.ar  105  TYR105      0.1957
     23  OH        15.1930  -15.1600   58.0340 O.3   105  TYR105     -0.2866
     24  N         13.2940   -8.6640   60.5110 N.am  106  MET106     -0.1979
     25  CA        14.4000   -8.4110   61.4250 C.3   106  MET106      0.1605
     26  C         13.8990   -8.2760   62.8530 C.2   106  MET106      0.2287
     27  O         14.5040   -8.8280   63.7790 O.2   106  MET106     -0.2864
     28  CB        15.1710   -7.1630   61.0040 C.3   106  MET106      0.0413
     29  CG        15.8930   -7.3070   59.6740 C.3   106  MET106      0.0598
     30  SD        17.0970   -8.6530   59.6540 S.3   106  MET106     -0.1393
     31  CE        18.3260   -8.0230   60.8000 C.3   106  MET106      0.0692
     32  N         15.3970  -11.6570   64.2010 N.3   110  HIS110     -0.1241
     33  CA        16.6730  -11.2480   64.7940 C.3   110  HIS110      0.1621
     34  C         16.4840   -9.9680   65.5940 C.2   110  HIS110      0.2264
     35  O         16.9990   -8.9090   65.2190 O.2   110  HIS110     -0.2867
     36  CB        17.7400  -11.0430   63.7200 C.3   110  HIS110      0.0745
     37  CG        17.8100  -12.1480   62.7170 C.ar  110  HIS110      0.0817
     38  ND1       17.2150  -12.0630   61.4770 N.ar  110  HIS110     -0.2268
     39  CD2       18.3990  -13.3650   62.7700 C.ar  110  HIS110      0.1154
     40  CE1       17.4420  -13.1780   60.8060 C.ar  110  HIS110      0.1986
     41  NE2       18.1560  -13.9860   61.5690 N.ar  110  HIS110     -0.2212
     42  N         19.5710   -7.6440   66.3960 N.3   113  GLN113     -0.1245
     43  CA        20.3070   -6.9490   65.3470 C.3   113  GLN113      0.1566
     44  C         19.7090   -5.5640   65.0910 C.2   113  GLN113      0.2260
     45  O         18.4880   -5.4020   65.1050 O.2   113  GLN113     -0.2867
     46  CB        20.3130   -7.7760   64.0630 C.3   113  GLN113      0.0367
     47  CG        21.0660   -9.0910   64.2200 C.3   113  GLN113      0.0905
     48  CD        21.1360   -9.9040   62.9420 C.2   113  GLN113      0.2608
     49  OE1       21.0600   -9.3620   61.8350 O.2   113  GLN113     -0.2717
     50  NE2       21.2870  -11.2160   63.0890 N.am  113  GLN113     -0.0878
     51  N         10.7320  -11.2390   41.4590 N.3   181  LEU181     -0.1245
     52  CA        11.7170  -11.2020   42.5390 C.3   181  LEU181      0.1561
     53  C         11.1770  -10.6080   43.8370 C.2   181  LEU181      0.2260
     54  O         11.3330  -11.2480   44.8950 O.2   181  LEU181     -0.2867
     55  CB        12.9750  -10.4580   42.0740 C.3   181  LEU181      0.0270
     56  CG        13.9710  -10.1700   43.2050 C.3   181  LEU181      0.0019
     57  CD1       14.5490  -11.4700   43.7600 C.3   181  LEU181      0.0001
     58  CD2       15.0770   -9.2360   42.7380 C.3   181  LEU181      0.0001
     59  N          8.8420  -13.1070   45.4800 N.3   184  LEU184     -0.1231
     60  CA         9.5020  -14.2560   46.0920 C.3   184  LEU184      0.1693
     61  C         10.1670  -13.8670   47.4030 C.2   184  LEU184      0.2591
     62  O         10.0910  -14.6100   48.3920 O.2   184  LEU184     -0.2718
     63  CB        10.5260  -14.8580   45.1290 C.3   184  LEU184      0.0284
     64  CG         9.9380  -15.4150   43.8340 C.3   184  LEU184      0.0019
     65  CD1       11.0360  -15.8750   42.8830 C.3   184  LEU184      0.0001
     66  CD2        8.9710  -16.5490   44.1390 C.3   184  LEU184      0.0001
     67  N         10.7710  -12.6780   47.4460 N.am  185  VAL185     -0.1980
     68  CA        11.4510  -12.2370   48.6600 C.3   185  VAL185      0.1595
     69  C         10.4420  -11.9890   49.7770 C.2   185  VAL185      0.2287
     70  O         10.6110  -12.4600   50.9120 O.2   185  VAL185     -0.2864
     71  CB        12.2950  -10.9850   48.3670 C.3   185  VAL185      0.0276
     72  CG1       12.8290  -10.3810   49.6600 C.3   185  VAL185      0.0022
     73  CG2       13.4290  -11.3290   47.4230 C.3   185  VAL185      0.0022
     74  N          9.0020  -15.3070   51.0380 N.3   188  TYR188     -0.1227
     75  CA         9.8850  -15.9550   52.0030 C.3   188  TYR188      0.1736
     76  C          9.8010  -15.2680   53.3610 C.2   188  TYR188      0.2595
     77  O          9.6270  -15.9280   54.3990 O.2   188  TYR188     -0.2718
     78  CB        11.3340  -15.9520   51.5080 C.3   188  TYR188      0.0548
     79  CG        12.3040  -16.2500   52.6370 C.ar  188  TYR188     -0.0200
     80  CD1       12.5720  -17.5590   53.0180 C.ar  188  TYR188     -0.0009
     81  CD2       12.9190  -15.2230   53.3480 C.ar  188  TYR188     -0.0009
     82  CE1       13.4330  -17.8380   54.0650 C.ar  188  TYR188      0.0417
     83  CE2       13.7790  -15.4900   54.3960 C.ar  188  TYR188      0.0417
     84  CZ        14.0350  -16.8000   54.7520 C.ar  188  TYR188      0.1957
     85  OH        14.8930  -17.0760   55.7950 O.3   188  TYR188     -0.2866
     86  N          9.9180  -13.9350   53.3680 N.am  189  LEU189     -0.1980
     87  CA         9.9780  -13.2040   54.6290 C.3   189  LEU189      0.1596
     88  C          8.7060  -13.4070   55.4410 C.2   189  LEU189      0.2287
     89  O          8.7590  -13.7290   56.6350 O.2   189  LEU189     -0.2864
     90  CB        10.2200  -11.7150   54.3650 C.3   189  LEU189      0.0297
     91  CG        11.5490  -11.3230   53.7050 C.3   189  LEU189      0.0022
     92  CD1       11.5690   -9.8390   53.2930 C.3   189  LEU189      0.0001
     93  CD2       12.7380  -11.6580   54.6060 C.3   189  LEU189      0.0001
@<TRIPOS>BOND
     1    51    52    1
     2    55    52    1
     3    55    56    1
     4    52    53    1
     5    58    56    1
     6    65    64    1
     7    56    57    1
     8    64    66    1
     9    64    63    1
    10    53    54    2
    11    63    60    1
    12    59    60    1
    13    60    61    1
    14    61    67   am
    15    61    62    2
    16    73    71    1
    17    67    68    1
    18    71    68    1
    19    71    72    1
    20    68    69    1
    21    69    70    2
    22    74    75    1
    23    78    75    1
    24    78    79    1
    25    75    76    1
    26    79    80   ar
    27    79    81   ar
    28    80    82   ar
    29    92    91    1
    30    81    83   ar
    31    76    86   am
    32    76    77    2
    33    86    87    1
    34    91    90    1
    35    91    93    1
    36    82    84   ar
    37    90    87    1
    38    83    84   ar
    39     7     9   ar
    40     7     6   ar
    41    87    88    1
    42    84    85    1
    43     9    11   ar
    44     5     6    1
    45     5     2    1
    46     6     8   ar
    47     1     2    1
    48    88    89    2
    49    11    10   ar
    50     2     3    1
    51     8    10   ar
    52     3     4    2
    53    21    19   ar
    54    21    22   ar
    55    19    17   ar
    56    23    22    1
    57    22    20   ar
    58    17    16    1
    59    17    18   ar
    60    16    13    1
    61    20    18   ar
    62    12    13    1
    63    13    14    1
    64    30    29    1
    65    30    31    1
    66    29    28    1
    67    24    14   am
    68    24    25    1
    69    14    15    2
    70    40    38   ar
    71    40    41   ar
    72    28    25    1
    73    25    26    1
    74    38    37   ar
    75    41    39   ar
    76    49    48    2
    77    37    39   ar
    78    37    36    1
    79    26    27    2
    80    48    50   am
    81    48    47    1
    82    36    33    1
    83    46    47    1
    84    46    43    1
    85    32    33    1
    86    33    34    1
    87    44    45    2
    88    44    43    1
    89    35    34    2
    90    43    42    1
