@<TRIPOS>MOLECULE
tmp/6hlpA01.pdb
 81 77 0 0 0
SMALL
GASTEIGER

@<TRIPOS>ATOM
      1  N        -17.8620    2.2610   26.1160 N.3     6  ILE6       -0.1245
      2  CA       -16.7800    3.2130   26.3380 C.3     6  ILE6        0.1561
      3  C        -17.0870    4.0950   27.5410 C.2     6  ILE6        0.2260
      4  O        -16.2010    4.3890   28.3520 O.2     6  ILE6       -0.2867
      5  CB       -16.5380    4.0530   25.0710 C.3     6  ILE6        0.0252
      6  CG1      -16.2350    3.1480   23.8750 C.3     6  ILE6        0.0019
      7  CG2      -15.4050    5.0460   25.2930 C.3     6  ILE6        0.0019
      8  CD1      -14.9960    2.3000   24.0570 C.3     6  ILE6        0.0001
      9  N        -14.9370    4.2850   30.9380 N.3    10  ALA10      -0.1245
     10  CA       -14.4180    5.5650   31.3970 C.3    10  ALA10       0.1562
     11  C        -14.8350    5.8340   32.8350 C.2    10  ALA10       0.2260
     12  O        -14.0370    6.3420   33.6310 O.2    10  ALA10      -0.2867
     13  CB       -14.8940    6.6880   30.4770 C.3    10  ALA10       0.0290
     14  N        -12.5200    3.5520   35.0940 N.3    13  TYR13      -0.1227
     15  CA       -11.1940    4.1350   35.2690 C.3    13  TYR13       0.1736
     16  C        -11.2440    5.4100   36.1070 C.2    13  TYR13       0.2596
     17  O        -10.3170    5.6750   36.8890 O.2    13  TYR13      -0.2718
     18  CB       -10.5550    4.3990   33.9040 C.3    13  TYR13       0.0548
     19  CG        -9.9620    3.1590   33.2550 C.ar   13  TYR13      -0.0200
     20  CD1      -10.7720    2.2150   32.6320 C.ar   13  TYR13      -0.0009
     21  CD2       -8.5890    2.9350   33.2660 C.ar   13  TYR13      -0.0009
     22  CE1      -10.2310    1.0820   32.0380 C.ar   13  TYR13       0.0417
     23  CE2       -8.0390    1.8090   32.6750 C.ar   13  TYR13       0.0417
     24  CZ        -8.8650    0.8880   32.0600 C.ar   13  TYR13       0.1957
     25  OH        -8.3230   -0.2310   31.4750 O.3    13  TYR13      -0.2866
     26  N        -12.3220    6.1960   35.9900 N.am   14  THR14      -0.1953
     27  CA       -12.4640    7.3720   36.8440 C.3    14  THR14       0.1897
     28  C        -12.6040    6.9710   38.3070 C.2    14  THR14       0.2313
     29  O        -12.0940    7.6590   39.2040 O.2    14  THR14      -0.2863
     30  CB       -13.6770    8.1960   36.4060 C.3    14  THR14       0.1794
     31  OG1      -13.5370    8.5760   35.0320 O.3    14  THR14      -0.2208
     32  CG2      -13.8180    9.4500   37.2580 C.3    14  THR14       0.0378
     33  N         -9.1990    6.4140   39.5750 N.3    17  VAL17      -0.1245
     34  CA        -8.4370    7.6410   39.8060 C.3    17  VAL17       0.1561
     35  C         -8.8560    8.2940   41.1180 C.2    17  VAL17       0.2260
     36  O         -8.0160    8.6250   41.9690 O.2    17  VAL17      -0.2867
     37  CB        -8.6070    8.6180   38.6280 C.3    17  VAL17       0.0252
     38  CG1       -7.8500    9.9100   38.9070 C.3    17  VAL17       0.0019
     39  CG2       -8.1310    7.9820   37.3380 C.3    17  VAL17       0.0019
     40  N         -5.7480    8.2130   33.0230 N.3    61  VAL61      -0.1245
     41  CA        -6.6840    8.7800   32.0560 C.3    61  VAL61       0.1561
     42  C         -6.1580    8.5880   30.6380 C.2    61  VAL61       0.2260
     43  O         -6.8740    8.1060   29.7510 O.2    61  VAL61      -0.2867
     44  CB        -6.9470   10.2650   32.3680 C.3    61  VAL61       0.0252
     45  CG1       -7.6970   10.9320   31.2150 C.3    61  VAL61       0.0019
     46  CG2       -7.7270   10.4080   33.6760 C.3    61  VAL61       0.0019
     47  N         -6.1300    4.9760   29.4410 N.3    64  PHE64      -0.1227
     48  CA        -7.4530    4.5740   28.9800 C.3    64  PHE64       0.1736
     49  C         -7.7590    5.1390   27.5960 C.2    64  PHE64       0.2596
     50  O         -8.1440    4.3990   26.6760 O.2    64  PHE64      -0.2718
     51  CB        -8.5110    5.0260   29.9830 C.3    64  PHE64       0.0547
     52  CG        -9.9020    4.8920   29.4720 C.ar   64  PHE64      -0.0202
     53  CD1      -10.4790    3.6430   29.3360 C.ar   64  PHE64      -0.0042
     54  CD2      -10.6280    6.0060   29.1010 C.ar   64  PHE64      -0.0042
     55  CE1      -11.7610    3.5070   28.8460 C.ar   64  PHE64      -0.0003
     56  CE2      -11.9140    5.8770   28.6090 C.ar   64  PHE64      -0.0003
     57  CZ       -12.4810    4.6240   28.4860 C.ar   64  PHE64      -0.0000
     58  N         -7.6000    6.4570   27.4290 N.am   65  THR65      -0.1953
     59  CA        -8.0380    7.0770   26.1800 C.3    65  THR65       0.1897
     60  C         -7.1950    6.6010   25.0040 C.2    65  THR65       0.2313
     61  O         -7.7200    6.3810   23.9060 O.2    65  THR65      -0.2863
     62  CB        -7.9930    8.6050   26.2860 C.3    65  THR65       0.1794
     63  OG1       -6.6340    9.0450   26.3780 O.3    65  THR65      -0.2208
     64  CG2       -8.7620    9.0860   27.5110 C.3    65  THR65       0.0378
     65  N         -8.3530    3.2660   23.9760 N.3    68  VAL68      -0.1231
     66  CA        -9.6310    3.3000   23.2680 C.3    68  VAL68       0.1692
     67  C         -9.4830    3.9330   21.8860 C.2    68  VAL68       0.2592
     68  O        -10.1090    3.4880   20.9170 O.2    68  VAL68      -0.2718
     69  CB       -10.6810    4.0360   24.1230 C.3    68  VAL68       0.0266
     70  CG1      -11.8370    4.5130   23.2640 C.3    68  VAL68       0.0020
     71  CG2      -11.1930    3.1220   25.2220 C.3    68  VAL68       0.0020
     72  N         -8.6600    4.9720   21.7700 N.am   69  HIS69      -0.1976
     73  CA        -8.4740    5.7120   20.5190 C.3    69  HIS69       0.1656
     74  C         -6.9750    5.7540   20.2560 C.2    69  HIS69       0.2291
     75  O         -6.2530    6.5440   20.8710 O.2    69  HIS69      -0.2864
     76  CB        -9.0700    7.1120   20.6100 C.3    69  HIS69       0.0771
     77  CG        -8.9730    7.8980   19.3400 C.ar   69  HIS69       0.0820
     78  ND1       -9.7970    7.6690   18.2590 N.ar   69  HIS69      -0.2267
     79  CD2       -8.1540    8.9150   18.9810 C.ar   69  HIS69       0.1154
     80  CE1       -9.4880    8.5100   17.2880 C.ar   69  HIS69       0.1986
     81  NE2       -8.4940    9.2770   17.7000 N.ar   69  HIS69      -0.2212
@<TRIPOS>BOND
     1    80    81   ar
     2    80    78   ar
     3    81    79   ar
     4    78    77   ar
     5    79    77   ar
     6    77    76    1
     7    74    73    1
     8    74    75    2
     9    73    76    1
    10    73    72    1
    11    68    67    2
    12    72    67   am
    13    67    66    1
    14    70    69    1
    15    66    65    1
    16    66    69    1
    17     6     8    1
    18     6     5    1
    19    61    60    2
    20    69    71    1
    21    60    59    1
    22     5     7    1
    23     5     2    1
    24     1     2    1
    25    59    62    1
    26    59    58    1
    27    62    63    1
    28    62    64    1
    29     2     3    1
    30    50    49    2
    31    58    49   am
    32     3     4    2
    33    49    48    1
    34    57    56   ar
    35    57    55   ar
    36    56    54   ar
    37    55    53   ar
    38    48    47    1
    39    48    51    1
    40    54    52   ar
    41    53    52   ar
    42    52    51    1
    43    43    42    2
    44    13    10    1
    45    42    41    1
    46     9    10    1
    47    45    44    1
    48    10    11    1
    49    25    24    1
    50    22    24   ar
    51    22    20   ar
    52    41    44    1
    53    41    40    1
    54    24    23   ar
    55    44    46    1
    56    20    19   ar
    57    23    21   ar
    58    11    12    2
    59    19    21   ar
    60    19    18    1
    61    18    15    1
    62    31    30    1
    63    14    15    1
    64    15    16    1
    65    26    16   am
    66    26    27    1
    67    16    17    2
    68    30    27    1
    69    30    32    1
    70    27    28    1
    71    39    37    1
    72    28    29    2
    73    37    38    1
    74    37    34    1
    75    33    34    1
    76    34    35    1
    77    35    36    2
