@<TRIPOS>MOLECULE
tmp/6hlxA00.pdb
 181 173 0 0 0
SMALL
GASTEIGER

@<TRIPOS>ATOM
      1  N         84.0230  -38.1800    5.9090 N.3    19  GLN19      -0.1245
      2  CA        83.7920  -37.2950    4.7600 C.3    19  GLN19       0.1566
      3  C         85.2040  -36.8470    4.3140 C.2    19  GLN19       0.2260
      4  O         85.7610  -35.9020    4.9030 O.2    19  GLN19      -0.2867
      5  CB        82.9360  -36.0830    5.1970 C.3    19  GLN19       0.0367
      6  CG        82.1800  -35.3820    4.0570 C.3    19  GLN19       0.0905
      7  CD        83.0180  -34.9780    2.8760 C.2    19  GLN19       0.2608
      8  OE1       83.5060  -35.8290    2.1250 O.2    19  GLN19      -0.2717
      9  NE2       83.1690  -33.6810    2.6560 N.am   19  GLN19      -0.0878
     10  N         86.1610  -35.7390    1.3150 N.3    21  GLY21      -0.1210
     11  CA        86.0860  -34.7850    0.2170 C.3    21  GLY21       0.1956
     12  C         85.3020  -35.3780   -0.9470 C.2    21  GLY21       0.2613
     13  O         84.8430  -36.5260   -0.8860 O.2    21  GLY21      -0.2717
     14  N         85.1340  -34.5940   -2.0080 N.am   22  THR22      -0.1938
     15  CA        84.3090  -34.9790   -3.1720 C.3    22  THR22       0.2028
     16  C         84.8260  -36.2340   -3.8760 C.2    22  THR22       0.2642
     17  O         84.0130  -37.0350   -4.3600 O.2    22  THR22      -0.2714
     18  CB        84.1710  -33.7780   -4.1100 C.3    22  THR22       0.1808
     19  OG1       83.7010  -32.6850   -3.3200 O.3    22  THR22      -0.2208
     20  CG2       83.2080  -34.0280   -5.2710 C.3    22  THR22       0.0379
     21  N         86.1660  -36.4250   -3.9170 N.am   23  SER23      -0.1949
     22  CA        86.7020  -37.6090   -4.6280 C.3    23  SER23       0.1924
     23  C         86.2180  -38.9200   -3.9900 C.2    23  SER23       0.2314
     24  O         85.6520  -39.7700   -4.6870 O.2    23  SER23      -0.2863
     25  CB        88.2280  -37.5580   -4.7040 C.3    23  SER23       0.2116
     26  OG        88.6300  -36.4110   -5.4370 O.3    23  SER23      -0.2180
     27  N         85.7060  -31.2630  -11.2560 N.3   215  TYR215     -0.1241
     28  CA        86.4530  -30.0510  -10.9280 C.3   215  TYR215      0.1605
     29  C         87.1210  -29.4220  -12.1650 C.2   215  TYR215      0.2264
     30  O         88.3330  -29.2420  -12.2050 O.2   215  TYR215     -0.2867
     31  CB        87.4730  -30.3360   -9.8180 C.3   215  TYR215      0.0534
     32  CG        86.8570  -30.3970   -8.4410 C.ar  215  TYR215     -0.0201
     33  CD1       86.3740  -31.5970   -7.9260 C.ar  215  TYR215     -0.0009
     34  CD2       86.8550  -29.2820   -7.6060 C.ar  215  TYR215     -0.0009
     35  CE1       85.8310  -31.6730   -6.6430 C.ar  215  TYR215      0.0417
     36  CE2       86.3250  -29.3470   -6.3110 C.ar  215  TYR215      0.0417
     37  CZ        85.8100  -30.5460   -5.8340 C.ar  215  TYR215      0.1957
     38  OH        85.3130  -30.6310   -4.5420 O.3   215  TYR215     -0.2866
     39  N         86.7700  -20.6450    7.5430 N.3   243  GLN243     -0.1245
     40  CA        86.4260  -21.2730    8.8210 C.3   243  GLN243      0.1566
     41  C         87.5500  -20.8590    9.7550 C.2   243  GLN243      0.2260
     42  O         88.7220  -20.8740    9.3520 O.2   243  GLN243     -0.2867
     43  CB        86.3940  -22.8090    8.7060 C.3   243  GLN243      0.0367
     44  CG        85.1830  -23.2990    7.9460 C.3   243  GLN243      0.0905
     45  CD        85.3870  -24.6790    7.4070 C.2   243  GLN243      0.2608
     46  OE1       85.6050  -24.8380    6.2060 O.2   243  GLN243     -0.2717
     47  NE2       85.3580  -25.7020    8.2740 N.am  243  GLN243     -0.0878
     48  N         94.3530  -27.9580   -5.5050 N.3   331  TYR331     -0.1241
     49  CA        93.3020  -27.2790   -6.2590 C.3   331  TYR331      0.1605
     50  C         93.7950  -25.8620   -6.4460 C.2   331  TYR331      0.2264
     51  O         93.9360  -25.1250   -5.4650 O.2   331  TYR331     -0.2867
     52  CB        91.9780  -27.3280   -5.4660 C.3   331  TYR331      0.0534
     53  CG        91.4690  -28.7460   -5.3290 C.ar  331  TYR331     -0.0201
     54  CD1       91.9550  -29.5900   -4.3290 C.ar  331  TYR331     -0.0009
     55  CD2       90.5470  -29.2690   -6.2380 C.ar  331  TYR331     -0.0009
     56  CE1       91.5310  -30.9140   -4.2310 C.ar  331  TYR331      0.0417
     57  CE2       90.1220  -30.5960   -6.1540 C.ar  331  TYR331      0.0417
     58  CZ        90.6370  -31.4200   -5.1660 C.ar  331  TYR331      0.1957
     59  OH        90.2030  -32.7120   -5.0630 O.3   331  TYR331     -0.2866
     60  N         92.4290  -23.2420   -7.4530 N.3   333  PHE333     -0.1227
     61  CA        91.5650  -22.1660   -6.9040 C.3   333  PHE333      0.1736
     62  C         91.7410  -21.9870   -5.3930 C.2   333  PHE333      0.2595
     63  O         91.5890  -20.8790   -4.9020 O.2   333  PHE333     -0.2718
     64  CB        90.0960  -22.3570   -7.2960 C.3   333  PHE333      0.0547
     65  CG        89.4080  -23.5450   -6.6580 C.ar  333  PHE333     -0.0202
     66  CD1       88.8260  -23.4380   -5.3980 C.ar  333  PHE333     -0.0042
     67  CD2       89.3400  -24.7740   -7.3210 C.ar  333  PHE333     -0.0042
     68  CE1       88.2060  -24.5450   -4.8000 C.ar  333  PHE333     -0.0003
     69  CE2       88.7010  -25.8730   -6.7280 C.ar  333  PHE333     -0.0003
     70  CZ        88.1330  -25.7470   -5.4790 C.ar  333  PHE333     -0.0000
     71  N         92.0400  -23.0700   -4.6560 N.am  334  GLN334     -0.1979
     72  CA        92.2440  -22.9870   -3.2010 C.3   334  GLN334      0.1601
     73  C         93.5560  -22.2460   -2.9140 C.2   334  GLN334      0.2287
     74  O         93.6000  -21.3050   -2.0960 O.2   334  GLN334     -0.2864
     75  CB        92.2960  -24.3980   -2.6060 C.3   334  GLN334      0.0394
     76  CG        90.9480  -25.1120   -2.5480 C.3   334  GLN334      0.0908
     77  CD        90.4690  -25.2870   -1.1270 C.2   334  GLN334      0.2608
     78  OE1       91.1980  -25.0870   -0.1530 O.2   334  GLN334     -0.2717
     79  NE2       89.2200  -25.6820   -0.9900 N.am  334  GLN334     -0.0878
     80  N         95.6040  -32.4300   -0.8030 N.3   359  TRP359     -0.1241
     81  CA        94.2620  -32.4130   -0.2350 C.3   359  TRP359      0.1605
     82  C         94.1000  -33.2940    0.9940 C.2   359  TRP359      0.2264
     83  O         93.5540  -32.8310    2.0080 O.2   359  TRP359     -0.2867
     84  CB        93.1860  -32.7460   -1.3020 C.3   359  TRP359      0.0550
     85  CG        91.8200  -32.6670   -0.7040 C.ar  359  TRP359      0.0003
     86  CD1       91.0270  -33.7140   -0.3420 C.ar  359  TRP359      0.0946
     87  CD2       91.2060  -31.4930   -0.1670 C.ar  359  TRP359      0.0152
     88  NE1       89.8930  -33.2540    0.2810 N.ar  359  TRP359     -0.2442
     89  CE2       89.9770  -31.8910    0.4060 C.ar  359  TRP359      0.0810
     90  CE3       91.5390  -30.1300   -0.1830 C.ar  359  TRP359      0.0012
     91  CZ2       89.0960  -30.9750    0.9910 C.ar  359  TRP359      0.0191
     92  CZ3       90.6580  -29.2200    0.3920 C.ar  359  TRP359      0.0001
     93  CH2       89.4650  -29.6500    0.9860 C.ar  359  TRP359      0.0015
     94  N         95.5790  -31.6870    4.0200 N.3   362  ARG362     -0.1231
     95  CA        94.7480  -30.5570    4.4850 C.3   362  ARG362      0.1694
     96  C         93.5290  -31.1230    5.2690 C.2   362  ARG362      0.2591
     97  O         93.2130  -30.6310    6.3520 O.2   362  ARG362     -0.2718
     98  CB        94.2730  -29.7140    3.2580 C.3   362  ARG362      0.0321
     99  CG        93.3390  -28.5330    3.5910 C.3   362  ARG362      0.0489
    100  CD        91.8760  -28.9510    3.7360 C.3   362  ARG362      0.2205
    101  NE        91.0500  -27.7940    4.0630 N.pl3 362  ARG362     -0.0865
    102  CZ        89.7890  -27.8350    4.4830 C.cat 362  ARG362      0.5346
    103  NH1       89.1480  -26.7130    4.7820 N.pl3 362  ARG362      0.1354
    104  NH2       89.1550  -28.9970    4.5960 N.pl3 362  ARG362      0.1354
    105  N         92.8390  -32.1320    4.7140 N.am  363  MET363     -0.1979
    106  CA        91.6440  -32.7210    5.3520 C.3   363  MET363      0.1605
    107  C         91.9590  -33.3440    6.7010 C.2   363  MET363      0.2287
    108  O         91.1350  -33.2170    7.6100 O.2   363  MET363     -0.2864
    109  CB        90.9850  -33.8100    4.4670 C.3   363  MET363      0.0413
    110  CG        89.9080  -33.3290    3.5720 C.3   363  MET363      0.0598
    111  SD        88.6730  -32.2070    4.2970 S.3   363  MET363     -0.1393
    112  CE        87.3560  -33.2320    4.6610 C.3   363  MET363      0.0692
    113  N         92.2390  -30.4310    8.9990 N.3   366  ALA366     -0.1245
    114  CA        90.9220  -29.8100    9.1860 C.3   366  ALA366      0.1562
    115  C         90.0370  -30.6430   10.1290 C.2   366  ALA366      0.2260
    116  O         89.3430  -30.0750   10.9890 O.2   366  ALA366     -0.2867
    117  CB        90.2330  -29.5990    7.8430 C.3   366  ALA366      0.0290
    118  N         87.6460  -22.2320    3.0040 N.3   376  MET376     -0.1230
    119  CA        86.4590  -23.0840    2.9860 C.3   376  MET376      0.1702
    120  C         85.9000  -23.0440    1.5690 C.2   376  MET376      0.2593
    121  O         85.5460  -21.9740    1.0930 O.2   376  MET376     -0.2718
    122  CB        85.4120  -22.4950    3.9910 C.3   376  MET376      0.0401
    123  CG        84.0140  -23.1330    3.8970 C.3   376  MET376      0.0596
    124  SD        82.8610  -22.4780    5.1340 S.3   376  MET376     -0.1393
    125  CE        82.6750  -20.7120    4.5770 C.3   376  MET376      0.0692
    126  N         85.8460  -24.2000    0.9190 N.am  377  GLY377     -0.1942
    127  CA        85.2350  -24.4030   -0.3940 C.3   377  GLY377      0.2014
    128  C         84.1590  -25.4310   -0.1360 C.2   377  GLY377      0.2639
    129  O         84.4750  -26.6010    0.0710 O.2   377  GLY377     -0.2714
    130  N         82.8940  -25.0040    0.0220 N.am  378  SER378     -0.1949
    131  CA        81.8930  -25.9630    0.4960 C.3   378  SER378      0.1924
    132  C         80.4770  -25.5820    0.1490 C.2   378  SER378      0.2314
    133  O         80.2640  -24.7180   -0.7020 O.2   378  SER378     -0.2863
    134  CB        82.0420  -26.1920    2.0040 C.3   378  SER378      0.2116
    135  OG        81.4760  -27.4480    2.3730 O.3   378  SER378     -0.2180
    136  N         75.1850  -29.3100    3.2390 N.3   381  GLU381     -0.1245
    137  CA        75.2630  -30.7780    3.0200 C.3   381  GLU381      0.1567
    138  C         73.9140  -31.4380    2.7620 C.2   381  GLU381      0.2260
    139  O         73.8580  -32.5910    2.3430 O.2   381  GLU381     -0.2867
    140  CB        75.9930  -31.4470    4.1840 C.3   381  GLU381      0.0388
    141  CG        77.4390  -30.9680    4.3450 C.3   381  GLU381      0.1160
    142  CD        78.4380  -31.4520    3.2960 C.2   381  GLU381      0.3649
    143  OE1       78.0730  -32.2280    2.3740 O.co2 381  GLU381     -0.2457
    144  OE2       79.6050  -31.0160    3.4000 O.co2 381  GLU381     -0.2457
    145  N         83.8230  -30.8260    9.6940 N.3   401  THR401     -0.1203
    146  CA        84.3850  -30.4820    8.3850 C.3   401  THR401      0.1994
    147  C         84.0100  -29.0640    7.9000 C.2   401  THR401      0.2617
    148  O         84.7970  -28.4730    7.1710 O.2   401  THR401     -0.2717
    149  CB        83.9250  -31.5160    7.3140 C.3   401  THR401      0.1784
    150  OG1       82.4840  -31.5450    7.2830 O.3   401  THR401     -0.2211
    151  CG2       84.5160  -32.9180    7.5500 C.3   401  THR401      0.0376
    152  N         82.8380  -28.5270    8.3110 N.am  402  ASN402     -0.1974
    153  CA        82.3020  -27.2530    7.8070 C.3   402  ASN402      0.1688
    154  C         82.1880  -26.1260    8.8260 C.2   402  ASN402      0.2292
    155  O         81.7950  -25.0290    8.4390 O.2   402  ASN402     -0.2864
    156  CB        80.9100  -27.4760    7.1970 C.3   402  ASN402      0.1181
    157  CG        80.9270  -28.2340    5.8960 C.2   402  ASN402      0.2629
    158  OD1       80.0290  -29.0540    5.6030 O.2   402  ASN402     -0.2716
    159  ND2       81.9300  -27.9590    5.0740 N.am  402  ASN402     -0.0877
    160  N         80.8050  -19.9480   -6.3990 N.3   451  ARG451     -0.1245
    161  CA        81.6630  -20.3720   -7.5180 C.3   451  ARG451      0.1563
    162  C         80.9320  -21.3260   -8.4620 C.2   451  ARG451      0.2260
    163  O         79.9680  -21.9860   -8.0580 O.2   451  ARG451     -0.2867
    164  CB        82.9550  -21.0470   -7.0020 C.3   451  ARG451      0.0307
    165  CG        82.7210  -22.4160   -6.3560 C.3   451  ARG451      0.0489
    166  CD        84.0160  -23.0680   -5.8820 C.3   451  ARG451      0.2205
    167  NE        83.9220  -24.5300   -5.9140 N.pl3 451  ARG451     -0.0865
    168  CZ        84.3700  -25.3360   -4.9550 C.cat 451  ARG451      0.5346
    169  NH1       84.9310  -24.8320   -3.8600 N.pl3 451  ARG451      0.1354
    170  NH2       84.2860  -26.6510   -5.0940 N.pl3 451  ARG451      0.1354
    171  N         78.2080  -31.9400   -5.1140 N.3   473  PHE473     -0.1241
    172  CA        79.2170  -32.9050   -4.6350 C.3   473  PHE473      0.1605
    173  C         78.7020  -34.3630   -4.5680 C.2   473  PHE473      0.2264
    174  O         79.5000  -35.2810   -4.3410 O.2   473  PHE473     -0.2867
    175  CB        79.8210  -32.4810   -3.2940 C.3   473  PHE473      0.0534
    176  CG        80.6380  -31.2040   -3.2800 C.ar  473  PHE473     -0.0203
    177  CD1       81.1070  -30.6350   -4.4670 C.ar  473  PHE473     -0.0042
    178  CD2       80.9920  -30.6000   -2.0750 C.ar  473  PHE473     -0.0042
    179  CE1       81.9020  -29.4790   -4.4450 C.ar  473  PHE473     -0.0003
    180  CE2       81.7630  -29.4230   -2.0580 C.ar  473  PHE473     -0.0003
    181  CZ        82.2100  -28.8730   -3.2390 C.ar  473  PHE473     -0.0000
@<TRIPOS>BOND
     1    30    29    2
     2    29    28    1
     3    27    28    1
     4    28    31    1
     5    31    32    1
     6   162   163    2
     7   162   161    1
     8    32    33   ar
     9    32    34   ar
    10    33    35   ar
    11    34    36   ar
    12   161   164    1
    13   161   160    1
    14    60    61    1
    15    67    69   ar
    16    67    65   ar
    17    64    61    1
    18    64    65    1
    19   164   165    1
    20    61    62    1
    21    69    70   ar
    22    65    66   ar
    23    35    37   ar
    24    50    49    1
    25    50    51    2
    26   165   166    1
    27    36    37   ar
    28    49    48    1
    29    49    52    1
    30    55    57   ar
    31    55    53   ar
    32    57    58   ar
    33   167   166    1
    34   167   168    2
    35    37    38    1
    36    70    68   ar
    37    52    53    1
    38    26    25    1
    39    66    68   ar
    40    62    63    2
    41    62    71   am
    42    53    54   ar
    43    20    18    1
    44    58    59    1
    45    58    56   ar
    46   171   172    1
    47   170   168    1
    48   168   169    1
    49    25    22    1
    50    24    23    2
    51    71    72    1
    52   172   173    1
    53   172   175    1
    54    22    23    1
    55    22    21    1
    56   173   174    2
    57   177   179   ar
    58   177   176   ar
    59   179   181   ar
    60    17    16    2
    61    54    56   ar
    62    18    19    1
    63    18    15    1
    64    21    16   am
    65    16    15    1
    66   175   176    1
    67   176   178   ar
    68   181   180   ar
    69    72    73    1
    70    72    75    1
    71    15    14    1
    72    73    74    2
    73    75    76    1
    74    76    77    1
    75   178   180   ar
    76    14    12   am
    77    84    85    1
    78    84    81    1
    79    77    79   am
    80    77    78    2
    81    12    13    2
    82    12    11    1
    83    80    81    1
    84    85    86   ar
    85    85    87   ar
    86   133   132    2
    87   127   128    1
    88   127   126    1
    89    86    88   ar
    90    81    82    1
    91    90    87   ar
    92    90    92   ar
    93    87    89   ar
    94   128   130   am
    95   128   129    2
    96   130   131    1
    97   132   131    1
    98    11    10    1
    99    88    89   ar
   100    92    93   ar
   101    89    91   ar
   102   131   134    1
   103   126   120   am
   104    93    91   ar
   105    82    83    2
   106   121   120    2
   107   120   119    1
   108   134   135    1
   109     8     7    2
   110   139   138    2
   111   143   142   ar
   112     9     7   am
   113   138   137    1
   114     7     6    1
   115   119   118    1
   116   119   122    1
   117   137   136    1
   118   137   140    1
   119    98    99    1
   120    98    95    1
   121   142   144   ar
   122   142   141    1
   123   110   111    1
   124   110   109    1
   125    99   100    1
   126   100   101    1
   127   123   122    1
   128   123   124    1
   129    94    95    1
   130     6     5    1
   131   101   102    2
   132   140   141    1
   133   111   112    1
   134     3     2    1
   135     3     4    2
   136   109   106    1
   137   102   104    1
   138   102   103    1
   139    95    96    1
   140   125   124    1
   141   105    96   am
   142   105   106    1
   143     2     5    1
   144     2     1    1
   145   159   157   am
   146    96    97    2
   147   106   107    1
   148   158   157    2
   149   157   156    1
   150    46    45    2
   151   107   108    2
   152   148   147    2
   153   156   153    1
   154   150   149    1
   155   149   151    1
   156   149   146    1
   157    45    44    1
   158    45    47   am
   159    39    40    1
   160   153   152    1
   161   153   154    1
   162   117   114    1
   163   147   152   am
   164   147   146    1
   165    44    43    1
   166   146   145    1
   167   155   154    2
   168    43    40    1
   169    40    41    1
   170   113   114    1
   171   114   115    1
   172    42    41    2
   173   115   116    2
