@<TRIPOS>MOLECULE
tmp/6hlyA00.pdb
 165 157 0 0 0
SMALL
GASTEIGER

@<TRIPOS>ATOM
      1  N         53.0590    5.9460   85.0840 N.3    11  TYR11      -0.1241
      2  CA        52.9490    7.2500   85.7400 C.3    11  TYR11       0.1605
      3  C         51.8590    7.3750   86.8050 C.2    11  TYR11       0.2264
      4  O         51.6520    8.4920   87.3150 O.2    11  TYR11      -0.2867
      5  CB        52.7010    8.3260   84.6680 C.3    11  TYR11       0.0534
      6  CG        53.7390    8.2970   83.5700 C.ar   11  TYR11      -0.0201
      7  CD1       53.5670    7.4940   82.4460 C.ar   11  TYR11      -0.0009
      8  CD2       54.9110    9.0320   83.6780 C.ar   11  TYR11      -0.0009
      9  CE1       54.5260    7.4410   81.4440 C.ar   11  TYR11       0.0417
     10  CE2       55.8740    9.0110   82.6790 C.ar   11  TYR11       0.0417
     11  CZ        55.6820    8.1990   81.5640 C.ar   11  TYR11       0.1957
     12  OH        56.6200    8.1480   80.5820 O.3    11  TYR11      -0.2866
     13  N         46.0290    7.7770   84.2010 N.3    15  PHE15      -0.1241
     14  CA        46.6460    7.1970   83.0120 C.3    15  PHE15       0.1605
     15  C         46.9620    5.7510   83.2790 C.2    15  PHE15       0.2264
     16  O         46.6380    4.9010   82.4480 O.2    15  PHE15      -0.2867
     17  CB        47.8930    7.9680   82.5770 C.3    15  PHE15       0.0534
     18  CG        48.5980    7.3610   81.3920 C.ar   15  PHE15      -0.0203
     19  CD1       47.8860    6.9750   80.2570 C.ar   15  PHE15      -0.0042
     20  CD2       49.9800    7.1820   81.4030 C.ar   15  PHE15      -0.0042
     21  CE1       48.5330    6.3590   79.1880 C.ar   15  PHE15      -0.0003
     22  CE2       50.6310    6.5890   80.3200 C.ar   15  PHE15      -0.0003
     23  CZ        49.9010    6.1750   79.2230 C.ar   15  PHE15      -0.0000
     24  N         58.4760    8.2640   77.8930 N.3    63  GLU63      -0.1245
     25  CA        58.1830    9.3950   77.0110 C.3    63  GLU63       0.1567
     26  C         59.4310    9.6250   76.1620 C.2    63  GLU63       0.2260
     27  O         60.5340    9.2930   76.6000 O.2    63  GLU63      -0.2867
     28  CB        57.7540   10.6430   77.7990 C.3    63  GLU63       0.0388
     29  CG        58.7750   11.1370   78.7990 C.3    63  GLU63       0.1160
     30  CD        58.2040   11.8270   80.0310 C.2    63  GLU63       0.3649
     31  OE1       57.0050   11.6390   80.3410 O.co2  63  GLU63      -0.2457
     32  OE2       58.9840   12.5350   80.7040 O.co2  63  GLU63      -0.2457
     33  N         51.6560    5.4080   71.7530 N.3   102  MET102     -0.1245
     34  CA        50.7180    6.4530   72.0770 C.3   102  MET102      0.1570
     35  C         51.2950    7.7960   71.7290 C.2   102  MET102      0.2261
     36  O         52.5060    7.9980   71.7910 O.2   102  MET102     -0.2867
     37  CB        50.4380    6.4060   73.6040 C.3   102  MET102      0.0387
     38  CG        49.1990    7.1680   74.0350 C.3   102  MET102      0.0595
     39  SD        48.9640    7.1090   75.8210 S.3   102  MET102     -0.1393
     40  CE        50.3020    8.2340   76.3530 C.3   102  MET102      0.0692
     41  N         50.6510   11.8370   72.7700 N.3   104  PHE104     -0.1241
     42  CA        49.9430   12.6150   73.7690 C.3   104  PHE104      0.1605
     43  C         50.2780   14.0710   73.6980 C.2   104  PHE104      0.2264
     44  O         51.4580   14.4360   73.5500 O.2   104  PHE104     -0.2867
     45  CB        50.2380   12.0600   75.1840 C.3   104  PHE104      0.0534
     46  CG        51.6660   12.1540   75.6630 C.ar  104  PHE104     -0.0203
     47  CD1       52.6240   11.2280   75.2450 C.ar  104  PHE104     -0.0042
     48  CD2       52.0400   13.1140   76.6010 C.ar  104  PHE104     -0.0042
     49  CE1       53.9380   11.2980   75.7210 C.ar  104  PHE104     -0.0003
     50  CE2       53.3610   13.2070   77.0400 C.ar  104  PHE104     -0.0003
     51  CZ        54.3010   12.2890   76.6100 C.ar  104  PHE104     -0.0000
     52  N         50.3910   17.7920   75.7760 N.3   106  THR106     -0.1218
     53  CA        50.5420   18.4520   77.0760 C.3   106  THR106      0.1862
     54  C         50.0150   19.8620   76.8380 C.2   106  THR106      0.2287
     55  O         50.4480   20.5120   75.8940 O.2   106  THR106     -0.2866
     56  CB        51.9730   18.4370   77.5560 C.3   106  THR106      0.1770
     57  OG1       52.3650   17.0550   77.6140 O.3   106  THR106     -0.2211
     58  CG2       52.0950   19.0040   78.9560 C.3   106  THR106      0.0375
     59  N         55.3610   21.2830   84.7340 N.3   136  PRO136     -0.2102
     60  CA        55.8780   19.8990   84.8180 C.3   136  PRO136      0.1504
     61  C         57.1090   19.7950   85.7250 C.2   136  PRO136      0.2576
     62  O         57.7420   20.7950   86.0700 O.2   136  PRO136     -0.2718
     63  CB        56.3020   19.5960   83.3770 C.3   136  PRO136      0.0282
     64  CG        55.3870   20.5430   82.5310 C.3   136  PRO136      0.0208
     65  CD        55.4410   21.8060   83.3520 C.3   136  PRO136      0.0893
     66  N         57.4530   18.5470   86.1020 N.am  137  SER137     -0.1938
     67  CA        58.5670   18.3210   87.0240 C.3   137  SER137      0.2055
     68  C         59.9560   18.4080   86.4320 C.2   137  SER137      0.2643
     69  O         60.9430   18.6720   87.1710 O.2   137  SER137     -0.2714
     70  CB        58.3940   16.9730   87.7210 C.3   137  SER137      0.2130
     71  OG        58.3140   15.9400   86.7460 O.3   137  SER137     -0.2179
     72  N         60.0740   18.1680   85.1170 N.am  138  ASP138     -0.1971
     73  CA        61.4010   18.2270   84.5170 C.3   138  ASP138      0.1709
     74  C         61.4230   19.3760   83.4980 C.2   138  ASP138      0.2293
     75  O         60.3950   20.0130   83.2540 O.2   138  ASP138     -0.2864
     76  CB        61.7220   16.8820   83.8250 C.3   138  ASP138      0.1436
     77  CG        63.2020   16.5340   83.7380 C.2   138  ASP138      0.3671
     78  OD1       64.0300   17.4070   84.0430 O.co2 138  ASP138     -0.2456
     79  OD2       63.5210   15.3910   83.3220 O.co2 138  ASP138     -0.2456
     80  N         61.8610   19.0820   80.3630 N.3   140  THR140     -0.1203
     81  CA        61.0890   18.7170   79.1780 C.3   140  THR140      0.1994
     82  C         59.6850   19.2540   79.3220 C.2   140  THR140      0.2617
     83  O         59.1080   19.2220   80.4150 O.2   140  THR140     -0.2717
     84  CB        61.1240   17.2020   79.0140 C.3   140  THR140      0.1784
     85  OG1       60.8390   16.6480   80.3070 O.3   140  THR140     -0.2211
     86  CG2       62.4860   16.7330   78.5610 C.3   140  THR140      0.0376
     87  N         59.0950   19.6910   78.1840 N.am  141  TYR141     -0.1975
     88  CA        57.7200   20.2330   78.1220 C.3   141  TYR141      0.1639
     89  C         57.6810   21.6260   78.7060 C.2   141  TYR141      0.2290
     90  O         57.2390   22.5480   78.0350 O.2   141  TYR141     -0.2864
     91  CB        56.6560   19.3160   78.8260 C.3   141  TYR141      0.0560
     92  CG        56.7850   17.8730   78.4050 C.ar  141  TYR141     -0.0198
     93  CD1       56.2740   17.4310   77.1900 C.ar  141  TYR141     -0.0009
     94  CD2       57.3800   16.9360   79.2380 C.ar  141  TYR141     -0.0009
     95  CE1       56.4350   16.1040   76.7810 C.ar  141  TYR141      0.0417
     96  CE2       57.5410   15.6120   78.8440 C.ar  141  TYR141      0.0417
     97  CZ        57.1010   15.2060   77.6020 C.ar  141  TYR141      0.1957
     98  OH        57.3210   13.8930   77.2030 O.3   141  TYR141     -0.2866
     99  N         55.5840   19.5320   88.9900 N.3   180  LYS180     -0.1231
    100  CA        55.0120   18.2550   89.3920 C.3   180  LYS180      0.1693
    101  C         54.7510   17.2440   88.3130 C.2   180  LYS180      0.2593
    102  O         54.6690   17.5810   87.1280 O.2   180  LYS180     -0.2718
    103  CB        53.6520   18.5490   90.0500 C.3   180  LYS180      0.0285
    104  CG        53.6900   19.4710   91.2880 C.3   180  LYS180      0.0035
    105  CD        54.3720   18.8320   92.4730 C.3   180  LYS180      0.0206
    106  CE        53.9500   19.5270   93.7480 C.3   180  LYS180      0.1093
    107  NZ        54.7170   19.0180   94.9130 N.3   180  LYS180     -0.1314
    108  N         54.5700   16.0010   88.7720 N.am  181  GLY181     -0.1942
    109  CA        54.1830   14.9090   87.8870 C.3   181  GLY181      0.2014
    110  C         52.7010   14.9680   87.5550 C.2   181  GLY181      0.2638
    111  O         51.9280   15.7140   88.1690 O.2   181  GLY181     -0.2714
    112  N         52.2730   14.1220   86.5900 N.am  182  ALA182     -0.1977
    113  CA        50.9140   14.1370   86.0740 C.3   182  ALA182      0.1597
    114  C         49.8280   13.8130   87.0870 C.2   182  ALA182      0.2287
    115  O         48.7700   14.4550   87.1080 O.2   182  ALA182     -0.2864
    116  CB        50.8150   13.2000   84.8760 C.3   182  ALA182      0.0319
    117  N         49.3900   16.7330   89.3860 N.3   185  ILE185     -0.1245
    118  CA        48.6500   17.8380   88.7670 C.3   185  ILE185      0.1561
    119  C         47.1470   17.5460   88.7010 C.2   185  ILE185      0.2260
    120  O         46.3370   18.4270   88.9950 O.2   185  ILE185     -0.2867
    121  CB        49.1920   18.1350   87.3520 C.3   185  ILE185      0.0252
    122  CG1       50.6360   18.6110   87.4340 C.3   185  ILE185      0.0019
    123  CG2       48.2670   19.1500   86.6640 C.3   185  ILE185      0.0019
    124  CD1       51.3500   18.8470   86.0830 C.3   185  ILE185      0.0001
    125  N         49.4640   20.2470   81.4980 N.3   199  ALA199     -0.1231
    126  CA        49.3560   18.8020   81.7970 C.3   199  ALA199      0.1694
    127  C         48.8760   17.9960   80.6110 C.2   199  ALA199      0.2592
    128  O         48.2730   18.5460   79.6840 O.2   199  ALA199     -0.2718
    129  CB        48.3560   18.6160   82.9400 C.3   199  ALA199      0.0304
    130  N         49.0400   16.6790   80.6820 N.am  200  GLY200     -0.1957
    131  CA        48.5510   15.8440   79.5890 C.3   200  GLY200      0.1869
    132  C         47.0690   16.0160   79.3370 C.2   200  GLY200      0.2309
    133  O         46.2790   16.1600   80.2750 O.2   200  GLY200     -0.2863
    134  N         44.8170   13.7350   81.3280 N.3   203  ARG203     -0.1245
    135  CA        44.6800   14.0680   82.7480 C.3   203  ARG203      0.1563
    136  C         43.6590   15.1910   82.9410 C.2   203  ARG203      0.2260
    137  O         42.7940   15.1380   83.8510 O.2   203  ARG203     -0.2867
    138  CB        46.0270   14.4780   83.3160 C.3   203  ARG203      0.0307
    139  CG        47.0910   13.3930   83.2110 C.3   203  ARG203      0.0489
    140  CD        46.9320   12.2880   84.2580 C.3   203  ARG203      0.2205
    141  NE        48.0620   11.3700   84.1310 N.pl3 203  ARG203     -0.0865
    142  CZ        48.5400   10.6210   85.1180 C.cat 203  ARG203      0.5346
    143  NH1       47.9510   10.6300   86.3210 N.pl3 203  ARG203      0.1354
    144  NH2       49.6310    9.8890   84.9290 N.pl3 203  ARG203      0.1354
    145  N         54.9160    8.1700   73.2910 N.3   226  GLU226     -0.1245
    146  CA        55.2330    7.3150   74.4110 C.3   226  GLU226      0.1567
    147  C         55.6000    5.9490   73.8300 C.2   226  GLU226      0.2260
    148  O         54.9370    5.4550   72.9010 O.2   226  GLU226     -0.2867
    149  CB        53.9950    7.1680   75.3050 C.3   226  GLU226      0.0388
    150  CG        54.3080    6.5170   76.6340 C.3   226  GLU226      0.1160
    151  CD        55.0160    7.3910   77.6320 C.2   226  GLU226      0.3649
    152  OE1       55.5300    6.8330   78.6230 O.co2 226  GLU226     -0.2457
    153  OE2       55.0320    8.6280   77.4470 O.co2 226  GLU226     -0.2457
    154  N         44.3080   10.3830   74.7130 N.3   262  TYR262     -0.1241
    155  CA        45.6110   10.2810   74.1050 C.3   262  TYR262      0.1605
    156  C         45.4040    9.4480   72.8510 C.2   262  TYR262      0.2264
    157  O         44.4500    8.6650   72.8060 O.2   262  TYR262     -0.2867
    158  CB        46.5790    9.6130   75.0690 C.3   262  TYR262      0.0534
    159  CG        46.8450   10.4100   76.3380 C.ar  262  TYR262     -0.0201
    160  CD1       47.0950   11.7840   76.2900 C.ar  262  TYR262     -0.0009
    161  CD2       46.9510    9.7700   77.5780 C.ar  262  TYR262     -0.0009
    162  CE1       47.4730   12.4940   77.4370 C.ar  262  TYR262      0.0417
    163  CE2       47.3890   10.4640   78.7150 C.ar  262  TYR262      0.0417
    164  CZ        47.5790   11.8360   78.6530 C.ar  262  TYR262      0.1957
    165  OH        47.9500   12.5120   79.7910 O.3   262  TYR262     -0.2866
@<TRIPOS>BOND
     1    35    36    2
     2    35    34    1
     3    33    34    1
     4    34    37    1
     5    41    42    1
     6   157   156    2
     7   156   155    1
     8   148   147    2
     9   145   146    1
    10    44    43    2
    11    37    38    1
    12    43    42    1
    13    42    45    1
    14   147   146    1
    15    38    39    1
    16   155   154    1
    17   155   158    1
    18   146   149    1
    19   158   159    1
    20    45    46    1
    21    47    46   ar
    22    47    49   ar
    23   149   150    1
    24    46    48   ar
    25    49    51   ar
    26    52    53    1
    27    39    40    1
    28    55    54    2
    29    26    27    2
    30    26    25    1
    31   160   159   ar
    32   160   162   ar
    33   159   161   ar
    34    48    50   ar
    35    51    50   ar
    36   150   151    1
    37    95    93   ar
    38    95    97   ar
    39    54    53    1
    40    25    28    1
    41    25    24    1
    42    53    56    1
    43    93    92   ar
    44    98    97    1
    45   162   164   ar
    46   153   151   ar
    47    56    57    1
    48    56    58    1
    49   161   163   ar
    50    97    96   ar
    51   151   152   ar
    52    28    29    1
    53    90    89    2
    54    88    87    1
    55    88    89    1
    56    88    91    1
    57    87    82   am
    58    92    91    1
    59    92    94   ar
    60    86    84    1
    61   164   163   ar
    62   164   165    1
    63    29    30    1
    64    96    94   ar
    65    84    81    1
    66    84    85    1
    67    81    82    1
    68    81    80    1
    69    21    23   ar
    70    21    19   ar
    71    23    22   ar
    72    82    83    2
    73   132   131    1
    74   132   133    2
    75   131   130    1
    76   128   127    2
    77    30    31   ar
    78    30    32   ar
    79    19    18   ar
    80    22    20   ar
    81    12    11    1
    82   127   130   am
    83   127   126    1
    84   134   135    1
    85    18    20   ar
    86    18    17    1
    87     9    11   ar
    88     9     7   ar
    89   125   126    1
    90    11    10   ar
    91   126   129    1
    92     7     6   ar
    93    16    15    2
    94    64    65    1
    95    64    63    1
    96    17    14    1
    97    10     8   ar
    98   135   136    1
    99   135   138    1
   100   136   137    2
   101    14    15    1
   102    14    13    1
   103   139   138    1
   104   139   140    1
   105    75    74    2
   106    79    77   ar
   107    65    59    1
   108    63    60    1
   109    74    73    1
   110     6     8   ar
   111     6     5    1
   112    77    76    1
   113    77    78   ar
   114    76    73    1
   115   141   140    1
   116   141   142    2
   117    73    72    1
   118     5     2    1
   119    59    60    1
   120    60    61    1
   121   116   113    1
   122   144   142    1
   123     1     2    1
   124    72    68   am
   125   142   143    1
   126    61    62    2
   127    61    66   am
   128     2     3    1
   129   113   112    1
   130   113   114    1
   131   124   122    1
   132    66    67    1
   133    68    67    1
   134    68    69    2
   135   112   110   am
   136   123   121    1
   137    71    70    1
   138     3     4    2
   139    67    70    1
   140   114   115    2
   141   102   101    2
   142   121   122    1
   143   121   118    1
   144   110   109    1
   145   110   111    2
   146   109   108    1
   147   101   108   am
   148   101   100    1
   149   119   118    1
   150   119   120    2
   151   118   117    1
   152    99   100    1
   153   100   103    1
   154   103   104    1
   155   104   105    1
   156   105   106    1
   157   106   107    1
