@<TRIPOS>MOLECULE
tmp/6hm0A00.pdb
 138 139 0 0 0
SMALL
GASTEIGER

@<TRIPOS>ATOM
      1  N          6.1920    6.2100    4.4380 N.3    20  PRO20      -0.2102
      2  CA         4.8330    5.9750    4.9260 C.3    20  PRO20       0.1504
      3  C          3.9740    5.0690    4.0280 C.2    20  PRO20       0.2576
      4  O          3.0750    4.4000    4.5400 O.2    20  PRO20      -0.2718
      5  CB         4.2010    7.3820    4.9920 C.3    20  PRO20       0.0282
      6  CG         5.0330    8.2060    4.0290 C.3    20  PRO20       0.0208
      7  CD         6.4270    7.6240    4.1190 C.3    20  PRO20       0.0893
      8  N          4.2570    5.0480    2.7210 N.am   21  HIS21      -0.1962
      9  CA         3.4730    4.2680    1.7510 C.3    21  HIS21       0.1787
     10  C          3.9430    2.8050    1.6720 C.2    21  HIS21       0.2621
     11  O          3.3270    2.0140    0.9780 O.2    21  HIS21      -0.2715
     12  CB         3.5330    4.9260    0.3670 C.3    21  HIS21       0.0785
     13  CG         2.9000    6.2770    0.3090 C.ar   21  HIS21       0.0821
     14  ND1        1.6280    6.5260    0.7930 N.ar   21  HIS21      -0.2267
     15  CD2        3.3380    7.4400   -0.2220 C.ar   21  HIS21       0.1154
     16  CE1        1.3350    7.7930    0.5990 C.ar   21  HIS21       0.1986
     17  NE2        2.3700    8.3750   -0.0190 N.ar   21  HIS21      -0.2212
     18  N          5.0470    2.4550    2.3560 N.am   22  GLY22      -0.1940
     19  CA         5.5170    1.0690    2.4490 C.3    22  GLY22       0.2014
     20  C          6.1430    0.5480    1.1490 C.2    22  GLY22       0.2639
     21  O          6.1360   -0.6650    0.9000 O.2    22  GLY22      -0.2714
     22  N          6.7180    1.4440    0.3390 N.am   23  PHE23      -0.1959
     23  CA         7.2970    1.0700   -0.9240 C.3    23  PHE23       0.1771
     24  C          8.5720    0.2320   -0.7190 C.2    23  PHE23       0.2619
     25  O          8.9160   -0.5630   -1.5720 O.2    23  PHE23      -0.2715
     26  CB         7.6590    2.3070   -1.7500 C.3    23  PHE23       0.0574
     27  CG         6.5020    3.1610   -2.2020 C.ar   23  PHE23      -0.0200
     28  CD1        5.3080    2.5990   -2.6440 C.ar   23  PHE23      -0.0042
     29  CD2        6.6360    4.5430   -2.2220 C.ar   23  PHE23      -0.0042
     30  CE1        4.2770    3.4090   -3.0970 C.ar   23  PHE23      -0.0003
     31  CE2        5.6050    5.3520   -2.6690 C.ar   23  PHE23      -0.0003
     32  CZ         4.4190    4.7910   -3.0920 C.ar   23  PHE23      -0.0000
     33  N          9.2450    0.4200    0.4220 N.am   24  PHE24      -0.1974
     34  CA        10.4680   -0.2980    0.7380 C.3    24  PHE24       0.1639
     35  C         10.2300   -1.3380    1.8350 C.2    24  PHE24       0.2290
     36  O         11.1940   -1.8730    2.3560 O.2    24  PHE24      -0.2864
     37  CB        11.5640    0.6830    1.1530 C.3    24  PHE24       0.0560
     38  CG        12.0050    1.5870    0.0390 C.ar   24  PHE24      -0.0200
     39  CD1       12.7730    1.0940   -1.0040 C.ar   24  PHE24      -0.0042
     40  CD2       11.5960    2.9110    0.0030 C.ar   24  PHE24      -0.0042
     41  CE1       13.1760    1.9230   -2.0370 C.ar   24  PHE24      -0.0003
     42  CE2       11.9830    3.7380   -1.0420 C.ar   24  PHE24      -0.0003
     43  CZ        12.7610    3.2440   -2.0620 C.ar   24  PHE24      -0.0000
     44  N          8.5060   -4.3850    1.7360 N.3    26  PHE26      -0.1228
     45  CA         8.5460   -5.7570    1.2830 C.3    26  PHE26       0.1721
     46  C          9.1920   -5.8210   -0.0920 C.2    26  PHE26       0.2437
     47  O          9.3840   -4.8080   -0.7350 O.2    26  PHE26      -0.2733
     48  CB         7.1400   -6.3550    1.3260 C.3    26  PHE26       0.0547
     49  CG         6.6270   -6.4670    2.7370 C.ar   26  PHE26      -0.0202
     50  CD1        7.2180   -7.3590    3.6320 C.ar   26  PHE26      -0.0042
     51  CD2        5.6160   -5.6410    3.2080 C.ar   26  PHE26      -0.0042
     52  CE1        6.7590   -7.4720    4.9430 C.ar   26  PHE26      -0.0003
     53  CE2        5.1860   -5.7290    4.5250 C.ar   26  PHE26      -0.0003
     54  CZ         5.7500   -6.6470    5.3880 C.ar   26  PHE26      -0.0000
     55  N          9.5650   -7.0180   -0.5860 N.am   27  PRO27      -0.2718
     56  CA        10.1920   -7.1360   -1.9030 C.3    27  PRO27       0.1535
     57  C          9.2760   -6.6590   -3.0540 C.2    27  PRO27       0.2598
     58  O          8.0970   -6.9560   -3.0570 O.2    27  PRO27      -0.2715
     59  CB        10.4710   -8.6410   -2.0440 C.3    27  PRO27       0.0310
     60  CG        10.4340   -9.1770   -0.6190 C.3    27  PRO27       0.0237
     61  CD         9.4050   -8.3210    0.0880 C.3    27  PRO27       0.0939
     62  N          9.8560   -5.9510   -4.0320 N.am   28  VAL28      -0.1978
     63  CA         9.1890   -5.5700   -5.2500 C.3    28  VAL28       0.1596
     64  C          8.9480   -6.8340   -6.0880 C.2    28  VAL28       0.2287
     65  O          9.8890   -7.5930   -6.3260 O.2    28  VAL28      -0.2864
     66  CB        10.0290   -4.5450   -6.0390 C.3    28  VAL28       0.0276
     67  CG1        9.3370   -4.1420   -7.3350 C.3    28  VAL28       0.0022
     68  CG2       10.3360   -3.3030   -5.2100 C.3    28  VAL28       0.0022
     69  N          3.9740   -6.0410   -9.9730 N.3    32  ILE32      -0.1231
     70  CA         3.6920   -4.6160   -9.7870 C.3    32  ILE32       0.1692
     71  C          4.7700   -3.7780  -10.4720 C.2    32  ILE32       0.2591
     72  O          4.5720   -2.6050  -10.6560 O.2    32  ILE32      -0.2718
     73  CB         3.5140   -4.2400   -8.2930 C.3    32  ILE32       0.0266
     74  CG1        4.8030   -4.3860   -7.4910 C.3    32  ILE32       0.0019
     75  CG2        2.3730   -5.0270   -7.6610 C.3    32  ILE32       0.0020
     76  CD1        4.7940   -3.5620   -6.2080 C.3    32  ILE32       0.0001
     77  N          5.8740   -4.4190  -10.8720 N.am   33  ALA33      -0.1980
     78  CA         7.0180   -3.7600  -11.4780 C.3    33  ALA33       0.1597
     79  C          7.5350   -4.6300  -12.6150 C.2    33  ALA33       0.2287
     80  O          8.4420   -5.4210  -12.4300 O.2    33  ALA33      -0.2864
     81  CB         8.0800   -3.5230  -10.4350 C.3    33  ALA33       0.0319
     82  N         11.1850   -6.4100  -13.3710 N.3    36  TYR36      -0.1241
     83  CA        12.0480   -6.0390  -12.2400 C.3    36  TYR36       0.1605
     84  C         13.1730   -7.0660  -12.0390 C.2    36  TYR36       0.2264
     85  O         14.3260   -6.7040  -11.9380 O.2    36  TYR36      -0.2867
     86  CB        11.2460   -5.8870  -10.9410 C.3    36  TYR36       0.0534
     87  CG        12.0190   -5.2690   -9.8010 C.ar   36  TYR36      -0.0201
     88  CD1       12.1400   -3.8910   -9.7240 C.ar   36  TYR36      -0.0009
     89  CD2       12.6260   -6.0410   -8.8110 C.ar   36  TYR36      -0.0009
     90  CE1       12.8170   -3.2840   -8.6820 C.ar   36  TYR36       0.0417
     91  CE2       13.3390   -5.4530   -7.7780 C.ar   36  TYR36       0.0417
     92  CZ        13.4200   -4.0660   -7.7070 C.ar   36  TYR36       0.1957
     93  OH        14.1180   -3.4380   -6.7140 O.3    36  TYR36      -0.2866
     94  N         19.5230   -1.2870   -1.4090 N.3    71  MET71      -0.1245
     95  CA        18.1110   -1.0180   -1.5470 C.3    71  MET71       0.1570
     96  C         17.8380    0.2730   -2.3520 C.2    71  MET71       0.2261
     97  O         16.9820    0.2880   -3.2400 O.2    71  MET71      -0.2867
     98  CB        17.4890   -0.8780   -0.1610 C.3    71  MET71       0.0387
     99  CG        16.0170   -0.9850   -0.1690 C.3    71  MET71       0.0595
    100  SD        15.3870   -0.7740    1.4900 S.3    71  MET71      -0.1393
    101  CE        15.4480    1.0190    1.6150 C.3    71  MET71       0.0692
    102  N         16.5880    0.9350   -6.4310 N.3    75  ALA75      -0.1245
    103  CA        15.4890    1.8300   -6.8070 C.3    75  ALA75       0.1562
    104  C         15.9380    2.8150   -7.8980 C.2    75  ALA75       0.2260
    105  O         15.1740    3.1150   -8.8230 O.2    75  ALA75      -0.2867
    106  CB        14.9740    2.5400   -5.5960 C.3    75  ALA75       0.0290
    107  N         16.3840    0.6420  -11.4530 N.3    78  TYR78      -0.1227
    108  CA        15.1610    0.2000  -12.1170 C.3    78  TYR78       0.1736
    109  C         14.2660    1.3850  -12.5400 C.2    78  TYR78       0.2595
    110  O         13.6170    1.3190  -13.5820 O.2    78  TYR78      -0.2718
    111  CB        14.3370   -0.7330  -11.2290 C.3    78  TYR78       0.0548
    112  CG        13.0210   -1.1440  -11.8570 C.ar   78  TYR78      -0.0200
    113  CD1       12.9720   -2.1100  -12.8470 C.ar   78  TYR78      -0.0009
    114  CD2       11.8300   -0.5450  -11.4880 C.ar   78  TYR78      -0.0009
    115  CE1       11.7780   -2.4740  -13.4580 C.ar   78  TYR78       0.0417
    116  CE2       10.6240   -0.9080  -12.0730 C.ar   78  TYR78       0.0417
    117  CZ        10.5900   -1.8860  -13.0590 C.ar   78  TYR78       0.1957
    118  OH         9.4210   -2.2690  -13.6580 O.3    78  TYR78      -0.2866
    119  N         14.1740    2.4210  -11.6930 N.am   79  ASN79      -0.1974
    120  CA        13.2460    3.5190  -11.9140 C.3    79  ASN79       0.1688
    121  C         13.9340    4.6810  -12.6520 C.2    79  ASN79       0.2292
    122  O         15.0860    4.9710  -12.4550 O.2    79  ASN79      -0.2864
    123  CB        12.6140    4.0070  -10.6090 C.3    79  ASN79       0.1181
    124  CG        11.8930    2.9040   -9.8680 C.2    79  ASN79       0.2629
    125  OD1       10.7620    2.5820  -10.1980 O.2    79  ASN79      -0.2716
    126  ND2       12.5380    2.3370   -8.8590 N.am   79  ASN79      -0.0877
    127  N          9.5980    6.6160   -6.6780 N.3    85  TYR85      -0.1241
    128  CA        10.4910    5.6150   -6.0800 C.3    85  TYR85       0.1605
    129  C         11.9350    6.1120   -6.1280 C.2    85  TYR85       0.2264
    130  O         12.6730    5.9390   -5.1790 O.2    85  TYR85      -0.2867
    131  CB        10.3930    4.2490   -6.7770 C.3    85  TYR85       0.0534
    132  CG         8.9880    3.7620   -6.9100 C.ar   85  TYR85      -0.0201
    133  CD1        8.2610    3.4290   -5.7920 C.ar   85  TYR85      -0.0009
    134  CD2        8.3730    3.6660   -8.1450 C.ar   85  TYR85      -0.0009
    135  CE1        6.9510    3.0110   -5.8890 C.ar   85  TYR85       0.0417
    136  CE2        7.0590    3.2450   -8.2610 C.ar   85  TYR85       0.0417
    137  CZ         6.3530    2.9130   -7.1250 C.ar   85  TYR85       0.1957
    138  OH         5.0510    2.5230   -7.1990 O.3    85  TYR85      -0.2866
@<TRIPOS>BOND
     1   118   117    1
     2   110   109    2
     3   115   117   ar
     4   115   113   ar
     5    82    83    1
     6   117   116   ar
     7   113   112   ar
     8   121   122    2
     9   121   120    1
    10    79    80    2
    11    79    78    1
    12   109   108    1
    13   109   119   am
    14    83    84    1
    15    83    86    1
    16   108   107    1
    17   108   111    1
    18   116   114   ar
    19    84    85    2
    20   120   119    1
    21   120   123    1
    22   112   114   ar
    23   112   111    1
    24    78    77    1
    25    78    81    1
    26    86    87    1
    27    77    71   am
    28    72    71    2
    29   123   124    1
    30    71    70    1
    31   125   124    2
    32    69    70    1
    33   124   126   am
    34    87    88   ar
    35    87    89   ar
    36    70    73    1
    37    88    90   ar
    38   105   104    2
    39    89    91   ar
    40    90    92   ar
    41    73    75    1
    42    73    74    1
    43   136   134   ar
    44   136   137   ar
    45   134   132   ar
    46   104   103    1
    47    91    92   ar
    48    92    93    1
    49    74    76    1
    50    67    66    1
    51   138   137    1
    52   137   135   ar
    53   132   131    1
    54   132   133   ar
    55   103   102    1
    56   103   106    1
    57   131   128    1
    58   127   128    1
    59    65    64    2
    60   129   128    1
    61   129   130    2
    62    64    63    1
    63    66    63    1
    64    66    68    1
    65   135   133   ar
    66    63    62    1
    67    62    57   am
    68    97    96    2
    69    30    32   ar
    70    30    28   ar
    71    32    31   ar
    72    58    57    2
    73    57    56    1
    74    31    29   ar
    75    28    27   ar
    76    96    95    1
    77    29    27   ar
    78    27    26    1
    79    43    41   ar
    80    43    42   ar
    81    59    56    1
    82    59    60    1
    83    41    39   ar
    84    56    55    1
    85    26    23    1
    86    25    24    2
    87    95    94    1
    88    95    98    1
    89    42    40   ar
    90    39    38   ar
    91    23    24    1
    92    23    22    1
    93    47    46    2
    94    24    33   am
    95    60    61    1
    96    55    46   am
    97    55    61    1
    98    15    17   ar
    99    15    13   ar
   100    99    98    1
   101    99   100    1
   102    46    45    1
   103    17    16   ar
   104    40    38   ar
   105    38    37    1
   106    13    12    1
   107    13    14   ar
   108    22    20   am
   109    12     9    1
   110    33    34    1
   111    16    14   ar
   112    34    37    1
   113    34    35    1
   114    21    20    2
   115    11    10    2
   116    20    19    1
   117    45    48    1
   118    45    44    1
   119    48    49    1
   120   100   101    1
   121    10     9    1
   122    10    18   am
   123     9     8    1
   124    35    36    2
   125    18    19    1
   126     8     3   am
   127    49    51   ar
   128    49    50   ar
   129    51    53   ar
   130    50    52   ar
   131     3     4    2
   132     3     2    1
   133     6     7    1
   134     6     5    1
   135     7     1    1
   136     1     2    1
   137    53    54   ar
   138     2     5    1
   139    52    54   ar
