@<TRIPOS>MOLECULE
tmp/6hm1A00.pdb
 198 190 0 0 0
SMALL
GASTEIGER

@<TRIPOS>ATOM
      1  N          7.6070    0.1430  -12.6050 N.3     8  TYR8       -0.1241
      2  CA         8.9700    0.5990  -12.3930 C.3     8  TYR8        0.1605
      3  C          9.5720    1.0220  -13.7170 C.2     8  TYR8        0.2264
      4  O          9.2790    0.4410  -14.7650 O.2     8  TYR8       -0.2867
      5  CB         9.8430   -0.4960  -11.7880 C.3     8  TYR8        0.0534
      6  CG         9.6680   -0.7190  -10.2960 C.ar    8  TYR8       -0.0201
      7  CD1        8.5780   -1.4350   -9.8020 C.ar    8  TYR8       -0.0009
      8  CD2       10.6060   -0.2400   -9.3840 C.ar    8  TYR8       -0.0009
      9  CE1        8.4140   -1.6550   -8.4380 C.ar    8  TYR8        0.0417
     10  CE2       10.4560   -0.4650   -8.0280 C.ar    8  TYR8        0.0417
     11  CZ         9.3570   -1.1680   -7.5530 C.ar    8  TYR8        0.1957
     12  OH         9.2220   -1.3930   -6.1960 O.3     8  TYR8       -0.2866
     13  N         13.5190    1.7300  -15.0900 N.3    10  ASN10      -0.1240
     14  CA        14.9620    1.7430  -14.8500 C.3    10  ASN10       0.1653
     15  C         15.5360    2.8370  -15.7360 C.2    10  ASN10       0.2266
     16  O         15.8480    2.6210  -16.9050 O.2    10  ASN10      -0.2867
     17  CB        15.5810    0.3820  -15.1430 C.3    10  ASN10       0.1155
     18  CG        17.0640    0.3420  -14.8160 C.2    10  ASN10       0.2627
     19  OD1       17.6380    1.3500  -14.4200 O.2    10  ASN10      -0.2716
     20  ND2       17.6900   -0.8180  -14.9900 N.am   10  ASN10      -0.0877
     21  N         17.3260    3.8410  -10.3130 N.3    29  PHE29      -0.1241
     22  CA        17.4970    3.5610   -8.8890 C.3    29  PHE29       0.1605
     23  C         18.1630    4.7360   -8.1800 C.2    29  PHE29       0.2264
     24  O         19.1020    5.3160   -8.7160 O.2    29  PHE29      -0.2867
     25  CB        18.4310    2.3650   -8.6510 C.3    29  PHE29       0.0534
     26  CG        18.1350    1.1450   -9.4750 C.ar   29  PHE29      -0.0203
     27  CD1       17.3820    0.1270   -8.9440 C.ar   29  PHE29      -0.0042
     28  CD2       18.6840    0.9800  -10.7380 C.ar   29  PHE29      -0.0042
     29  CE1       17.1250   -1.0220   -9.6570 C.ar   29  PHE29      -0.0003
     30  CE2       18.4330   -0.1740  -11.4740 C.ar   29  PHE29      -0.0003
     31  CZ        17.6440   -1.1770  -10.9230 C.ar   29  PHE29      -0.0000
     32  N         17.8160    1.2920   -4.0570 N.3    83  GLY83      -0.1210
     33  CA        18.3660   -0.0410   -3.9170 C.3    83  GLY83       0.1956
     34  C         18.5150   -0.7840   -5.2250 C.2    83  GLY83       0.2612
     35  O         19.0970   -0.2620   -6.1880 O.2    83  GLY83      -0.2717
     36  N         18.0080   -2.0090   -5.2630 N.am   84  GLY84      -0.1942
     37  CA        18.0890   -2.8660   -6.4260 C.3    84  GLY84       0.2014
     38  C         19.0760   -4.0050   -6.2320 C.2    84  GLY84       0.2639
     39  O         19.8450   -4.0610   -5.2680 O.2    84  GLY84      -0.2714
     40  N         19.0440   -4.9260   -7.1930 N.am   85  TRP85      -0.1959
     41  CA        19.9800   -6.0400   -7.1860 C.3    85  TRP85       0.1771
     42  C         21.4090   -5.5130   -7.1680 C.2    85  TRP85       0.2620
     43  O         21.7790   -4.6590   -7.9790 O.2    85  TRP85      -0.2715
     44  CB        19.7450   -6.9240   -8.4160 C.3    85  TRP85       0.0590
     45  CG        20.7160   -8.0360   -8.5320 C.ar   85  TRP85       0.0006
     46  CD1       21.8210   -8.0710   -9.3300 C.ar   85  TRP85       0.0946
     47  CD2       20.6910   -9.2770   -7.8160 C.ar   85  TRP85       0.0152
     48  NE1       22.4810   -9.2700   -9.1690 N.ar   85  TRP85      -0.2442
     49  CE2       21.8130  -10.0260   -8.2400 C.ar   85  TRP85       0.0810
     50  CE3       19.8210   -9.8370   -6.8740 C.ar   85  TRP85       0.0012
     51  CZ2       22.0920  -11.3000   -7.7470 C.ar   85  TRP85       0.0191
     52  CZ3       20.1030  -11.1040   -6.3810 C.ar   85  TRP85       0.0001
     53  CH2       21.2400  -11.8180   -6.8140 C.ar   85  TRP85       0.0015
     54  N         22.1970   -5.9980   -6.2140 N.am   86  GLY86      -0.1954
     55  CA        23.5810   -5.5920   -6.0960 C.3    86  GLY86       0.1869
     56  C         23.8210   -4.2930   -5.3570 C.2    86  GLY86       0.2309
     57  O         24.9880   -3.9110   -5.1780 O.2    86  GLY86      -0.2863
     58  N         14.1920   -1.1190   -1.9260 N.3   122  ASP122     -0.1239
     59  CA        14.4100   -2.3480   -2.6830 C.3   122  ASP122      0.1674
     60  C         15.7260   -2.9380   -2.1770 C.2   122  ASP122      0.2266
     61  O         16.7760   -2.8020   -2.8050 O.2   122  ASP122     -0.2867
     62  CB        14.4220   -2.0400   -4.1850 C.3   122  ASP122      0.1410
     63  CG        14.6870   -3.2630   -5.0400 C.2   122  ASP122      0.3668
     64  OD1       14.5670   -4.3900   -4.5170 O.co2 122  ASP122     -0.2456
     65  OD2       15.0010   -3.0800   -6.2400 O.co2 122  ASP122     -0.2456
     66  N         17.9960   -5.9630   -1.3850 N.3   124  GLU124     -0.1245
     67  CA        18.1620   -7.3280   -1.8720 C.3   124  GLU124      0.1567
     68  C         19.4550   -7.9290   -1.3580 C.2   124  GLU124      0.2260
     69  O         20.4620   -7.8800   -2.0600 O.2   124  GLU124     -0.2867
     70  CB        18.1310   -7.3400   -3.4070 C.3   124  GLU124      0.0388
     71  CG        16.8740   -6.6150   -3.9480 C.3   124  GLU124      0.1160
     72  CD        16.6060   -6.8460   -5.4430 C.2   124  GLU124      0.3649
     73  OE1       17.2800   -7.6670   -6.1020 O.co2 124  GLU124     -0.2457
     74  OE2       15.6900   -6.1820   -5.9690 O.co2 124  GLU124     -0.2457
     75  N         27.2570  -10.1240   -2.9750 N.3   133  LEU133     -0.1245
     76  CA        27.1160   -8.8450   -3.6460 C.3   133  LEU133      0.1561
     77  C         26.7400   -7.7040   -2.7120 C.2   133  LEU133      0.2260
     78  O         26.9070   -6.5410   -3.0990 O.2   133  LEU133     -0.2867
     79  CB        26.0590   -8.9290   -4.7550 C.3   133  LEU133      0.0270
     80  CG        26.4080   -9.8130   -5.9490 C.3   133  LEU133      0.0019
     81  CD1       25.2590   -9.7830   -6.9420 C.3   133  LEU133      0.0001
     82  CD2       27.7040   -9.3720   -6.5980 C.3   133  LEU133      0.0001
     83  N          9.9510   -3.5830   -1.9660 N.3   164  ALA164     -0.1245
     84  CA         9.9480   -4.7510   -2.8300 C.3   164  ALA164      0.1562
     85  C         10.5500   -5.9160   -2.0640 C.2   164  ALA164      0.2260
     86  O         11.5290   -5.7430   -1.3270 O.2   164  ALA164     -0.2867
     87  CB        10.7540   -4.4920   -4.1080 C.3   164  ALA164      0.0290
     88  N          8.2790   -9.5980   -5.8260 N.3   191  MET191     -0.1245
     89  CA         9.0590   -9.8320   -7.0440 C.3   191  MET191      0.1570
     90  C          8.9090  -11.2940   -7.4640 C.2   191  MET191      0.2261
     91  O          9.7970  -12.1290   -7.3040 O.2   191  MET191     -0.2867
     92  CB        10.5070   -9.4170   -6.8280 C.3   191  MET191      0.0387
     93  CG        10.5890   -7.9230   -6.5650 C.3   191  MET191      0.0595
     94  SD        12.2870   -7.2960   -6.5180 S.3   191  MET191     -0.1393
     95  CE        12.8040   -7.9150   -4.9110 C.3   191  MET191      0.0692
     96  N          9.1480  -13.3510   -9.8640 N.3   193  TYR193     -0.1227
     97  CA         9.8270  -13.7060  -11.1060 C.3   193  TYR193      0.1736
     98  C         11.2670  -14.0730  -10.7540 C.2   193  TYR193      0.2595
     99  O         11.6050  -14.2210   -9.5760 O.2   193  TYR193     -0.2718
    100  CB         9.7000  -12.5720  -12.1350 C.3   193  TYR193      0.0548
    101  CG         9.8710  -11.1680  -11.5750 C.ar  193  TYR193     -0.0200
    102  CD1       11.0880  -10.7590  -11.0500 C.ar  193  TYR193     -0.0009
    103  CD2        8.8140  -10.2590  -11.5760 C.ar  193  TYR193     -0.0009
    104  CE1       11.2540   -9.4820  -10.5510 C.ar  193  TYR193      0.0417
    105  CE2        8.9660   -8.9770  -11.0720 C.ar  193  TYR193      0.0417
    106  CZ        10.2000   -8.5950  -10.5680 C.ar  193  TYR193      0.1957
    107  OH        10.3850   -7.3180  -10.0680 O.3   193  TYR193     -0.2866
    108  N         12.1170  -14.2260  -11.7710 N.am  194  ASP194     -0.1974
    109  CA        13.4980  -14.6840  -11.5930 C.3   194  ASP194      0.1709
    110  C         13.5300  -16.0640  -10.9430 C.2   194  ASP194      0.2293
    111  O         14.2220  -16.2980   -9.9510 O.2   194  ASP194     -0.2864
    112  CB        14.3360  -13.6800  -10.7920 C.3   194  ASP194      0.1436
    113  CG        14.5330  -12.3880  -11.5310 C.2   194  ASP194      0.3671
    114  OD1       14.5370  -12.4350  -12.7800 O.co2 194  ASP194     -0.2456
    115  OD2       14.6340  -11.3380  -10.8730 O.co2 194  ASP194     -0.2456
    116  N         10.2340   -9.2520  -19.2570 N.3   247  TYR247     -0.1241
    117  CA        11.4670   -9.8420  -19.7590 C.3   247  TYR247      0.1605
    118  C         11.3600  -11.3480  -19.5790 C.2   247  TYR247      0.2264
    119  O         10.4360  -11.8530  -18.9320 O.2   247  TYR247     -0.2867
    120  CB        12.7140   -9.2930  -19.0480 C.3   247  TYR247      0.0534
    121  CG        12.7880   -9.5760  -17.5640 C.ar  247  TYR247     -0.0201
    122  CD1       12.1690   -8.7400  -16.6460 C.ar  247  TYR247     -0.0009
    123  CD2       13.4990  -10.6720  -17.0870 C.ar  247  TYR247     -0.0009
    124  CE1       12.2470   -9.0000  -15.2820 C.ar  247  TYR247      0.0417
    125  CE2       13.5900  -10.9400  -15.7400 C.ar  247  TYR247      0.0417
    126  CZ        12.9640  -10.0940  -14.8360 C.ar  247  TYR247      0.1957
    127  OH        13.0610  -10.3590  -13.4890 O.3   247  TYR247     -0.2866
    128  N         14.0270  -15.1750  -19.3640 N.3   249  ARG249     -0.1245
    129  CA        15.3590  -15.6700  -19.0440 C.3   249  ARG249      0.1563
    130  C         15.6300  -16.9950  -19.7270 C.2   249  ARG249      0.2260
    131  O         14.7470  -17.8490  -19.8400 O.2   249  ARG249     -0.2867
    132  CB        15.5700  -15.8410  -17.5310 C.3   249  ARG249      0.0307
    133  CG        15.8260  -14.5390  -16.7900 C.3   249  ARG249      0.0489
    134  CD        16.2510  -14.8000  -15.3500 C.3   249  ARG249      0.2205
    135  NE        16.3280  -13.5620  -14.5840 N.pl3 249  ARG249     -0.0865
    136  CZ        17.3970  -12.7690  -14.5330 C.cat 249  ARG249      0.5346
    137  NH1       18.4980  -13.0820  -15.2160 N.pl3 249  ARG249      0.1354
    138  NH2       17.3570  -11.6570  -13.8000 N.pl3 249  ARG249      0.1354
    139  N         24.8800  -13.0500  -17.6600 N.3   294  ASP294     -0.1239
    140  CA        23.5120  -13.0070  -17.1590 C.3   294  ASP294      0.1674
    141  C         22.6420  -13.7650  -18.1520 C.2   294  ASP294      0.2266
    142  O         23.1280  -14.2950  -19.1530 O.2   294  ASP294     -0.2867
    143  CB        23.0310  -11.5640  -16.9570 C.3   294  ASP294      0.1410
    144  CG        22.0130  -11.4330  -15.8350 C.2   294  ASP294      0.3668
    145  OD1       21.3210  -12.4300  -15.5170 O.co2 294  ASP294     -0.2456
    146  OD2       21.9000  -10.3280  -15.2630 O.co2 294  ASP294     -0.2456
    147  N         18.9970  -12.6980  -18.8560 N.3   296  TYR296     -0.1241
    148  CA        17.7140  -12.0880  -19.1860 C.3   296  TYR296      0.1605
    149  C         17.7260  -11.4380  -20.5680 C.2   296  TYR296      0.2264
    150  O         18.7680  -11.0740  -21.1270 O.2   296  TYR296     -0.2867
    151  CB        17.2840  -11.0650  -18.1320 C.3   296  TYR296      0.0534
    152  CG        18.0990   -9.7890  -18.0690 C.ar  296  TYR296     -0.0201
    153  CD1       19.1690   -9.6780  -17.1950 C.ar  296  TYR296     -0.0009
    154  CD2       17.7730   -8.6920  -18.8600 C.ar  296  TYR296     -0.0009
    155  CE1       19.9100   -8.5080  -17.1140 C.ar  296  TYR296      0.0417
    156  CE2       18.5120   -7.5230  -18.7950 C.ar  296  TYR296      0.0417
    157  CZ        19.5770   -7.4390  -17.9220 C.ar  296  TYR296      0.1957
    158  OH        20.3140   -6.2770  -17.8520 O.3   296  TYR296     -0.2866
    159  N         15.1250   -8.5200  -22.4260 N.3   298  LYS298     -0.1245
    160  CA        13.9840   -7.6200  -22.3290 C.3   298  LYS298      0.1561
    161  C         12.8920   -8.0330  -23.3080 C.2   298  LYS298      0.2260
    162  O         13.1730   -8.5380  -24.3910 O.2   298  LYS298     -0.2867
    163  CB        14.4420   -6.1870  -22.6090 C.3   298  LYS298      0.0271
    164  CG        15.4170   -5.6610  -21.5340 C.3   298  LYS298      0.0035
    165  CD        15.9530   -4.2660  -21.8540 C.3   298  LYS298      0.0206
    166  CE        16.8000   -4.2690  -23.1150 C.3   298  LYS298      0.1093
    167  NZ        17.5310   -2.9810  -23.3100 N.3   298  LYS298     -0.1314
    168  N          2.3920   -5.1030  -10.0270 N.3   364  MET364     -0.1245
    169  CA         3.5910   -4.3090  -10.2020 C.3   364  MET364      0.1570
    170  C          4.3230   -4.8740  -11.4040 C.2   364  MET364      0.2261
    171  O          4.1640   -6.0560  -11.7250 O.2   364  MET364     -0.2867
    172  CB         4.4530   -4.3710   -8.9300 C.3   364  MET364      0.0387
    173  CG         5.8820   -3.8660   -9.0360 C.3   364  MET364      0.0595
    174  SD         7.0440   -5.0760   -9.7070 S.3   364  MET364     -0.1393
    175  CE         7.3810   -6.0930   -8.2630 C.3   364  MET364      0.0692
    176  N          8.2290   -4.8280  -13.6680 N.3   366  TRP366     -0.1227
    177  CA         9.6190   -4.4800  -13.9240 C.3   366  TRP366      0.1737
    178  C          9.9540   -4.8840  -15.3640 C.2   366  TRP366      0.2595
    179  O          9.9480   -6.0780  -15.6510 O.2   366  TRP366     -0.2718
    180  CB        10.5660   -5.2210  -12.9710 C.3   366  TRP366      0.0564
    181  CG        11.9760   -4.8620  -13.2730 C.ar  366  TRP366      0.0003
    182  CD1       12.8090   -5.4500  -14.1950 C.ar  366  TRP366      0.0946
    183  CD2       12.7110   -3.7730  -12.7050 C.ar  366  TRP366      0.0152
    184  NE1       14.0160   -4.7960  -14.2130 N.ar  366  TRP366     -0.2442
    185  CE2       13.9790   -3.7590  -13.3180 C.ar  366  TRP366      0.0810
    186  CE3       12.4170   -2.8080  -11.7310 C.ar  366  TRP366      0.0012
    187  CZ2       14.9600   -2.8230  -12.9820 C.ar  366  TRP366      0.0191
    188  CZ3       13.3850   -1.8740  -11.4100 C.ar  366  TRP366      0.0001
    189  CH2       14.6410   -1.8910  -12.0290 C.ar  366  TRP366      0.0015
    190  N         10.2820   -3.9500  -16.2650 N.am  367  GLU367     -0.1979
    191  CA        10.2670   -2.5110  -16.0420 C.3   367  GLU367      0.1602
    192  C          9.8210   -1.8580  -17.3540 C.2   367  GLU367      0.2287
    193  O          9.9110   -2.4710  -18.4240 O.2   367  GLU367     -0.2864
    194  CB        11.6420   -1.9950  -15.5870 C.3   367  GLU367      0.0415
    195  CG        12.8030   -2.2610  -16.5400 C.3   367  GLU367      0.1163
    196  CD        13.0570   -1.1170  -17.5090 C.2   367  GLU367      0.3649
    197  OE1       13.7100   -1.3600  -18.5350 O.co2 367  GLU367     -0.2457
    198  OE2       12.6030    0.0160  -17.2460 O.co2 367  GLU367     -0.2457
@<TRIPOS>BOND
     1   162   161    2
     2   167   166    1
     3   161   160    1
     4   166   165    1
     5   163   160    1
     6   163   164    1
     7   159   160    1
     8   165   164    1
     9   150   149    2
    10   149   148    1
    11   131   130    2
    12   117   118    1
    13   117   116    1
    14   117   120    1
    15   130   129    1
    16   118   119    2
    17   128   129    1
    18   148   147    1
    19   148   151    1
    20   142   141    2
    21   120   121    1
    22   129   132    1
    23   154   156   ar
    24   154   152   ar
    25   156   157   ar
    26   197   196   ar
    27   193   192    2
    28   141   140    1
    29   151   152    1
    30   152   153   ar
    31   157   158    1
    32   157   155   ar
    33   139   140    1
    34   121   123   ar
    35   121   122   ar
    36   132   133    1
    37   196   198   ar
    38   196   195    1
    39   192   191    1
    40   153   155   ar
    41   140   143    1
    42   123   125   ar
    43   143   144    1
    44    16    15    2
    45   133   134    1
    46   122   124   ar
    47   195   194    1
    48   190   191    1
    49   190   178   am
    50   191   194    1
    51   144   145   ar
    52   144   146   ar
    53   125   126   ar
    54    15    14    1
    55   179   178    2
    56   178   177    1
    57   134   135    1
    58   124   126   ar
    59   137   136    1
    60    17    14    1
    61    17    18    1
    62    13    14    1
    63    20    18   am
    64   126   127    1
    65    18    19    2
    66     4     3    2
    67   135   136    2
    68   136   138    1
    69   184   182   ar
    70   184   185   ar
    71   182   181   ar
    72   177   176    1
    73   177   180    1
    74     3     2    1
    75   185   187   ar
    76   185   183   ar
    77   181   180    1
    78   181   183   ar
    79   187   189   ar
    80   114   113   ar
    81   183   186   ar
    82     1     2    1
    83     2     5    1
    84   100   101    1
    85   100    97    1
    86   189   188   ar
    87     5     6    1
    88   108   109    1
    89   108    98   am
    90   186   188   ar
    91   171   170    2
    92   109   110    1
    93   109   112    1
    94   103   101   ar
    95   103   105   ar
    96   101   102   ar
    97   113   115   ar
    98   113   112    1
    99    30    31   ar
   100    30    28   ar
   101   170   169    1
   102    97    98    1
   103    97    96    1
   104   105   106   ar
   105   102   104   ar
   106   110   111    2
   107    31    29   ar
   108    98    99    2
   109    28    26   ar
   110   106   104   ar
   111   106   107    1
   112    21    22    1
   113     6     7   ar
   114     6     8   ar
   115   169   168    1
   116   169   172    1
   117     7     9   ar
   118   174   173    1
   119   174   175    1
   120    29    27   ar
   121    26    27   ar
   122    26    25    1
   123     8    10   ar
   124    46    48   ar
   125    46    45   ar
   126    48    49   ar
   127   173   172    1
   128    22    25    1
   129    22    23    1
   130    24    23    2
   131    45    44    1
   132    45    47   ar
   133     9    11   ar
   134    44    41    1
   135    49    47   ar
   136    49    51   ar
   137    10    11   ar
   138    43    42    2
   139    47    50   ar
   140    51    53   ar
   141    11    12    1
   142    90    91    2
   143    90    89    1
   144    40    41    1
   145    40    38   am
   146    41    42    1
   147    42    54   am
   148    89    92    1
   149    89    88    1
   150    81    80    1
   151    50    52   ar
   152    92    93    1
   153    53    52   ar
   154    82    80    1
   155    93    94    1
   156    94    95    1
   157    37    38    1
   158    37    36    1
   159    65    63   ar
   160    38    39    2
   161    54    55    1
   162    35    34    2
   163    73    72   ar
   164    55    56    1
   165    74    72   ar
   166    80    79    1
   167    72    71    1
   168    56    57    2
   169    36    34   am
   170    34    33    1
   171    63    64   ar
   172    63    62    1
   173    79    76    1
   174    62    59    1
   175    87    84    1
   176    32    33    1
   177    71    70    1
   178    76    75    1
   179    76    77    1
   180    70    67    1
   181    78    77    2
   182    84    85    1
   183    84    83    1
   184    61    60    2
   185    59    60    1
   186    59    58    1
   187    85    86    2
   188    69    68    2
   189    67    66    1
   190    67    68    1
