@<TRIPOS>MOLECULE
tmp/6hm6A00.pdb
 131 124 0 0 0
SMALL
GASTEIGER

@<TRIPOS>ATOM
      1  N         18.3430  -45.8500   37.9200 N.3    14  LEU14      -0.1231
      2  CA        19.4400  -45.2770   38.7160 C.3    14  LEU14       0.1693
      3  C         18.9900  -43.9440   39.3120 C.2    14  LEU14       0.2593
      4  O         19.4380  -43.5370   40.3840 O.2    14  LEU14      -0.2718
      5  CB        20.6680  -45.0290   37.8440 C.3    14  LEU14       0.0284
      6  CG        21.2800  -46.2370   37.1420 C.3    14  LEU14       0.0019
      7  CD1       22.3490  -45.7770   36.1660 C.3    14  LEU14       0.0001
      8  CD2       21.8530  -47.2170   38.1580 C.3    14  LEU14       0.0001
      9  N         18.1430  -43.2450   38.5660 N.am   15  GLY15      -0.1942
     10  CA        17.5270  -42.0090   39.0110 C.3    15  GLY15       0.2014
     11  C         16.4430  -41.6070   38.0260 C.2    15  GLY15       0.2639
     12  O         16.1510  -42.3430   37.0760 O.2    15  GLY15      -0.2714
     13  N         15.8510  -40.4390   38.2480 N.am   16  SER16      -0.1949
     14  CA        14.7880  -39.9360   37.3820 C.3    16  SER16       0.1924
     15  C         14.6790  -38.4190   37.4380 C.2    16  SER16       0.2314
     16  O         15.3390  -37.7590   38.2420 O.2    16  SER16      -0.2863
     17  CB        13.4520  -40.5810   37.7700 C.3    16  SER16       0.2116
     18  OG        13.1690  -40.3770   39.1410 O.3    16  SER16      -0.2180
     19  N         12.3470  -35.1130   32.5290 N.3    19  PHE19      -0.1241
     20  CA        12.5960  -35.8380   31.2660 C.3    19  PHE19       0.1605
     21  C         12.1270  -37.3020   31.2650 C.2    19  PHE19       0.2264
     22  O         11.6230  -37.7990   30.2520 O.2    19  PHE19      -0.2867
     23  CB        14.0980  -35.7720   30.8950 C.3    19  PHE19       0.0534
     24  CG        15.0230  -36.3850   31.9260 C.ar   19  PHE19      -0.0203
     25  CD1       15.3400  -37.7420   31.8810 C.ar   19  PHE19      -0.0042
     26  CD2       15.5860  -35.6040   32.9400 C.ar   19  PHE19      -0.0042
     27  CE1       16.1810  -38.3090   32.8310 C.ar   19  PHE19      -0.0003
     28  CE2       16.4270  -36.1670   33.8890 C.ar   19  PHE19      -0.0003
     29  CZ        16.7280  -37.5200   33.8330 C.ar   19  PHE19      -0.0000
     30  N         16.7240  -42.6170   34.1460 N.3    22  VAL22      -0.1245
     31  CA        18.0830  -43.0050   33.7780 C.3    22  VAL22       0.1561
     32  C         18.2800  -44.4620   34.2190 C.2    22  VAL22       0.2260
     33  O         18.3710  -44.7410   35.4190 O.2    22  VAL22      -0.2867
     34  CB        19.1420  -42.0940   34.4400 C.3    22  VAL22       0.0252
     35  CG1       20.5550  -42.5690   34.1020 C.3    22  VAL22       0.0019
     36  CG2       18.9370  -40.6450   34.0070 C.3    22  VAL22       0.0019
     37  N         24.7630  -46.0760   30.3850 N.3    36  ALA36      -0.1245
     38  CA        23.6970  -45.3240   31.0590 C.3    36  ALA36       0.1562
     39  C         22.7730  -44.8240   29.9590 C.2    36  ALA36       0.2260
     40  O         23.2430  -44.3710   28.9090 O.2    36  ALA36      -0.2867
     41  CB        24.2630  -44.1630   31.8610 C.3    36  ALA36       0.0290
     42  N         31.7340  -37.0890   29.5880 N.3    64  VAL64      -0.1245
     43  CA        30.9820  -38.3210   29.3260 C.3    64  VAL64       0.1561
     44  C         30.7880  -38.4720   27.8160 C.2    64  VAL64       0.2260
     45  O         30.4160  -37.5210   27.1310 O.2    64  VAL64      -0.2867
     46  CB        29.5970  -38.3120   30.0280 C.3    64  VAL64       0.0252
     47  CG1       28.7250  -39.4580   29.5510 C.3    64  VAL64       0.0019
     48  CG2       29.7510  -38.3570   31.5480 C.3    64  VAL64       0.0019
     49  N         24.8740  -43.4840   26.6840 N.3    79  MET79      -0.1230
     50  CA        26.1700  -42.8800   27.0280 C.3    79  MET79       0.1702
     51  C         27.0730  -43.8940   27.7420 C.2    79  MET79       0.2592
     52  O         26.6120  -44.9560   28.1660 O.2    79  MET79      -0.2718
     53  CB        25.9250  -41.6790   27.9650 C.3    79  MET79       0.0401
     54  CG        25.0220  -40.5830   27.3860 C.3    79  MET79       0.0596
     55  SD        24.3980  -39.3590   28.5670 S.3    79  MET79      -0.1393
     56  CE        23.2070  -40.3380   29.4800 C.3    79  MET79       0.0692
     57  N         28.3650  -43.5690   27.8490 N.am   80  GLU80      -0.1966
     58  CA        29.2900  -44.2910   28.7350 C.3    80  GLU80       0.1733
     59  C         28.7050  -44.2700   30.1400 C.2    80  GLU80       0.2616
     60  O         28.0580  -43.2960   30.5080 O.2    80  GLU80      -0.2715
     61  CB        30.6400  -43.5830   28.8370 C.3    80  GLU80       0.0429
     62  CG        31.7220  -43.9710   27.8500 C.3    80  GLU80       0.1163
     63  CD        33.0160  -43.2120   28.1380 C.2    80  GLU80       0.3649
     64  OE1       32.9420  -42.0800   28.6860 O.co2  80  GLU80      -0.2457
     65  OE2       34.1070  -43.7410   27.8330 O.co2  80  GLU80      -0.2457
     66  N         28.9600  -45.3180   30.9230 N.am   81  MET81      -0.1963
     67  CA        28.4560  -45.4140   32.2940 C.3    81  MET81       0.1736
     68  C         29.4770  -44.8160   33.2610 C.2    81  MET81       0.2616
     69  O         30.6520  -45.1980   33.2380 O.2    81  MET81      -0.2715
     70  CB        28.1640  -46.8830   32.6530 C.3    81  MET81       0.0427
     71  CG        27.7860  -47.1630   34.1110 C.3    81  MET81       0.0599
     72  SD        26.3460  -46.2640   34.7360 S.3    81  MET81      -0.1393
     73  CE        24.9990  -47.1480   33.9780 C.3    81  MET81       0.0692
     74  N         29.0320  -43.8570   34.0740 N.am   82  ALA82      -0.1963
     75  CA        29.8200  -43.3320   35.1860 C.3    82  ALA82       0.1728
     76  C         29.1810  -44.0410   36.3640 C.2    82  ALA82       0.2616
     77  O         28.1690  -43.5890   36.8970 O.2    82  ALA82      -0.2715
     78  CB        29.6940  -41.8200   35.2990 C.3    82  ALA82       0.0334
     79  N         29.7690  -45.1740   36.7370 N.am   83  GLU83      -0.1963
     80  CA        29.1560  -46.1170   37.6860 C.3    83  GLU83       0.1733
     81  C         28.8620  -45.5650   39.0940 C.2    83  GLU83       0.2616
     82  O         27.8160  -45.8630   39.6700 O.2    83  GLU83      -0.2715
     83  CB        30.0200  -47.3840   37.8010 C.3    83  GLU83       0.0429
     84  CG        29.2320  -48.6270   38.1860 C.3    83  GLU83       0.1163
     85  CD        28.6130  -49.3750   37.0050 C.2    83  GLU83       0.3649
     86  OE1       29.2640  -49.5400   35.9380 O.co2  83  GLU83      -0.2457
     87  OE2       27.4700  -49.8460   37.1640 O.co2  83  GLU83      -0.2457
     88  N         29.7770  -44.7610   39.6280 N.am   84  LEU84      -0.1963
     89  CA        29.6280  -44.1850   40.9770 C.3    84  LEU84       0.1728
     90  C         28.6740  -42.9790   41.0710 C.2    84  LEU84       0.2617
     91  O         28.3210  -42.5610   42.1800 O.2    84  LEU84      -0.2715
     92  CB        31.0130  -43.8800   41.5870 C.3    84  LEU84       0.0311
     93  CG        31.7810  -45.0490   42.2600 C.3    84  LEU84       0.0022
     94  CD1       31.3300  -46.4600   41.8610 C.3    84  LEU84       0.0001
     95  CD2       33.2850  -44.9070   42.0430 C.3    84  LEU84       0.0001
     96  N         28.2530  -42.4260   39.9350 N.am   85  GLY85      -0.1941
     97  CA        27.2190  -41.3830   39.9300 C.3    85  GLY85       0.1998
     98  C         27.6480  -39.9920   40.3970 C.2    85  GLY85       0.2480
     99  O         28.8590  -39.7100   40.4930 O.2    85  GLY85      -0.2729
    100  N         26.6590  -39.1130   40.6880 N.am   86  PRO86      -0.2726
    101  CA        26.8780  -37.6970   41.0510 C.3    86  PRO86       0.1402
    102  C         27.8950  -37.4400   42.1580 C.2    86  PRO86       0.2269
    103  O         27.7960  -38.0260   43.2380 O.2    86  PRO86      -0.2865
    104  CB        25.4910  -37.2250   41.4720 C.3    86  PRO86       0.0296
    105  CG        24.5650  -38.0390   40.6450 C.3    86  PRO86       0.0237
    106  CD        25.2230  -39.3880   40.4880 C.3    86  PRO86       0.0939
    107  N         26.4960  -31.8090   41.1210 N.3   129  ARG129     -0.1245
    108  CA        25.4930  -32.8100   40.7210 C.3   129  ARG129      0.1563
    109  C         25.6730  -33.3290   39.2770 C.2   129  ARG129      0.2260
    110  O         25.1780  -34.4130   38.9450 O.2   129  ARG129     -0.2867
    111  CB        24.0620  -32.2810   40.9190 C.3   129  ARG129      0.0307
    112  CG        23.6600  -31.1420   39.9970 C.3   129  ARG129      0.0489
    113  CD        22.2260  -30.6960   40.2170 C.3   129  ARG129      0.2205
    114  NE        21.8730  -29.6170   39.2890 N.pl3 129  ARG129     -0.0865
    115  CZ        22.2060  -28.3270   39.4250 C.cat 129  ARG129      0.5346
    116  NH1       22.9240  -27.8950   40.4620 N.pl3 129  ARG129      0.1354
    117  NH2       21.8180  -27.4480   38.5030 N.pl3 129  ARG129      0.1354
    118  N         30.0470  -36.6180   37.2330 N.3   132  LEU132     -0.1245
    119  CA        29.8780  -38.0460   37.5160 C.3   132  LEU132      0.1561
    120  C         31.2120  -38.7600   37.6450 C.2   132  LEU132      0.2260
    121  O         32.1390  -38.4930   36.8780 O.2   132  LEU132     -0.2867
    122  CB        29.0700  -38.7000   36.4120 C.3   132  LEU132      0.0270
    123  CG        27.7350  -38.0270   36.1000 C.3   132  LEU132      0.0019
    124  CD1       27.0490  -38.7710   34.9770 C.3   132  LEU132      0.0001
    125  CD2       26.8550  -37.9490   37.3400 C.3   132  LEU132      0.0001
    126  N         28.9890  -34.0520   32.8210 N.3   142  SER142     -0.1217
    127  CA        27.7700  -34.5660   32.2210 C.3   142  SER142      0.1889
    128  C         26.7350  -33.4700   32.1190 C.2   142  SER142      0.2288
    129  O         26.9560  -32.3350   32.5520 O.2   142  SER142     -0.2866
    130  CB        27.2250  -35.7070   33.0970 C.3   142  SER142      0.2089
    131  OG        26.7840  -35.2240   34.3570 O.3   142  SER142     -0.2183
@<TRIPOS>BOND
     1    49    50    1
     2    50    51    1
     3    50    53    1
     4    45    44    2
     5    54    53    1
     6    54    55    1
     7    51    57   am
     8    51    52    2
     9    44    43    1
    10    65    63   ar
    11    57    58    1
    12    62    63    1
    13    62    61    1
    14    63    64   ar
    15    55    56    1
    16    58    61    1
    17    58    59    1
    18    40    39    2
    19    43    42    1
    20    43    46    1
    21    47    46    1
    22    39    38    1
    23    46    48    1
    24    59    60    2
    25    59    66   am
    26    22    21    2
    27    37    38    1
    28    23    20    1
    29    23    24    1
    30    66    67    1
    31    38    41    1
    32    21    20    1
    33    20    19    1
    34    25    24   ar
    35    25    27   ar
    36    24    26   ar
    37   128   127    1
    38   128   129    2
    39   127   126    1
    40   127   130    1
    41    67    70    1
    42    67    68    1
    43    70    71    1
    44    27    29   ar
    45    26    28   ar
    46   130   131    1
    47    69    68    2
    48    68    74   am
    49    31    30    1
    50    31    32    1
    51    31    34    1
    52    29    28   ar
    53    73    72    1
    54    36    34    1
    55    74    75    1
    56    35    34    1
    57    71    72    1
    58    32    33    2
    59   124   123    1
    60    75    78    1
    61    75    76    1
    62    86    85   ar
    63   123   122    1
    64   123   125    1
    65     7     6    1
    66    76    79   am
    67    76    77    2
    68   122   119    1
    69    79    80    1
    70   121   120    2
    71    85    87   ar
    72    85    84    1
    73    12    11    2
    74     6     5    1
    75     6     8    1
    76   118   119    1
    77    14    15    1
    78    14    17    1
    79    14    13    1
    80    15    16    2
    81   119   120    1
    82    80    83    1
    83    80    81    1
    84    17    18    1
    85    83    84    1
    86     5     2    1
    87     1     2    1
    88    11    13   am
    89    11    10    1
    90   117   115    1
    91     9    10    1
    92     9     3   am
    93     2     3    1
    94   110   109    2
    95    81    88   am
    96    81    82    2
    97   109   108    1
    98   114   115    2
    99   114   113    1
   100     3     4    2
   101   115   116    1
   102    88    89    1
   103    97    96    1
   104    97    98    1
   105    96    90   am
   106   112   113    1
   107   112   111    1
   108    98    99    2
   109    98   100   am
   110   106   105    1
   111   106   100    1
   112   105   104    1
   113   100   101    1
   114   108   111    1
   115   108   107    1
   116    89    90    1
   117    89    92    1
   118   101   104    1
   119   101   102    1
   120    90    91    2
   121    92    93    1
   122    94    93    1
   123    95    93    1
   124   102   103    2
