@<TRIPOS>MOLECULE
tmp/6hm7A00.pdb
 165 156 0 0 0
SMALL
GASTEIGER

@<TRIPOS>ATOM
      1  N         20.1200  -45.2540   38.1200 N.3    15  LEU15      -0.1231
      2  CA        21.2560  -44.6420   38.8340 C.3    15  LEU15       0.1693
      3  C         20.8300  -43.2740   39.3620 C.2    15  LEU15       0.2593
      4  O         21.2700  -42.8470   40.4280 O.2    15  LEU15      -0.2718
      5  CB        22.4770  -44.4680   37.9160 C.3    15  LEU15       0.0284
      6  CG        23.1070  -45.7420   37.3590 C.3    15  LEU15       0.0019
      7  CD1       24.1700  -45.3970   36.3180 C.3    15  LEU15       0.0001
      8  CD2       23.6860  -46.5850   38.4860 C.3    15  LEU15       0.0001
      9  N         19.9840  -42.6010   38.5870 N.am   16  GLY16      -0.1942
     10  CA        19.4370  -41.3060   38.9440 C.3    16  GLY16       0.2014
     11  C         18.2520  -40.9580   38.0670 C.2    16  GLY16       0.2639
     12  O         17.9850  -41.6220   37.0500 O.2    16  GLY16      -0.2714
     13  N         17.5380  -39.9090   38.4670 N.am   17  SER17      -0.1949
     14  CA        16.3180  -39.4730   37.7920 C.3    17  SER17       0.1924
     15  C         16.1730  -37.9500   37.8160 C.2    17  SER17       0.2314
     16  O         16.7120  -37.2820   38.6970 O.2    17  SER17      -0.2863
     17  CB        15.0980  -40.0940   38.4790 C.3    17  SER17       0.2116
     18  OG        15.2010  -41.5060   38.5360 O.3    17  SER17      -0.2180
     19  N         14.2460  -34.7490   32.6420 N.3    20  PHE20      -0.1241
     20  CA        14.7000  -35.4150   31.4120 C.3    20  PHE20       0.1605
     21  C         14.2370  -36.8730   31.3370 C.2    20  PHE20       0.2264
     22  O         13.7450  -37.3140   30.2980 O.2    20  PHE20      -0.2867
     23  CB        16.2370  -35.3150   31.2490 C.3    20  PHE20       0.0534
     24  CG        17.0350  -35.9700   32.3580 C.ar   20  PHE20      -0.0203
     25  CD1       17.3690  -37.3250   32.2950 C.ar   20  PHE20      -0.0042
     26  CD2       17.4830  -35.2270   33.4510 C.ar   20  PHE20      -0.0042
     27  CE1       18.1070  -37.9260   33.3090 C.ar   20  PHE20      -0.0003
     28  CE2       18.2240  -35.8230   34.4670 C.ar   20  PHE20      -0.0003
     29  CZ        18.5370  -37.1750   34.3970 C.ar   20  PHE20      -0.0000
     30  N         18.8130  -42.0960   34.3030 N.3    23  VAL23      -0.1245
     31  CA        20.1390  -42.5830   33.9220 C.3    23  VAL23       0.1561
     32  C         20.2110  -44.0140   34.4470 C.2    23  VAL23       0.2260
     33  O         20.0470  -44.2510   35.6480 O.2    23  VAL23      -0.2867
     34  CB        21.3060  -41.7690   34.5080 C.3    23  VAL23       0.0252
     35  CG1       22.6480  -42.3800   34.0920 C.3    23  VAL23       0.0019
     36  CG2       21.2200  -40.3130   34.0770 C.3    23  VAL23       0.0019
     37  N         26.5880  -45.8660   30.6580 N.3    38  ALA38      -0.1245
     38  CA        25.5740  -45.0950   31.3790 C.3    38  ALA38       0.1562
     39  C         24.6610  -44.5760   30.2810 C.2    38  ALA38       0.2260
     40  O         25.1370  -44.0270   29.2750 O.2    38  ALA38      -0.2867
     41  CB        26.2030  -43.9400   32.1430 C.3    38  ALA38       0.0290
     42  N         21.4290  -42.2200   29.3640 N.3    40  LYS40      -0.1245
     43  CA        20.4900  -41.1500   29.6940 C.3    40  LYS40       0.1561
     44  C         19.2670  -41.3980   28.8310 C.2    40  LYS40       0.2260
     45  O         19.3450  -41.3140   27.6080 O.2    40  LYS40      -0.2867
     46  CB        21.0870  -39.7700   29.3990 C.3    40  LYS40       0.0271
     47  CG        20.1510  -38.6060   29.7100 C.3    40  LYS40       0.0035
     48  CD        20.9150  -37.3000   29.7640 C.3    40  LYS40       0.0206
     49  CE        20.0220  -36.1180   30.0980 C.3    40  LYS40       0.1093
     50  NZ        20.8050  -34.8560   30.2470 N.3    40  LYS40      -0.1314
     51  N         33.5340  -37.0760   29.8300 N.3    71  VAL71      -0.1245
     52  CA        32.7180  -38.2650   29.5120 C.3    71  VAL71       0.1561
     53  C         32.5430  -38.4120   27.9810 C.2    71  VAL71       0.2260
     54  O         32.1660  -37.4730   27.2960 O.2    71  VAL71      -0.2867
     55  CB        31.3270  -38.2150   30.2080 C.3    71  VAL71       0.0252
     56  CG1       30.4110  -39.3340   29.6950 C.3    71  VAL71       0.0019
     57  CG2       31.4790  -38.3040   31.7260 C.3    71  VAL71       0.0019
     58  N         26.6720  -43.4280   26.9120 N.3    86  MET86      -0.1230
     59  CA        27.9620  -42.8530   27.2720 C.3    86  MET86       0.1702
     60  C         28.8060  -43.9040   27.9910 C.2    86  MET86       0.2592
     61  O         28.2760  -44.8940   28.5040 O.2    86  MET86      -0.2718
     62  CB        27.7160  -41.6760   28.2160 C.3    86  MET86       0.0401
     63  CG        27.0660  -40.4810   27.5330 C.3    86  MET86       0.0596
     64  SD        26.4620  -39.2540   28.6990 S.3    86  MET86      -0.1393
     65  CE        25.0180  -40.0840   29.3230 C.3    86  MET86       0.0692
     66  N         30.1140  -43.6890   28.0410 N.am   87  GLU87      -0.1966
     67  CA        30.9460  -44.5420   28.9010 C.3    87  GLU87       0.1733
     68  C         30.4770  -44.3720   30.3360 C.2    87  GLU87       0.2616
     69  O         29.9400  -43.3330   30.6960 O.2    87  GLU87      -0.2715
     70  CB        32.4200  -44.2200   28.7690 C.3    87  GLU87       0.0429
     71  CG        32.8050  -42.8590   29.3240 C.3    87  GLU87       0.1163
     72  CD        34.2490  -42.5000   29.0640 C.2    87  GLU87       0.3649
     73  OE1       35.0870  -43.3920   28.7550 O.co2  87  GLU87      -0.2457
     74  OE2       34.5290  -41.2990   29.1610 O.co2  87  GLU87      -0.2457
     75  N         30.6700  -45.4010   31.1470 N.am   88  MET88      -0.1963
     76  CA        30.2420  -45.3900   32.5410 C.3    88  MET88       0.1736
     77  C         31.3340  -44.8690   33.4790 C.2    88  MET88       0.2616
     78  O         32.4720  -45.3520   33.4110 O.2    88  MET88      -0.2715
     79  CB        29.8450  -46.8210   32.9390 C.3    88  MET88       0.0427
     80  CG        29.5790  -47.0370   34.4060 C.3    88  MET88       0.0599
     81  SD        28.1500  -46.1240   34.9740 S.3    88  MET88      -0.1393
     82  CE        26.8280  -47.1320   34.3850 C.3    88  MET88       0.0692
     83  N         30.9940  -43.8820   34.3190 N.am   89  ALA89      -0.1963
     84  CA        31.8350  -43.3940   35.4280 C.3    89  ALA89       0.1728
     85  C         31.2230  -44.0270   36.6850 C.2    89  ALA89       0.2616
     86  O         30.3370  -43.4430   37.3280 O.2    89  ALA89      -0.2715
     87  CB        31.8100  -41.8770   35.5270 C.3    89  ALA89       0.0334
     88  N         31.7220  -45.2170   37.0210 N.am   90  GLU90      -0.1963
     89  CA        31.0910  -46.1290   38.0040 C.3    90  GLU90       0.1733
     90  C         30.8680  -45.5370   39.3930 C.2    90  GLU90       0.2616
     91  O         29.8340  -45.7920   40.0260 O.2    90  GLU90      -0.2715
     92  CB        31.9410  -47.4080   38.1790 C.3    90  GLU90       0.0429
     93  CG        32.1420  -48.2820   36.9350 C.3    90  GLU90       0.1163
     94  CD        31.0110  -49.2420   36.6350 C.2    90  GLU90       0.3649
     95  OE1       30.0090  -49.3000   37.3880 O.co2  90  GLU90      -0.2457
     96  OE2       31.1520  -49.9470   35.6120 O.co2  90  GLU90      -0.2457
     97  N         31.8470  -44.7810   39.8650 N.am   91  LEU91      -0.1963
     98  CA        31.8190  -44.2310   41.2340 C.3    91  LEU91       0.1728
     99  C         30.9080  -43.0220   41.4170 C.2    91  LEU91       0.2617
    100  O         30.6740  -42.6180   42.5560 O.2    91  LEU91      -0.2715
    101  CB        33.2410  -43.9550   41.7570 C.3    91  LEU91       0.0311
    102  CG        33.9690  -45.1100   42.4640 C.3    91  LEU91       0.0022
    103  CD1       33.6590  -46.4820   41.8700 C.3    91  LEU91       0.0001
    104  CD2       35.4740  -44.8610   42.5430 C.3    91  LEU91       0.0001
    105  N         30.4160  -42.4320   40.3250 N.am   92  GLY92      -0.1941
    106  CA        29.3860  -41.3880   40.4160 C.3    92  GLY92       0.1998
    107  C         29.8990  -39.9920   40.7230 C.2    92  GLY92       0.2480
    108  O         31.1160  -39.7280   40.6220 O.2    92  GLY92      -0.2729
    109  N         28.9810  -39.0920   41.1040 N.am   93  PRO93      -0.2726
    110  CA        29.3340  -37.6800   41.3160 C.3    93  PRO93       0.1402
    111  C         30.3560  -37.4430   42.4270 C.2    93  PRO93       0.2269
    112  O         30.2910  -38.0830   43.5030 O.2    93  PRO93      -0.2865
    113  CB        28.0000  -37.0140   41.6550 C.3    93  PRO93       0.0296
    114  CG        26.9480  -37.9370   41.1670 C.3    93  PRO93       0.0237
    115  CD        27.5280  -39.3150   41.1950 C.3    93  PRO93       0.0939
    116  N         29.0520  -36.3710   46.1080 N.3    96  LYS96      -0.1245
    117  CA        28.5270  -37.5230   46.8710 C.3    96  LYS96       0.1561
    118  C         29.6370  -38.4710   47.2870 C.2    96  LYS96       0.2260
    119  O         29.6290  -38.9650   48.4150 O.2    96  LYS96      -0.2867
    120  CB        27.4600  -38.2520   46.0720 C.3    96  LYS96       0.0271
    121  CG        26.2030  -37.4240   45.9110 C.3    96  LYS96       0.0035
    122  CD        25.1460  -38.1390   45.1030 C.3    96  LYS96       0.0206
    123  CE        23.7750  -37.5030   45.2970 C.3    96  LYS96       0.1093
    124  NZ        22.7050  -38.3040   44.6360 N.3    96  LYS96      -0.1314
    125  N         28.7390  -31.8180   41.3350 N.3   136  ARG136     -0.1231
    126  CA        27.6920  -32.7850   40.9770 C.3   136  ARG136      0.1694
    127  C         27.8180  -33.3330   39.5520 C.2   136  ARG136      0.2592
    128  O         27.2640  -34.3860   39.2500 O.2   136  ARG136     -0.2718
    129  CB        26.2940  -32.1670   41.1370 C.3   136  ARG136      0.0321
    130  CG        26.0010  -30.9760   40.2290 C.3   136  ARG136      0.0489
    131  CD        24.5960  -30.4060   40.3520 C.3   136  ARG136      0.2205
    132  NE        24.4660  -29.1730   39.5810 N.pl3 136  ARG136     -0.0865
    133  CZ        24.8210  -27.9580   39.9990 C.cat 136  ARG136      0.5346
    134  NH1       25.3090  -27.7700   41.2080 N.pl3 136  ARG136      0.1354
    135  NH2       24.6740  -26.9030   39.1970 N.pl3 136  ARG136      0.1354
    136  N         28.4910  -32.5640   38.6930 N.am  137  ASN137     -0.1974
    137  CA        28.7250  -32.9270   37.3010 C.3   137  ASN137      0.1688
    138  C         30.1300  -33.4010   36.9780 C.2   137  ASN137      0.2292
    139  O         30.4820  -33.5140   35.8010 O.2   137  ASN137     -0.2864
    140  CB        28.3110  -31.7720   36.3930 C.3   137  ASN137      0.1181
    141  CG        26.8350  -31.5140   36.4520 C.2   137  ASN137      0.2629
    142  OD1       26.0380  -32.4540   36.6630 O.2   137  ASN137     -0.2716
    143  ND2       26.4430  -30.2580   36.2870 N.am  137  ASN137     -0.0877
    144  N         32.2880  -36.7160   37.5340 N.3   139  LEU139     -0.1245
    145  CA        32.0450  -38.1170   37.8680 C.3   139  LEU139      0.1561
    146  C         33.3670  -38.8630   37.9870 C.2   139  LEU139      0.2260
    147  O         34.3140  -38.5990   37.2240 O.2   139  LEU139     -0.2867
    148  CB        31.1580  -38.7560   36.7880 C.3   139  LEU139      0.0270
    149  CG        29.8940  -37.9880   36.3890 C.3   139  LEU139      0.0019
    150  CD1       29.0810  -38.7270   35.3270 C.3   139  LEU139      0.0001
    151  CD2       29.0250  -37.6890   37.6120 C.3   139  LEU139      0.0001
    152  N         30.9990  -34.2200   33.1220 N.3   149  SER149     -0.1202
    153  CA        29.7570  -34.6870   32.5180 C.3   149  SER149      0.2020
    154  C         28.7550  -33.5490   32.3390 C.2   149  SER149      0.2618
    155  O         29.0210  -32.3950   32.7020 O.2   149  SER149     -0.2717
    156  CB        29.1270  -35.7770   33.4040 C.3   149  SER149      0.2103
    157  OG        28.4780  -35.2170   34.5360 O.3   149  SER149     -0.2182
    158  N         27.5970  -33.9070   31.7970 N.am  150  ASP150     -0.1973
    159  CA        26.4240  -33.0280   31.7170 C.3   150  ASP150      0.1709
    160  C         26.5460  -31.7770   30.8650 C.2   150  ASP150      0.2293
    161  O         26.5990  -30.6570   31.3690 O.2   150  ASP150     -0.2864
    162  CB        25.8860  -32.6990   33.1270 C.3   150  ASP150      0.1436
    163  CG        25.2170  -33.8830   33.7550 C.2   150  ASP150      0.3671
    164  OD1       25.9200  -34.8750   34.0290 O.co2 150  ASP150     -0.2456
    165  OD2       23.9930  -33.8380   33.9390 O.co2 150  ASP150     -0.2456
@<TRIPOS>BOND
     1    58    59    1
     2    59    60    1
     3    59    62    1
     4    54    53    2
     5    63    62    1
     6    63    64    1
     7    45    44    2
     8    53    52    1
     9    60    66   am
    10    60    61    2
    11    66    67    1
    12    64    65    1
    13    73    72   ar
    14    70    67    1
    15    70    71    1
    16    44    43    1
    17    67    68    1
    18    72    74   ar
    19    72    71    1
    20    40    39    2
    21    42    43    1
    22    46    43    1
    23    46    47    1
    24    52    51    1
    25    52    55    1
    26    56    55    1
    27    47    48    1
    28    48    49    1
    29    49    50    1
    30    55    57    1
    31    39    38    1
    32    22    21    2
    33    68    69    2
    34    68    75   am
    35    37    38    1
    36   160   161    2
    37   160   159    1
    38    75    76    1
    39    23    20    1
    40    23    24    1
    41    21    20    1
    42    38    41    1
    43    20    19    1
    44   159   158    1
    45   159   162    1
    46   158   154   am
    47    25    24   ar
    48    25    27   ar
    49   154   153    1
    50   154   155    2
    51    24    26   ar
    52   153   152    1
    53   153   156    1
    54    76    79    1
    55    76    77    1
    56    79    80    1
    57   162   163    1
    58    27    29   ar
    59   156   157    1
    60    78    77    2
    61    26    28   ar
    62    77    83   am
    63   163   165   ar
    64   163   164   ar
    65    31    30    1
    66    31    32    1
    67    31    34    1
    68    36    34    1
    69    35    34    1
    70    83    84    1
    71    82    81    1
    72    29    28   ar
    73    80    81    1
    74    32    33    2
    75   150   149    1
    76    84    87    1
    77    84    85    1
    78    96    94   ar
    79   139   138    2
    80   143   141   am
    81     7     6    1
    82   149   148    1
    83   149   151    1
    84   140   141    1
    85   140   137    1
    86   141   142    2
    87    94    93    1
    88    94    95   ar
    89    85    88   am
    90    85    86    2
    91   148   145    1
    92    93    92    1
    93   138   137    1
    94    88    89    1
    95    12    11    2
    96   147   146    2
    97   137   136    1
    98     6     5    1
    99     6     8    1
   100   144   145    1
   101    14    15    1
   102    14    13    1
   103    14    17    1
   104    15    16    2
   105   145   146    1
   106     5     2    1
   107    89    92    1
   108    89    90    1
   109    11    13   am
   110    11    10    1
   111     1     2    1
   112    17    18    1
   113     9    10    1
   114     9     3   am
   115   136   127   am
   116     2     3    1
   117   135   133    1
   118   128   127    2
   119     3     4    2
   120    90    97   am
   121    90    91    2
   122   127   126    1
   123   132   133    2
   124   132   131    1
   125    97    98    1
   126   133   134    1
   127   130   131    1
   128   130   129    1
   129   105   106    1
   130   105    99   am
   131   106   107    1
   132   108   107    2
   133   107   109   am
   134   126   129    1
   135   126   125    1
   136   109   115    1
   137   109   110    1
   138   114   115    1
   139   114   113    1
   140    98    99    1
   141    98   101    1
   142   110   113    1
   143   110   111    1
   144    99   100    2
   145   101   102    1
   146   103   102    1
   147   111   112    2
   148   102   104    1
   149   124   123    1
   150   122   123    1
   151   122   121    1
   152   121   120    1
   153   120   117    1
   154   116   117    1
   155   117   118    1
   156   118   119    2
