@<TRIPOS>MOLECULE
tmp/6hmkA00.pdb
 147 139 0 0 0
SMALL
GASTEIGER

@<TRIPOS>ATOM
      1  N         20.9030   -6.5980   -5.6550 N.3   269  THR269     -0.1203
      2  CA        20.9290   -5.7300   -4.4860 C.3   269  THR269      0.1994
      3  C         19.8610   -6.1690   -3.5090 C.2   269  THR269      0.2618
      4  O         18.8540   -6.7730   -3.8990 O.2   269  THR269     -0.2717
      5  CB        20.6790   -4.2470   -4.9070 C.3   269  THR269      0.1784
      6  OG1       19.3490   -4.1280   -5.3810 O.3   269  THR269     -0.2211
      7  CG2       21.6550   -3.7420   -5.9840 C.3   269  THR269      0.0376
      8  N         20.0390   -5.7960   -2.2550 N.am  270  ILE270     -0.1965
      9  CA        19.0840   -6.0850   -1.1850 C.3   270  ILE270      0.1727
     10  C         17.7130   -5.4550   -1.5080 C.2   270  ILE270      0.2616
     11  O         16.7120   -6.1410   -1.3940 O.2   270  ILE270     -0.2715
     12  CB        19.6860   -5.6060    0.1820 C.3   270  ILE270      0.0290
     13  CG1       20.8020   -6.5730    0.6440 C.3   270  ILE270      0.0022
     14  CG2       18.6180   -5.4840    1.2630 C.3   270  ILE270      0.0023
     15  CD1       21.7710   -5.9780    1.7080 C.3   270  ILE270      0.0001
     16  N         17.6720   -4.1890   -1.9760 N.am  271  GLU271     -0.1977
     17  CA        16.3950   -3.5020   -2.2280 C.3   271  GLU271      0.1602
     18  C         15.6250   -4.0180   -3.4370 C.2   271  GLU271      0.2287
     19  O         14.4010   -4.0070   -3.3910 O.2   271  GLU271     -0.2864
     20  CB        16.5620   -1.9520   -2.2920 C.3   271  GLU271      0.0415
     21  CG        17.2760   -1.3740   -3.5100 C.3   271  GLU271      0.1163
     22  CD        18.7920   -1.4380   -3.4670 C.2   271  GLU271      0.3649
     23  OE1       19.3480   -2.1110   -2.5690 O.co2 271  GLU271     -0.2457
     24  OE2       19.4340   -0.8050   -4.3300 O.co2 271  GLU271     -0.2457
     25  N         23.2440   -1.9130    7.0200 N.3   282  PHE282     -0.1241
     26  CA        24.5490   -2.0420    7.7030 C.3   282  PHE282      0.1605
     27  C         24.7640   -0.7430    8.4660 C.2   282  PHE282      0.2264
     28  O         25.4220    0.1940    8.0150 O.2   282  PHE282     -0.2867
     29  CB        25.6810   -2.3200    6.6870 C.3   282  PHE282      0.0534
     30  CG        25.4320   -3.4690    5.7230 C.ar  282  PHE282     -0.0203
     31  CD1       24.7630   -4.6270    6.1410 C.ar  282  PHE282     -0.0042
     32  CD2       25.9810   -3.4530    4.4400 C.ar  282  PHE282     -0.0042
     33  CE1       24.5640   -5.7120    5.2590 C.ar  282  PHE282     -0.0003
     34  CE2       25.7770   -4.5350    3.5560 C.ar  282  PHE282     -0.0003
     35  CZ        25.0640   -5.6510    3.9710 C.ar  282  PHE282     -0.0000
     36  N         26.4940    2.0360    2.1830 N.3   298  GLN298     -0.1245
     37  CA        25.2340    1.2770    2.1750 C.3   298  GLN298      0.1566
     38  C         24.0720    1.9210    2.9590 C.2   298  GLN298      0.2260
     39  O         22.9980    2.1140    2.3950 O.2   298  GLN298     -0.2867
     40  CB        25.4880   -0.1660    2.6390 C.3   298  GLN298      0.0367
     41  CG        24.3830   -1.1280    2.2140 C.3   298  GLN298      0.0905
     42  CD        23.4320   -1.5110    3.3180 C.2   298  GLN298      0.2608
     43  OE1       23.3900   -0.9110    4.3920 O.2   298  GLN298     -0.2717
     44  NE2       22.5980   -2.4980    3.0540 N.am  298  GLN298     -0.0878
     45  N         22.9780    5.5310    1.5490 N.3   301  ILE301     -0.1231
     46  CA        22.2520    5.3830    0.2760 C.3   301  ILE301      0.1692
     47  C         20.8030    4.9230    0.5340 C.2   301  ILE301      0.2591
     48  O         19.8790    5.4890   -0.0200 O.2   301  ILE301     -0.2718
     49  CB        22.9960    4.4790   -0.7430 C.3   301  ILE301      0.0266
     50  CG1       24.3170    5.1770   -1.1960 C.3   301  ILE301      0.0019
     51  CG2       22.0850    4.1280   -1.9840 C.3   301  ILE301      0.0020
     52  CD1       25.3100    4.2520   -1.9610 C.3   301  ILE301      0.0001
     53  N         20.6070    3.9140    1.3740 N.am  302  ARG302     -0.1980
     54  CA        19.2320    3.4700    1.6390 C.3   302  ARG302      0.1597
     55  C         18.4190    4.5950    2.2500 C.2   302  ARG302      0.2287
     56  O         17.2430    4.7290    1.9290 O.2   302  ARG302     -0.2864
     57  CB        19.1650    2.2230    2.5450 C.3   302  ARG302      0.0334
     58  CG        17.7900    1.4840    2.3840 C.3   302  ARG302      0.0492
     59  CD        17.7590    0.7230    1.0450 C.3   302  ARG302      0.2205
     60  NE        16.4160    0.2530    0.6730 N.pl3 302  ARG302     -0.0865
     61  CZ        15.8970   -0.9010    1.0760 C.cat 302  ARG302      0.5346
     62  NH1       16.5910   -1.7110    1.8720 N.pl3 302  ARG302      0.1354
     63  NH2       14.6730   -1.2440    0.7080 N.pl3 302  ARG302      0.1354
     64  N         17.3710    7.0470   -0.6370 N.3   305  ILE305     -0.1245
     65  CA        16.3830    6.5740   -1.6140 C.3   305  ILE305      0.1561
     66  C         15.0500    6.2450   -0.9570 C.2   305  ILE305      0.2260
     67  O         14.0210    6.2750   -1.6440 O.2   305  ILE305     -0.2867
     68  CB        16.9070    5.4480   -2.5250 C.3   305  ILE305      0.0252
     69  CG1       17.1300    4.1310   -1.7300 C.3   305  ILE305      0.0019
     70  CG2       18.1910    5.9550   -3.2470 C.3   305  ILE305      0.0019
     71  CD1       17.6300    2.9050   -2.5920 C.3   305  ILE305      0.0001
     72  N         19.2390    5.0980   -8.2010 N.3   336  TYR336     -0.1241
     73  CA        20.6020    5.6300   -8.1770 C.3   336  TYR336      0.1605
     74  C         21.5530    4.7080   -8.9620 C.2   336  TYR336      0.2264
     75  O         21.1850    3.5780   -9.3120 O.2   336  TYR336     -0.2867
     76  CB        21.0750    5.7100   -6.6940 C.3   336  TYR336      0.0534
     77  CG        21.2970    4.3500   -6.0540 C.ar  336  TYR336     -0.0201
     78  CD1       20.2230    3.5940   -5.5880 C.ar  336  TYR336     -0.0009
     79  CD2       22.5670    3.7680   -6.0230 C.ar  336  TYR336     -0.0009
     80  CE1       20.4020    2.3000   -5.1050 C.ar  336  TYR336      0.0417
     81  CE2       22.7590    2.4760   -5.5270 C.ar  336  TYR336      0.0417
     82  CZ        21.6740    1.7520   -5.0590 C.ar  336  TYR336      0.1957
     83  OH        21.8290    0.4750   -4.5770 O.3   336  TYR336     -0.2866
     84  N         26.0410    3.6890   -8.8540 N.3   338  GLY338     -0.1210
     85  CA        27.2790    3.8900   -8.1140 C.3   338  GLY338      0.1956
     86  C         27.1460    3.7000   -6.6190 C.2   338  GLY338      0.2611
     87  O         26.1300    3.2170   -6.1160 O.2   338  GLY338     -0.2717
     88  N         28.1680    4.1230   -5.9030 N.am  339  TYR339     -0.1976
     89  CA        28.3220    3.8780   -4.4770 C.3   339  TYR339      0.1639
     90  C         29.4360    4.7780   -4.0360 C.2   339  TYR339      0.2290
     91  O         30.3810    4.9870   -4.8050 O.2   339  TYR339     -0.2864
     92  CB        28.7710    2.3830   -4.3030 C.3   339  TYR339      0.0560
     93  CG        28.7370    1.8660   -2.8800 C.ar  339  TYR339     -0.0198
     94  CD1       27.5460    1.4260   -2.3030 C.ar  339  TYR339     -0.0009
     95  CD2       29.8950    1.8230   -2.1060 C.ar  339  TYR339     -0.0009
     96  CE1       27.5050    0.9900   -0.9810 C.ar  339  TYR339      0.0417
     97  CE2       29.8710    1.3580   -0.7910 C.ar  339  TYR339      0.0417
     98  CZ        28.6760    0.9260   -0.2410 C.ar  339  TYR339      0.1957
     99  OH        28.6590    0.4280    1.0350 O.3   339  TYR339     -0.2866
    100  N         27.7750   -8.4120    2.8720 N.3   413  ASN413     -0.1240
    101  CA        29.0130   -8.1440    3.6400 C.3   413  ASN413      0.1653
    102  C         28.8970   -6.9740    4.6460 C.2   413  ASN413      0.2266
    103  O         29.3760   -5.8820    4.3870 O.2   413  ASN413     -0.2867
    104  CB        30.2230   -7.9340    2.7030 C.3   413  ASN413      0.1155
    105  CG        30.3750   -8.9590    1.6160 C.2   413  ASN413      0.2627
    106  OD1       30.0240  -10.1260    1.7770 O.2   413  ASN413     -0.2716
    107  ND2       30.9030   -8.5410    0.4770 N.am  413  ASN413     -0.0877
    108  N         32.1000   -4.4610    6.6590 N.3   416  CYS416     -0.1235
    109  CA        33.2860   -4.6560    5.8170 C.3   416  CYS416      0.1677
    110  C         34.1050   -3.3590    5.6550 C.2   416  CYS416      0.2270
    111  O         33.6570   -2.2780    6.0600 O.2   416  CYS416     -0.2867
    112  CB        32.8270   -5.1570    4.4530 C.3   416  CYS416      0.0956
    113  SG        31.9110   -3.9100    3.5100 S.3   416  CYS416     -0.0801
    114  N         27.0040  -10.6110   -2.3700 N.3   445  THR445     -0.1203
    115  CA        28.4260  -10.3300   -2.2110 C.3   445  THR445      0.1994
    116  C         28.8850   -9.1240   -3.0290 C.2   445  THR445      0.2617
    117  O         30.0780   -8.8320   -3.0330 O.2   445  THR445     -0.2717
    118  CB        29.3240  -11.5570   -2.4420 C.3   445  THR445      0.1784
    119  OG1       29.3080  -11.8700   -3.8160 O.3   445  THR445     -0.2211
    120  CG2       28.9080  -12.7660   -1.6170 C.3   445  THR445      0.0376
    121  N         27.9640   -8.4200   -3.7020 N.am  446  PHE446     -0.1975
    122  CA        28.2620   -7.1490   -4.3890 C.3   446  PHE446      0.1639
    123  C         29.5000   -7.1830   -5.3280 C.2   446  PHE446      0.2290
    124  O         30.4170   -6.3610   -5.1860 O.2   446  PHE446     -0.2864
    125  CB        28.3940   -6.0080   -3.3350 C.3   446  PHE446      0.0560
    126  CG        27.3120   -5.9840   -2.2750 C.ar  446  PHE446     -0.0200
    127  CD1       25.9670   -5.9620   -2.6300 C.ar  446  PHE446     -0.0042
    128  CD2       27.6370   -5.9950   -0.9270 C.ar  446  PHE446     -0.0042
    129  CE1       24.9660   -5.9640   -1.6500 C.ar  446  PHE446     -0.0003
    130  CE2       26.6310   -5.9450    0.0550 C.ar  446  PHE446     -0.0003
    131  CZ        25.3040   -5.9510   -0.3190 C.ar  446  PHE446     -0.0000
    132  N         31.7500   -9.6400   -5.6460 N.3   448  ASP448     -0.1239
    133  CA        32.8270  -10.5510   -5.2540 C.3   448  ASP448      0.1674
    134  C         32.4190  -12.0040   -5.5050 C.2   448  ASP448      0.2266
    135  O         31.8320  -12.6480   -4.6430 O.2   448  ASP448     -0.2867
    136  CB        33.2960  -10.2760   -3.8110 C.3   448  ASP448      0.1410
    137  CG        34.5960  -10.9620   -3.4070 C.2   448  ASP448      0.3668
    138  OD1       34.9560  -11.9860   -4.0340 O.co2 448  ASP448     -0.2456
    139  OD2       35.2100  -10.5260   -2.4190 O.co2 448  ASP448     -0.2456
    140  N         34.1520  -14.6850   -3.0760 N.3   451  LEU451     -0.1245
    141  CA        33.5010  -14.7180   -1.7700 C.3   451  LEU451      0.1561
    142  C         32.1960  -15.5160   -1.8290 C.2   451  LEU451      0.2260
    143  O         31.9530  -16.3470   -0.9410 O.2   451  LEU451     -0.2867
    144  CB        33.2450  -13.2980   -1.2510 C.3   451  LEU451      0.0270
    145  CG        32.5520  -13.2100    0.0890 C.3   451  LEU451      0.0019
    146  CD1       33.4290  -13.7910    1.1790 C.3   451  LEU451      0.0001
    147  CD2       32.2060  -11.7740    0.4200 C.3   451  LEU451      0.0001
@<TRIPOS>BOND
     1    75    74    2
     2    74    73    1
     3    84    85    1
     4    72    73    1
     5    73    76    1
     6    85    86    1
     7    76    77    1
     8    86    87    2
     9    86    88   am
    10    77    79   ar
    11    77    78   ar
    12    79    81   ar
    13     7     5    1
    14    88    89    1
    15     1     2    1
    16   132   133    1
    17    78    80   ar
    18    81    82   ar
    19   134   133    1
    20   134   135    2
    21     6     5    1
    22   123   124    2
    23   123   122    1
    24   133   136    1
    25    80    82   ar
    26    82    83    1
    27     5     2    1
    28    91    90    2
    29     2     3    1
    30    89    92    1
    31    89    90    1
    32   122   121    1
    33   122   125    1
    34    24    22   ar
    35    92    93    1
    36   138   137   ar
    37     4     3    2
    38   119   118    1
    39   136   137    1
    40   121   116   am
    41    21    22    1
    42    21    20    1
    43     3     8   am
    44    22    23   ar
    45    18    19    2
    46    18    17    1
    47   137   139   ar
    48   125   126    1
    49    70    68    1
    50   140   141    1
    51   117   116    2
    52   116   115    1
    53    93    94   ar
    54    93    95   ar
    55   127   126   ar
    56   127   129   ar
    57    71    69    1
    58    68    69    1
    59    68    65    1
    60   118   115    1
    61   118   120    1
    62   114   115    1
    63    94    96   ar
    64    20    17    1
    65   126   128   ar
    66     8     9    1
    67    17    16    1
    68    95    97   ar
    69    51    49    1
    70    16    10   am
    71    52    50    1
    72   142   141    1
    73   142   143    2
    74   141   144    1
    75   129   131   ar
    76    67    66    2
    77    65    66    1
    78    65    64    1
    79    10    11    2
    80    10     9    1
    81   144   145    1
    82    50    49    1
    83     9    12    1
    84    96    98   ar
    85   128   130   ar
    86    97    98   ar
    87    49    46    1
    88   131   130   ar
    89    98    99    1
    90    48    47    2
    91   145   147    1
    92   145   146    1
    93    12    13    1
    94    12    14    1
    95    46    47    1
    96    46    45    1
    97   107   105   am
    98    47    53   am
    99    13    15    1
   100    60    59    1
   101    60    61    2
   102    63    61    1
   103    59    58    1
   104    61    62    1
   105    53    54    1
   106   105   106    2
   107   105   104    1
   108    54    55    1
   109    54    57    1
   110    56    55    2
   111    37    36    1
   112    37    40    1
   113    37    38    1
   114    41    40    1
   115    41    42    1
   116    58    57    1
   117    39    38    2
   118   104   101    1
   119   100   101    1
   120    44    42   am
   121    42    43    2
   122   113   112    1
   123    34    35   ar
   124    34    32   ar
   125   101   102    1
   126    35    33   ar
   127   103   102    2
   128    32    30   ar
   129   112   109    1
   130    33    31   ar
   131   110   109    1
   132   110   111    2
   133    30    31   ar
   134    30    29    1
   135   109   108    1
   136    29    26    1
   137    25    26    1
   138    26    27    1
   139    28    27    2
