@<TRIPOS>MOLECULE
tmp/6hmlA00.pdb
 168 163 0 0 0
SMALL
GASTEIGER

@<TRIPOS>ATOM
      1  N         26.8800  -12.9490   -6.3870 N.3   261  TYR261     -0.1227
      2  CA        27.7450  -11.7780   -6.5510 C.3   261  TYR261      0.1736
      3  C         27.0660  -10.6660   -7.3790 C.2   261  TYR261      0.2595
      4  O         27.6390   -9.5850   -7.5550 O.2   261  TYR261     -0.2718
      5  CB        29.1470  -12.1380   -7.0790 C.3   261  TYR261      0.0548
      6  CG        29.2250  -12.5260   -8.5400 C.ar  261  TYR261     -0.0200
      7  CD1       29.4090  -11.5620   -9.5290 C.ar  261  TYR261     -0.0009
      8  CD2       29.2400  -13.8640   -8.9250 C.ar  261  TYR261     -0.0009
      9  CE1       29.5630  -11.9180  -10.8680 C.ar  261  TYR261      0.0417
     10  CE2       29.4050  -14.2330  -10.2600 C.ar  261  TYR261      0.0417
     11  CZ        29.5570  -13.2560  -11.2300 C.ar  261  TYR261      0.1957
     12  OH        29.6960  -13.6160  -12.5480 O.3   261  TYR261     -0.2866
     13  N         25.8440  -10.9350   -7.8630 N.am  262  GLU262     -0.1965
     14  CA        25.0390   -9.9770   -8.6260 C.3   262  GLU262      0.1733
     15  C         23.7980   -9.5780   -7.8130 C.2   262  GLU262      0.2617
     16  O         23.3680  -10.3410   -6.9620 O.2   262  GLU262     -0.2715
     17  CB        24.5580  -10.6220   -9.9290 C.3   262  GLU262      0.0429
     18  CG        25.6340  -10.8920  -10.9660 C.3   262  GLU262      0.1163
     19  CD        25.0760  -11.0860  -12.3600 C.2   262  GLU262      0.3649
     20  OE1       25.7650  -10.6940  -13.3290 O.co2 262  GLU262     -0.2457
     21  OE2       23.9520  -11.6250  -12.4880 O.co2 262  GLU262     -0.2457
     22  N         23.1970   -8.4360   -8.1290 N.am  263  GLY263     -0.1940
     23  CA        21.9730   -7.9780   -7.4780 C.3   263  GLY263      0.2014
     24  C         22.1780   -7.1310   -6.2380 C.2   263  GLY263      0.2640
     25  O         23.3130   -6.9100   -5.7960 O.2   263  GLY263     -0.2714
     26  N         21.0580   -6.6180   -5.6920 N.am  264  THR264     -0.1936
     27  CA        21.0350   -5.7650   -4.5040 C.3   264  THR264      0.2028
     28  C         19.9520   -6.1920   -3.5300 C.2   264  THR264      0.2642
     29  O         18.9960   -6.8820   -3.9030 O.2   264  THR264     -0.2714
     30  CB        20.8750   -4.2680   -4.8870 C.3   264  THR264      0.1808
     31  OG1       19.6180   -4.0770   -5.5060 O.3   264  THR264     -0.2208
     32  CG2       21.9900   -3.7590   -5.7900 C.3   264  THR264      0.0379
     33  N         20.1120   -5.7810   -2.2630 N.am  265  ILE265     -0.1963
     34  CA        19.1610   -6.0750   -1.1920 C.3   265  ILE265      0.1727
     35  C         17.7620   -5.4810   -1.4970 C.2   265  ILE265      0.2616
     36  O         16.7750   -6.1940   -1.3580 O.2   265  ILE265     -0.2715
     37  CB        19.7520   -5.6170    0.1810 C.3   265  ILE265      0.0290
     38  CG1       20.9490   -6.5280    0.6020 C.3   265  ILE265      0.0022
     39  CG2       18.6820   -5.5500    1.2770 C.3   265  ILE265      0.0023
     40  CD1       21.7490   -6.0700    1.8380 C.3   265  ILE265      0.0001
     41  N         17.6800   -4.2010   -1.9320 N.am  266  GLU266     -0.1977
     42  CA        16.3870   -3.5330   -2.1770 C.3   266  GLU266      0.1602
     43  C         15.6370   -4.0270   -3.4180 C.2   266  GLU266      0.2287
     44  O         14.4090   -3.9550   -3.4170 O.2   266  GLU266     -0.2864
     45  CB        16.5010   -1.9830   -2.1810 C.3   266  GLU266      0.0415
     46  CG        17.2350   -1.3450   -3.3590 C.3   266  GLU266      0.1163
     47  CD        18.7520   -1.4430   -3.3630 C.2   266  GLU266      0.3649
     48  OE1       19.3250   -2.0670   -2.4400 O.co2 266  GLU266     -0.2457
     49  OE2       19.3760   -0.8810   -4.2900 O.co2 266  GLU266     -0.2457
     50  N         23.3360   -1.9760    7.1230 N.3   277  PHE277     -0.1241
     51  CA        24.6520   -2.0900    7.7860 C.3   277  PHE277      0.1605
     52  C         24.8680   -0.7570    8.5040 C.2   277  PHE277      0.2264
     53  O         25.5200    0.1790    8.0200 O.2   277  PHE277     -0.2867
     54  CB        25.7850   -2.4210    6.7740 C.3   277  PHE277      0.0534
     55  CG        25.5180   -3.5520    5.7950 C.ar  277  PHE277     -0.0203
     56  CD1       24.8120   -4.6900    6.1880 C.ar  277  PHE277     -0.0042
     57  CD2       26.0590   -3.5250    4.5090 C.ar  277  PHE277     -0.0042
     58  CE1       24.5640   -5.7370    5.2840 C.ar  277  PHE277     -0.0003
     59  CE2       25.8080   -4.5720    3.5990 C.ar  277  PHE277     -0.0003
     60  CZ        25.0700   -5.6730    3.9960 C.ar  277  PHE277     -0.0000
     61  N         26.6310    2.0690    2.2140 N.3   293  GLN293     -0.1245
     62  CA        25.3870    1.2720    2.2670 C.3   293  GLN293      0.1566
     63  C         24.2220    1.9150    3.0550 C.2   293  GLN293      0.2260
     64  O         23.1520    2.0900    2.4810 O.2   293  GLN293     -0.2867
     65  CB        25.6520   -0.1590    2.7610 C.3   293  GLN293      0.0367
     66  CG        24.5550   -1.1510    2.3260 C.3   293  GLN293      0.0905
     67  CD        23.5290   -1.4940    3.3830 C.2   293  GLN293      0.2608
     68  OE1       23.4480   -0.8870    4.4590 O.2   293  GLN293     -0.2717
     69  NE2       22.7250   -2.5040    3.1050 N.am  293  GLN293     -0.0878
     70  N         22.9650    5.5360    1.6610 N.3   296  ILE296     -0.1231
     71  CA        22.3010    5.3970    0.3640 C.3   296  ILE296      0.1692
     72  C         20.8480    4.9650    0.5780 C.2   296  ILE296      0.2591
     73  O         19.9500    5.5740    0.0010 O.2   296  ILE296     -0.2718
     74  CB        23.0780    4.4760   -0.6250 C.3   296  ILE296      0.0266
     75  CG1       24.4090    5.1510   -1.0690 C.3   296  ILE296      0.0019
     76  CG2       22.2130    4.0930   -1.8480 C.3   296  ILE296      0.0020
     77  CD1       25.3910    4.2060   -1.7740 C.3   296  ILE296      0.0001
     78  N         20.6200    3.9560    1.4320 N.am  297  ARG297     -0.1980
     79  CA        19.2590    3.4960    1.7190 C.3   297  ARG297      0.1597
     80  C         18.4350    4.6200    2.3320 C.2   297  ARG297      0.2287
     81  O         17.2560    4.7510    1.9990 O.2   297  ARG297     -0.2864
     82  CB        19.2270    2.2490    2.6390 C.3   297  ARG297      0.0334
     83  CG        17.8910    1.4800    2.5520 C.3   297  ARG297      0.0492
     84  CD        17.8670    0.7070    1.2340 C.3   297  ARG297      0.2205
     85  NE        16.5320    0.2840    0.8150 N.pl3 297  ARG297     -0.0865
     86  CZ        15.9820   -0.8790    1.1440 C.cat 297  ARG297      0.5346
     87  NH1       16.6450   -1.7450    1.9050 N.pl3 297  ARG297      0.1354
     88  NH2       14.7610   -1.1780    0.7340 N.pl3 297  ARG297      0.1354
     89  N         17.3690    7.0880   -0.6110 N.3   300  ILE300     -0.1245
     90  CA        16.4000    6.5920   -1.5880 C.3   300  ILE300      0.1561
     91  C         15.0690    6.2870   -0.9340 C.2   300  ILE300      0.2260
     92  O         14.0440    6.3230   -1.6190 O.2   300  ILE300     -0.2867
     93  CB        16.9510    5.4290   -2.4480 C.3   300  ILE300      0.0252
     94  CG1       17.1650    4.1230   -1.5960 C.3   300  ILE300      0.0019
     95  CG2       18.2290    5.9180   -3.1920 C.3   300  ILE300      0.0019
     96  CD1       17.6480    2.8970   -2.3440 C.3   300  ILE300      0.0001
     97  N         19.2600    4.9610   -8.2680 N.3   331  TYR331     -0.1241
     98  CA        20.6350    5.4610   -8.2170 C.3   331  TYR331      0.1605
     99  C         21.5700    4.5220   -8.9890 C.2   331  TYR331      0.2264
    100  O         21.1690    3.4210   -9.3380 O.2   331  TYR331     -0.2867
    101  CB        21.0790    5.5470   -6.7250 C.3   331  TYR331      0.0534
    102  CG        21.2910    4.1880   -6.0720 C.ar  331  TYR331     -0.0201
    103  CD1       20.2140    3.4510   -5.5820 C.ar  331  TYR331     -0.0009
    104  CD2       22.5590    3.6020   -6.0220 C.ar  331  TYR331     -0.0009
    105  CE1       20.3890    2.1710   -5.0600 C.ar  331  TYR331      0.0417
    106  CE2       22.7520    2.3330   -5.4660 C.ar  331  TYR331      0.0417
    107  CZ        21.6600    1.6180   -5.0000 C.ar  331  TYR331      0.1957
    108  OH        21.8100    0.3460   -4.5050 O.3   331  TYR331     -0.2866
    109  N         26.0610    3.4840   -8.9560 N.3   333  GLY333     -0.1210
    110  CA        27.2990    3.6490   -8.2010 C.3   333  GLY333      0.1956
    111  C         27.1440    3.4710   -6.7060 C.2   333  GLY333      0.2611
    112  O         26.0970    3.0280   -6.2070 O.2   333  GLY333     -0.2717
    113  N         28.2010    3.8280   -5.9940 N.am  334  TYR334     -0.1976
    114  CA        28.3310    3.6300   -4.5560 C.3   334  TYR334      0.1639
    115  C         29.4410    4.5390   -4.0900 C.2   334  TYR334      0.2290
    116  O         30.4290    4.6930   -4.8050 O.2   334  TYR334     -0.2864
    117  CB        28.7480    2.1410   -4.3100 C.3   334  TYR334      0.0560
    118  CG        28.7200    1.7080   -2.8580 C.ar  334  TYR334     -0.0198
    119  CD1       27.5220    1.3610   -2.2350 C.ar  334  TYR334     -0.0009
    120  CD2       29.8970    1.5880   -2.1220 C.ar  334  TYR334     -0.0009
    121  CE1       27.4880    0.9840   -0.8930 C.ar  334  TYR334      0.0417
    122  CE2       29.8780    1.1890   -0.7850 C.ar  334  TYR334      0.0417
    123  CZ        28.6720    0.8750   -0.1790 C.ar  334  TYR334      0.1957
    124  OH        28.6530    0.4360    1.1230 O.3   334  TYR334     -0.2866
    125  N         27.9060   -8.3130    2.9480 N.3   408  ASN408     -0.1240
    126  CA        29.1340   -7.9780    3.6740 C.3   408  ASN408      0.1653
    127  C         28.9280   -6.9030    4.7580 C.2   408  ASN408      0.2266
    128  O         29.3030   -5.7500    4.5630 O.2   408  ASN408     -0.2867
    129  CB        30.2170   -7.5050    2.6980 C.3   408  ASN408      0.1155
    130  CG        30.8320   -8.5280    1.7910 C.2   408  ASN408      0.2627
    131  OD1       30.2000   -9.4920    1.3430 O.2   408  ASN408     -0.2716
    132  ND2       32.0700   -8.2590    1.4230 N.am  408  ASN408     -0.0877
    133  N         32.0500   -4.4110    6.7320 N.3   411  CYS411     -0.1235
    134  CA        33.2790   -4.5100    5.9390 C.3   411  CYS411      0.1677
    135  C         33.8950   -3.1450    5.5720 C.2   411  CYS411      0.2270
    136  O         33.3130   -2.0880    5.8520 O.2   411  CYS411     -0.2867
    137  CB        33.0560   -5.3760    4.7020 C.3   411  CYS411      0.0956
    138  SG        34.2700   -6.7080    4.5090 S.3   411  CYS411     -0.0801
    139  N         27.1650  -10.5660   -2.4360 N.3   440  THR440     -0.1203
    140  CA        28.6020  -10.3080   -2.2650 C.3   440  THR440      0.1994
    141  C         29.1030   -9.1180   -3.1070 C.2   440  THR440      0.2618
    142  O         30.3000   -8.8240   -3.0950 O.2   440  THR440     -0.2717
    143  CB        29.4640  -11.5730   -2.4520 C.3   440  THR440      0.1784
    144  OG1       29.4830  -11.9300   -3.8260 O.3   440  THR440     -0.2211
    145  CG2       28.9960  -12.7480   -1.5870 C.3   440  THR440      0.0376
    146  N         28.1860   -8.3970   -3.7710 N.am  441  PHE441     -0.1961
    147  CA        28.4750   -7.1350   -4.4860 C.3   441  PHE441      0.1771
    148  C         29.7110   -7.1750   -5.4210 C.2   441  PHE441      0.2620
    149  O         30.6130   -6.3450   -5.3010 O.2   441  PHE441     -0.2715
    150  CB        28.5730   -5.9660   -3.4690 C.3   441  PHE441      0.0574
    151  CG        27.3940   -5.9220   -2.5210 C.ar  441  PHE441     -0.0200
    152  CD1       26.0910   -5.8580   -3.0060 C.ar  441  PHE441     -0.0042
    153  CD2       27.5810   -6.0180   -1.1500 C.ar  441  PHE441     -0.0042
    154  CE1       24.9960   -5.8800   -2.1330 C.ar  441  PHE441     -0.0003
    155  CE2       26.4840   -5.9990   -0.2750 C.ar  441  PHE441     -0.0003
    156  CZ        25.2040   -5.9540   -0.7760 C.ar  441  PHE441     -0.0000
    157  N         29.7060   -8.1320   -6.3530 N.am  442  GLY442     -0.1940
    158  CA        30.7590   -8.2830   -7.3480 C.3   442  GLY442      0.2014
    159  C         31.8740   -9.2370   -6.9920 C.2   442  GLY442      0.2638
    160  O         32.6320   -9.6460   -7.8720 O.2   442  GLY442     -0.2714
    161  N         31.9870   -9.6080   -5.7110 N.am  443  ASP443     -0.1971
    162  CA        33.0300  -10.5350   -5.2770 C.3   443  ASP443      0.1709
    163  C         32.5830  -11.9890   -5.4990 C.2   443  ASP443      0.2293
    164  O         32.0350  -12.6210   -4.5950 O.2   443  ASP443     -0.2864
    165  CB        33.4690  -10.2450   -3.8190 C.3   443  ASP443      0.1436
    166  CG        34.7380  -10.9520   -3.3470 C.2   443  ASP443      0.3671
    167  OD1       35.1220  -11.9670   -3.9580 O.co2 443  ASP443     -0.2456
    168  OD2       35.3000  -10.5350   -2.3170 O.co2 443  ASP443     -0.2456
@<TRIPOS>BOND
     1    20    19   ar
     2    12    11    1
     3    21    19   ar
     4    19    18    1
     5    11     9   ar
     6    11    10   ar
     7    18    17    1
     8     9     7   ar
     9    10     8   ar
    10    17    14    1
    11     7     6   ar
    12   100    99    2
    13    99    98    1
    14   109   110    1
    15     8     6   ar
    16    14    13    1
    17    14    15    1
    18     6     5    1
    19    97    98    1
    20    98   101    1
    21   110   111    1
    22    22    15   am
    23    22    23    1
    24   160   159    2
    25    13     3   am
    26    15    16    2
    27     4     3    2
    28    23    24    1
    29     3     2    1
    30   158   159    1
    31   158   157    1
    32     5     2    1
    33   159   161   am
    34   101   102    1
    35   111   112    2
    36   111   113   am
    37     2     1    1
    38   157   148   am
    39    24    25    2
    40    24    26   am
    41   102   104   ar
    42   102   103   ar
    43   104   106   ar
    44   113   114    1
    45    32    30    1
    46   161   162    1
    47    26    27    1
    48   103   105   ar
    49    31    30    1
    50   163   162    1
    51   163   164    2
    52   106   107   ar
    53   148   149    2
    54   148   147    1
    55   162   165    1
    56   105   107   ar
    57   107   108    1
    58    30    27    1
    59   116   115    2
    60   114   117    1
    61   114   115    1
    62    27    28    1
    63   147   146    1
    64   147   150    1
    65   117   118    1
    66    49    47   ar
    67   167   166   ar
    68    29    28    2
    69   144   143    1
    70   165   166    1
    71   146   141   am
    72    28    33   am
    73   150   151    1
    74    43    44    2
    75    43    42    1
    76    47    46    1
    77    47    48   ar
    78    46    45    1
    79   166   168   ar
    80    95    93    1
    81   141   142    2
    82   141   140    1
    83   152   151   ar
    84   152   154   ar
    85   118   119   ar
    86   118   120   ar
    87   151   153   ar
    88   143   140    1
    89   143   145    1
    90    93    94    1
    91    93    90    1
    92   139   140    1
    93    96    94    1
    94    33    34    1
    95   119   121   ar
    96    45    42    1
    97    42    41    1
    98   154   156   ar
    99   120   122   ar
   100    41    35   am
   101    76    74    1
   102    77    75    1
   103    92    91    2
   104    90    91    1
   105    90    89    1
   106    35    36    2
   107    35    34    1
   108    34    37    1
   109   153   155   ar
   110    75    74    1
   111   121   123   ar
   112   122   123   ar
   113   156   155   ar
   114    74    71    1
   115   123   124    1
   116    73    72    2
   117    37    38    1
   118    37    39    1
   119    71    72    1
   120    71    70    1
   121    72    78   am
   122    38    40    1
   123    88    86    1
   124    85    86    2
   125    85    84    1
   126    86    87    1
   127    84    83    1
   128   131   130    2
   129   132   130   am
   130    78    79    1
   131    79    80    1
   132    79    82    1
   133   130   129    1
   134    81    80    2
   135    61    62    1
   136    62    65    1
   137    62    63    1
   138    66    65    1
   139    66    67    1
   140    64    63    2
   141    83    82    1
   142   129   126    1
   143   125   126    1
   144    69    67   am
   145    67    68    2
   146    59    60   ar
   147    59    57   ar
   148   126   127    1
   149    60    58   ar
   150    57    55   ar
   151   138   137    1
   152   128   127    2
   153   137   134    1
   154    58    56   ar
   155   135   136    2
   156   135   134    1
   157    55    56   ar
   158    55    54    1
   159   134   133    1
   160    54    51    1
   161    50    51    1
   162    51    52    1
   163    53    52    2
