@<TRIPOS>MOLECULE
tmp/6hmmA00.pdb
 110 106 0 0 0
SMALL
GASTEIGER

@<TRIPOS>ATOM
      1  N         20.6540   -6.6500   -5.7410 N.3   268  THR268     -0.1203
      2  CA        20.6940   -5.7450   -4.6030 C.3   268  THR268      0.1994
      3  C         19.6560   -6.1610   -3.5510 C.2   268  THR268      0.2618
      4  O         18.6740   -6.8510   -3.8570 O.2   268  THR268     -0.2717
      5  CB        20.4200   -4.2840   -5.0660 C.3   268  THR268      0.1784
      6  OG1       19.0960   -4.1850   -5.5840 O.3   268  THR268     -0.2211
      7  CG2       21.4260   -3.7790   -6.0950 C.3   268  THR268      0.0376
      8  N         19.8530   -5.6890   -2.3300 N.am  269  ILE269     -0.1965
      9  CA        18.9340   -5.9450   -1.2350 C.3   269  ILE269      0.1727
     10  C         17.5540   -5.3590   -1.5460 C.2   269  ILE269      0.2616
     11  O         16.5770   -6.0570   -1.3610 O.2   269  ILE269     -0.2715
     12  CB        19.5050   -5.4130    0.1210 C.3   269  ILE269      0.0290
     13  CG1       20.5980   -6.3560    0.6630 C.3   269  ILE269      0.0022
     14  CG2       18.3790   -5.2550    1.1530 C.3   269  ILE269      0.0023
     15  CD1       21.5490   -5.7870    1.7050 C.3   269  ILE269      0.0001
     16  N         17.4730   -4.0900   -2.0340 N.am  270  GLU270     -0.1977
     17  CA        16.1950   -3.4080   -2.2980 C.3   270  GLU270      0.1602
     18  C         15.3450   -3.9540   -3.4280 C.2   270  GLU270      0.2287
     19  O         14.1260   -3.9010   -3.3370 O.2   270  GLU270     -0.2864
     20  CB        16.3580   -1.8630   -2.3920 C.3   270  GLU270      0.0415
     21  CG        17.0900   -1.3410   -3.6300 C.3   270  GLU270      0.1163
     22  CD        18.6060   -1.4290   -3.6070 C.2   270  GLU270      0.3649
     23  OE1       19.1650   -2.0240   -2.6580 O.co2 270  GLU270     -0.2457
     24  OE2       19.2420   -0.8930   -4.5420 O.co2 270  GLU270     -0.2457
     25  N         23.1810   -2.0290    7.0890 N.3   281  PHE281     -0.1241
     26  CA        24.4730   -2.0780    7.8050 C.3   281  PHE281      0.1605
     27  C         24.6630   -0.7120    8.4660 C.2   281  PHE281      0.2264
     28  O         25.3240    0.1950    7.9560 O.2   281  PHE281     -0.2867
     29  CB        25.6470   -2.4570    6.8620 C.3   281  PHE281      0.0534
     30  CG        25.3560   -3.5580    5.8600 C.ar  281  PHE281     -0.0203
     31  CD1       24.7260   -4.7390    6.2550 C.ar  281  PHE281     -0.0042
     32  CD2       25.8320   -3.4760    4.5570 C.ar  281  PHE281     -0.0042
     33  CE1       24.4840   -5.7730    5.3370 C.ar  281  PHE281     -0.0003
     34  CE2       25.5910   -4.5170    3.6350 C.ar  281  PHE281     -0.0003
     35  CZ        24.8950   -5.6450    4.0300 C.ar  281  PHE281     -0.0000
     36  N         26.5100    1.9260    2.1460 N.3   297  GLN297     -0.1245
     37  CA        25.2480    1.1570    2.2330 C.3   297  GLN297      0.1566
     38  C         24.0910    1.8020    2.9970 C.2   297  GLN297      0.2260
     39  O         23.0060    1.8770    2.4600 O.2   297  GLN297     -0.2867
     40  CB        25.5030   -0.2710    2.7140 C.3   297  GLN297      0.0367
     41  CG        24.3960   -1.2670    2.3410 C.3   297  GLN297      0.0905
     42  CD        23.4560   -1.6280    3.4810 C.2   297  GLN297      0.2608
     43  OE1       23.3490   -0.9480    4.5060 O.2   297  GLN297     -0.2717
     44  NE2       22.7760   -2.7430    3.3420 N.am  297  GLN297     -0.0878
     45  N         22.9900    5.5460    1.5120 N.3   300  ILE300     -0.1231
     46  CA        22.2640    5.3670    0.2470 C.3   300  ILE300      0.1692
     47  C         20.8360    4.8850    0.5340 C.2   300  ILE300      0.2591
     48  O         19.9130    5.3900   -0.0830 O.2   300  ILE300     -0.2718
     49  CB        23.0000    4.4500   -0.7610 C.3   300  ILE300      0.0266
     50  CG1       24.3460    5.0770   -1.2080 C.3   300  ILE300      0.0019
     51  CG2       22.1120    4.0900   -1.9640 C.3   300  ILE300      0.0020
     52  CD1       25.2550    4.1390   -1.9500 C.3   300  ILE300      0.0001
     53  N         20.6420    3.9160    1.4550 N.am  301  ARG301     -0.1980
     54  CA        19.2580    3.4850    1.7110 C.3   301  ARG301      0.1597
     55  C         18.4140    4.6130    2.3000 C.2   301  ARG301      0.2287
     56  O         17.2610    4.7990    1.8930 O.2   301  ARG301     -0.2864
     57  CB        19.1750    2.2060    2.5780 C.3   301  ARG301      0.0334
     58  CG        17.8410    1.4660    2.4160 C.3   301  ARG301      0.0492
     59  CD        17.8530    0.5990    1.1460 C.3   301  ARG301      0.2205
     60  NE        16.5160    0.1540    0.7550 N.pl3 301  ARG301     -0.0865
     61  CZ        15.9370   -0.9590    1.1910 C.cat 301  ARG301      0.5346
     62  NH1       16.5550   -1.7400    2.0690 N.pl3 301  ARG301      0.1354
     63  NH2       14.7380   -1.3020    0.7520 N.pl3 301  ARG301      0.1354
     64  N         17.3850    7.0300   -0.6240 N.3   304  ILE304     -0.1245
     65  CA        16.3890    6.5200   -1.5700 C.3   304  ILE304      0.1561
     66  C         15.0550    6.2770   -0.9100 C.2   304  ILE304      0.2260
     67  O         14.0340    6.4040   -1.5560 O.2   304  ILE304     -0.2867
     68  CB        16.8900    5.3510   -2.4690 C.3   304  ILE304      0.0252
     69  CG1       17.2830    4.0930   -1.6110 C.3   304  ILE304      0.0019
     70  CG2       18.0400    5.8510   -3.3670 C.3   304  ILE304      0.0019
     71  CD1       17.4360    2.7920   -2.4170 C.3   304  ILE304      0.0001
     72  N         19.1230    5.0060   -8.2940 N.3   335  TYR335     -0.1241
     73  CA        20.4650    5.5460   -8.2420 C.3   335  TYR335      0.1605
     74  C         21.4580    4.6890   -9.0420 C.2   335  TYR335      0.2264
     75  O         21.1410    3.5570   -9.4170 O.2   335  TYR335     -0.2867
     76  CB        20.8830    5.6520   -6.7370 C.3   335  TYR335      0.0534
     77  CG        21.1680    4.3100   -6.0890 C.ar  335  TYR335     -0.0201
     78  CD1       22.4640    3.7960   -6.0450 C.ar  335  TYR335     -0.0009
     79  CD2       20.1290    3.4980   -5.6280 C.ar  335  TYR335     -0.0009
     80  CE1       22.7220    2.5190   -5.5430 C.ar  335  TYR335      0.0417
     81  CE2       20.3810    2.2310   -5.0940 C.ar  335  TYR335      0.0417
     82  CZ        21.6780    1.7410   -5.0710 C.ar  335  TYR335      0.1957
     83  OH        21.9420    0.4830   -4.5920 O.3   335  TYR335     -0.2866
     84  N         25.9820    3.7660   -9.0680 N.3   337  GLY337     -0.1210
     85  CA        27.1910    3.8440   -8.2580 C.3   337  GLY337      0.1956
     86  C         26.9670    3.5820   -6.7820 C.2   337  GLY337      0.2611
     87  O         25.8970    3.1290   -6.3580 O.2   337  GLY337     -0.2717
     88  N         27.9920    3.8910   -6.0020 N.am  338  TYR338     -0.1976
     89  CA        28.1340    3.6650   -4.5720 C.3   338  TYR338      0.1639
     90  C         29.2590    4.5860   -4.1590 C.2   338  TYR338      0.2290
     91  O         30.1240    4.8950   -4.9830 O.2   338  TYR338     -0.2864
     92  CB        28.5630    2.1790   -4.3600 C.3   338  TYR338      0.0560
     93  CG        28.5450    1.6830   -2.9280 C.ar  338  TYR338     -0.0198
     94  CD1       27.3610    1.2410   -2.3340 C.ar  338  TYR338     -0.0009
     95  CD2       29.7210    1.5810   -2.1910 C.ar  338  TYR338     -0.0009
     96  CE1       27.3390    0.8090   -1.0070 C.ar  338  TYR338      0.0417
     97  CE2       29.7140    1.1160   -0.8760 C.ar  338  TYR338      0.0417
     98  CZ        28.5230    0.7180   -0.2950 C.ar  338  TYR338      0.1957
     99  OH        28.5350    0.2290    0.9840 O.3   338  TYR338     -0.2866
    100  N         27.7000   -8.4450   -4.1070 N.3   445  PHE445     -0.1241
    101  CA        27.9290   -7.2160   -4.9000 C.3   445  PHE445      0.1605
    102  C         29.1720   -7.2170   -5.8180 C.2   445  PHE445      0.2264
    103  O         30.0200   -6.3240   -5.7070 O.2   445  PHE445     -0.2867
    104  CB        27.8680   -5.9370   -3.9980 C.3   445  PHE445      0.0534
    105  CG        26.6750   -5.9080   -3.0710 C.ar  445  PHE445     -0.0203
    106  CD1       25.3810   -5.8000   -3.5780 C.ar  445  PHE445     -0.0042
    107  CD2       26.8390   -6.0460   -1.7030 C.ar  445  PHE445     -0.0042
    108  CE1       24.2770   -5.8490   -2.7310 C.ar  445  PHE445     -0.0003
    109  CE2       25.7360   -6.0760   -0.8520 C.ar  445  PHE445     -0.0003
    110  CZ        24.4610   -5.9790   -1.3700 C.ar  445  PHE445     -0.0000
@<TRIPOS>BOND
     1    75    74    2
     2    84    85    1
     3    74    73    1
     4    72    73    1
     5    85    86    1
     6    73    76    1
     7    86    87    2
     8    86    88   am
     9    76    77    1
    10     7     5    1
    11    77    78   ar
    12    77    79   ar
    13    78    80   ar
    14    88    89    1
    15   102   103    2
    16   102   101    1
    17     1     2    1
    18    79    81   ar
    19     6     5    1
    20    80    82   ar
    21    81    82   ar
    22    82    83    1
    23     5     2    1
    24    91    90    2
    25   101   100    1
    26   101   104    1
    27     2     3    1
    28    89    92    1
    29    89    90    1
    30    24    22   ar
    31    92    93    1
    32   104   105    1
    33     4     3    2
    34    21    22    1
    35    21    20    1
    36    22    23   ar
    37   106   105   ar
    38   106   108   ar
    39     3     8   am
    40    18    19    2
    41    18    17    1
    42    70    68    1
    43   105   107   ar
    44    93    94   ar
    45    93    95   ar
    46   108   110   ar
    47    68    69    1
    48    68    65    1
    49    71    69    1
    50    20    17    1
    51    94    96   ar
    52     8     9    1
    53    17    16    1
    54    95    97   ar
    55    16    10   am
    56    51    49    1
    57    52    50    1
    58   107   109   ar
    59    65    66    1
    60    65    64    1
    61    67    66    2
    62    10    11    2
    63    10     9    1
    64   110   109   ar
    65     9    12    1
    66    50    49    1
    67    96    98   ar
    68    97    98   ar
    69    49    46    1
    70    98    99    1
    71    48    47    2
    72    12    13    1
    73    12    14    1
    74    46    47    1
    75    46    45    1
    76    47    53   am
    77    13    15    1
    78    63    61    1
    79    60    59    1
    80    60    61    2
    81    59    58    1
    82    61    62    1
    83    53    54    1
    84    54    55    1
    85    54    57    1
    86    56    55    2
    87    36    37    1
    88    37    40    1
    89    37    38    1
    90    41    40    1
    91    41    42    1
    92    58    57    1
    93    39    38    2
    94    44    42   am
    95    42    43    2
    96    34    35   ar
    97    34    32   ar
    98    35    33   ar
    99    32    30   ar
   100    33    31   ar
   101    30    31   ar
   102    30    29    1
   103    29    26    1
   104    25    26    1
   105    26    27    1
   106    28    27    2
