@<TRIPOS>MOLECULE
tmp/6hmnA00.pdb
 140 134 0 0 0
SMALL
GASTEIGER

@<TRIPOS>ATOM
      1  N         27.1940  -12.8360   -6.4620 N.3   264  TYR264     -0.1241
      2  CA        28.0720  -11.6790   -6.6430 C.3   264  TYR264      0.1605
      3  C         27.3890  -10.5640   -7.4600 C.2   264  TYR264      0.2264
      4  O         28.0010   -9.5270   -7.7660 O.2   264  TYR264     -0.2867
      5  CB        29.4480  -12.0690   -7.2080 C.3   264  TYR264      0.0534
      6  CG        29.4560  -12.6030   -8.6230 C.ar  264  TYR264     -0.0201
      7  CD1       29.6070  -11.7460   -9.7130 C.ar  264  TYR264     -0.0009
      8  CD2       29.4510  -13.9720   -8.8690 C.ar  264  TYR264     -0.0009
      9  CE1       29.6570  -12.2360  -11.0200 C.ar  264  TYR264      0.0417
     10  CE2       29.5110  -14.4760  -10.1680 C.ar  264  TYR264      0.0417
     11  CZ        29.6020  -13.6050  -11.2440 C.ar  264  TYR264      0.1957
     12  OH        29.6520  -14.1150  -12.5240 O.3   264  TYR264     -0.2866
     13  N         21.3750   -6.5060   -5.7140 N.3   267  THR267     -0.1203
     14  CA        21.3590   -5.6170   -4.5520 C.3   267  THR267      0.1994
     15  C         20.2870   -6.0330   -3.5580 C.2   267  THR267      0.2618
     16  O         19.3390   -6.7580   -3.9140 O.2   267  THR267     -0.2717
     17  CB        21.1010   -4.1540   -4.9720 C.3   267  THR267      0.1784
     18  OG1       19.9470   -4.0950   -5.8180 O.3   267  THR267     -0.2211
     19  CG2       22.3110   -3.4970   -5.6340 C.3   267  THR267      0.0376
     20  N         20.4220   -5.5200   -2.3120 N.am  268  ILE268     -0.1965
     21  CA        19.5050   -5.7790   -1.2010 C.3   268  ILE268      0.1727
     22  C         18.1050   -5.2120   -1.5030 C.2   268  ILE268      0.2616
     23  O         17.1390   -5.9570   -1.4190 O.2   268  ILE268     -0.2715
     24  CB        20.1320   -5.3420    0.1560 C.3   268  ILE268      0.0290
     25  CG1       21.3550   -6.2390    0.5140 C.3   268  ILE268      0.0022
     26  CG2       19.1140   -5.3450    1.2840 C.3   268  ILE268      0.0023
     27  CD1       22.2140   -5.7670    1.7290 C.3   268  ILE268      0.0001
     28  N         18.0030   -3.9440   -1.9320 N.am  269  GLU269     -0.1977
     29  CA        16.7250   -3.3140   -2.2990 C.3   269  GLU269      0.1602
     30  C         15.9860   -3.9360   -3.5050 C.2   269  GLU269      0.2287
     31  O         14.7530   -3.9910   -3.4790 O.2   269  GLU269     -0.2864
     32  CB        16.8670   -1.7860   -2.4770 C.3   269  GLU269      0.0415
     33  CG        17.6590   -1.3200   -3.6910 C.3   269  GLU269      0.1163
     34  CD        19.1700   -1.3020   -3.5550 C.2   269  GLU269      0.3649
     35  OE1       19.7130   -2.0300   -2.6950 O.co2 269  GLU269     -0.2457
     36  OE2       19.8190   -0.5430   -4.3090 O.co2 269  GLU269     -0.2457
     37  N         23.5960   -2.1180    7.0100 N.3   280  PHE280     -0.1241
     38  CA        24.9230   -2.1950    7.6130 C.3   280  PHE280      0.1605
     39  C         25.1090   -0.8890    8.4010 C.2   280  PHE280      0.2264
     40  O         25.8010    0.0350    7.9680 O.2   280  PHE280     -0.2867
     41  CB        25.9930   -2.4260    6.5130 C.3   280  PHE280      0.0534
     42  CG        25.7480   -3.5780    5.5460 C.ar  280  PHE280     -0.0203
     43  CD1       25.0700   -4.7220    5.9520 C.ar  280  PHE280     -0.0042
     44  CD2       26.3040   -3.5690    4.2790 C.ar  280  PHE280     -0.0042
     45  CE1       24.8570   -5.7780    5.0700 C.ar  280  PHE280     -0.0003
     46  CE2       26.0800   -4.6220    3.3890 C.ar  280  PHE280     -0.0003
     47  CZ        25.3560   -5.7150    3.7920 C.ar  280  PHE280     -0.0000
     48  N         26.7240    2.2240    2.1190 N.3   296  GLN296     -0.1245
     49  CA        25.5440    1.3630    2.2720 C.3   296  GLN296      0.1566
     50  C         24.3620    1.9280    3.0660 C.2   296  GLN296      0.2260
     51  O         23.2530    1.9520    2.5380 O.2   296  GLN296     -0.2867
     52  CB        25.9190   -0.0430    2.7320 C.3   296  GLN296      0.0367
     53  CG        24.9400   -1.0910    2.2000 C.3   296  GLN296      0.0905
     54  CD        23.9170   -1.5510    3.2140 C.2   296  GLN296      0.2608
     55  OE1       23.9160   -1.1320    4.3810 O.2   296  GLN296     -0.2717
     56  NE2       23.0600   -2.4900    2.8020 N.am  296  GLN296     -0.0878
     57  N         23.3450    5.6730    1.5200 N.3   299  ILE299     -0.1231
     58  CA        22.6980    5.5030    0.2110 C.3   299  ILE299      0.1692
     59  C         21.2230    5.1080    0.3840 C.2   299  ILE299      0.2591
     60  O         20.3620    5.7530   -0.1940 O.2   299  ILE299     -0.2718
     61  CB        23.4860    4.5750   -0.7550 C.3   299  ILE299      0.0266
     62  CG1       24.8110    5.2150   -1.2220 C.3   299  ILE299      0.0019
     63  CG2       22.6460    4.1060   -1.9550 C.3   299  ILE299      0.0020
     64  CD1       25.9610    4.1800   -1.2960 C.3   299  ILE299      0.0001
     65  N         20.9450    4.1310    1.2630 N.am  300  ARG300     -0.1980
     66  CA        19.6020    3.6470    1.5790 C.3   300  ARG300      0.1597
     67  C         18.7630    4.7160    2.2220 C.2   300  ARG300      0.2287
     68  O         17.5850    4.8640    1.8830 O.2   300  ARG300     -0.2864
     69  CB        19.6380    2.3980    2.4870 C.3   300  ARG300      0.0334
     70  CG        18.3550    1.5470    2.3630 C.3   300  ARG300      0.0492
     71  CD        18.2820    0.8700    1.0020 C.3   300  ARG300      0.2205
     72  NE        16.9350    0.4760    0.6050 N.pl3 300  ARG300     -0.0865
     73  CZ        16.3610   -0.6710    0.9490 C.cat 300  ARG300      0.5346
     74  NH1       16.9930   -1.5260    1.7450 N.pl3 300  ARG300      0.1354
     75  NH2       15.1440   -0.9650    0.5150 N.pl3 300  ARG300      0.1354
     76  N         17.8740    7.0440   -0.7150 N.3   303  ILE303     -0.1245
     77  CA        16.9100    6.4680   -1.6500 C.3   303  ILE303      0.1561
     78  C         15.5710    6.1860   -1.0030 C.2   303  ILE303      0.2260
     79  O         14.5430    6.2940   -1.6740 O.2   303  ILE303     -0.2867
     80  CB        17.4680    5.3530   -2.5550 C.3   303  ILE303      0.0252
     81  CG1       17.7360    4.0420   -1.7720 C.3   303  ILE303      0.0019
     82  CG2       18.7240    5.8680   -3.3110 C.3   303  ILE303      0.0019
     83  CD1       17.7230    2.8290   -2.5950 C.3   303  ILE303      0.0001
     84  N         19.5200    5.0210   -8.2530 N.3   334  TYR334     -0.1241
     85  CA        20.8680    5.5710   -8.1740 C.3   334  TYR334      0.1605
     86  C         21.9070    4.7450   -8.9200 C.2   334  TYR334      0.2264
     87  O         21.6790    3.5660   -9.2320 O.2   334  TYR334     -0.2867
     88  CB        21.2830    5.7240   -6.6910 C.3   334  TYR334      0.0534
     89  CG        21.6470    4.4050   -6.0420 C.ar  334  TYR334     -0.0201
     90  CD1       20.6610    3.5530   -5.5520 C.ar  334  TYR334     -0.0009
     91  CD2       22.9750    3.9680   -5.9940 C.ar  334  TYR334     -0.0009
     92  CE1       20.9800    2.2940   -5.0480 C.ar  334  TYR334      0.0417
     93  CE2       23.3060    2.7130   -5.4880 C.ar  334  TYR334      0.0417
     94  CZ        22.3040    1.8800   -5.0090 C.ar  334  TYR334      0.1957
     95  OH        22.6070    0.6530   -4.4740 O.3   334  TYR334     -0.2866
     96  N         26.4470    4.0540   -8.9600 N.3   336  GLY336     -0.1210
     97  CA        27.6780    4.1570   -8.1930 C.3   336  GLY336      0.1956
     98  C         27.5180    3.8800   -6.7110 C.2   336  GLY336      0.2611
     99  O         26.4860    3.3600   -6.2670 O.2   336  GLY336     -0.2717
    100  N         28.5700    4.2430   -5.9450 N.am  337  TYR337     -0.1976
    101  CA        28.7450    4.0260   -4.5080 C.3   337  TYR337      0.1639
    102  C         29.8470    4.9500   -3.9980 C.2   337  TYR337      0.2290
    103  O         30.7730    5.2850   -4.7440 O.2   337  TYR337     -0.2864
    104  CB        29.1860    2.5760   -4.2920 C.3   337  TYR337      0.0560
    105  CG        29.1280    2.0780   -2.8660 C.ar  337  TYR337     -0.0198
    106  CD1       27.9630    1.5190   -2.3510 C.ar  337  TYR337     -0.0009
    107  CD2       30.2710    2.0420   -2.0720 C.ar  337  TYR337     -0.0009
    108  CE1       27.9210    0.9980   -1.0600 C.ar  337  TYR337      0.0417
    109  CE2       30.2400    1.5210   -0.7800 C.ar  337  TYR337      0.0417
    110  CZ        29.0650    0.9930   -0.2830 C.ar  337  TYR337      0.1957
    111  OH        29.0120    0.4850    0.9860 O.3   337  TYR337     -0.2866
    112  N         28.2390   -8.1600    2.9680 N.3   411  ASN411     -0.1240
    113  CA        29.4240   -7.8400    3.7870 C.3   411  ASN411      0.1653
    114  C         29.1350   -6.7090    4.7750 C.2   411  ASN411      0.2266
    115  O         29.2890   -5.5240    4.4560 O.2   411  ASN411     -0.2867
    116  CB        30.6510   -7.5500    2.9360 C.3   411  ASN411      0.1155
    117  CG        31.1430   -8.7690    2.2240 C.2   411  ASN411      0.2627
    118  OD1       31.3680   -9.8200    2.8390 O.2   411  ASN411     -0.2716
    119  ND2       31.2880   -8.6610    0.9060 N.am  411  ASN411     -0.0877
    120  N         32.3420   -4.2600    6.8920 N.3   414  CYS414     -0.1235
    121  CA        33.5980   -4.4850    6.1650 C.3   414  CYS414      0.1677
    122  C         33.9190   -3.3330    5.2080 C.2   414  CYS414      0.2270
    123  O         33.2590   -3.1490    4.1800 O.2   414  CYS414     -0.2867
    124  CB        33.6260   -5.8470    5.4630 C.3   414  CYS414      0.0956
    125  SG        33.2330   -7.2650    6.5370 S.3   414  CYS414     -0.0801
    126  N         28.7080   -8.5020   -3.6480 N.3   444  PHE444     -0.1227
    127  CA        29.0590   -7.2620   -4.3450 C.3   444  PHE444      0.1736
    128  C         30.2660   -7.3110   -5.2980 C.2   444  PHE444      0.2596
    129  O         31.2850   -6.6710   -5.0480 O.2   444  PHE444     -0.2718
    130  CB        29.1060   -6.0830   -3.3530 C.3   444  PHE444      0.0547
    131  CG        27.8890   -6.0390   -2.4420 C.ar  444  PHE444     -0.0202
    132  CD1       26.6030   -5.9050   -2.9700 C.ar  444  PHE444     -0.0042
    133  CD2       28.0280   -6.1440   -1.0620 C.ar  444  PHE444     -0.0042
    134  CE1       25.4860   -5.9040   -2.1370 C.ar  444  PHE444     -0.0003
    135  CE2       26.9020   -6.1120   -0.2290 C.ar  444  PHE444     -0.0003
    136  CZ        25.6420   -6.0140   -0.7760 C.ar  444  PHE444     -0.0000
    137  N         30.1240   -8.0650   -6.3860 N.am  445  GLY445     -0.1957
    138  CA        31.1540   -8.2000   -7.4080 C.3   445  GLY445      0.1869
    139  C         32.2200   -9.2410   -7.1240 C.2   445  GLY445      0.2309
    140  O         32.9100   -9.6830   -8.0540 O.2   445  GLY445     -0.2863
@<TRIPOS>BOND
     1    12    11    1
     2    11     9   ar
     3    11    10   ar
     4     9     7   ar
     5    10     8   ar
     6     7     6   ar
     7    87    86    2
     8    96    97    1
     9    86    85    1
    10     8     6   ar
    11     6     5    1
    12    84    85    1
    13    97    98    1
    14    85    88    1
    15   140   139    2
    16     4     3    2
    17     3     2    1
    18   138   139    1
    19   138   137    1
    20     5     2    1
    21    98    99    2
    22    98   100   am
    23    88    89    1
    24     2     1    1
    25   137   128   am
    26    89    91   ar
    27    89    90   ar
    28    91    93   ar
    29   100   101    1
    30    18    17    1
    31    13    14    1
    32    19    17    1
    33    90    92   ar
    34    93    94   ar
    35   128   129    2
    36   128   127    1
    37    92    94   ar
    38    94    95    1
    39    17    14    1
    40   103   102    2
    41    14    15    1
    42   101   104    1
    43   101   102    1
    44   127   126    1
    45   127   130    1
    46    36    34   ar
    47   104   105    1
    48    16    15    2
    49    33    34    1
    50    33    32    1
    51    15    20   am
    52    34    35   ar
    53    30    31    2
    54    30    29    1
    55   130   131    1
    56    82    80    1
    57   132   131   ar
    58   132   134   ar
    59   105   106   ar
    60   105   107   ar
    61    83    81    1
    62    80    81    1
    63    80    77    1
    64    32    29    1
    65   131   133   ar
    66   106   108   ar
    67    20    21    1
    68    29    28    1
    69   134   136   ar
    70   107   109   ar
    71    63    61    1
    72    28    22   am
    73    79    78    2
    74    77    78    1
    75    77    76    1
    76    22    23    2
    77    22    21    1
    78    64    62    1
    79    62    61    1
    80    21    24    1
    81   133   135   ar
    82   108   110   ar
    83   109   110   ar
    84   136   135   ar
    85    61    58    1
    86   110   111    1
    87    60    59    2
    88    24    25    1
    89    24    26    1
    90    58    59    1
    91    58    57    1
    92    59    65   am
    93    25    27    1
    94    75    73    1
    95    72    73    2
    96    72    71    1
    97   119   117   am
    98    73    74    1
    99    71    70    1
   100    65    66    1
   101    66    67    1
   102    66    69    1
   103    68    67    2
   104    48    49    1
   105    53    52    1
   106    53    54    1
   107   117   118    2
   108   117   116    1
   109    49    52    1
   110    49    50    1
   111    70    69    1
   112    51    50    2
   113    56    54   am
   114   116   113    1
   115   112   113    1
   116    54    55    2
   117    46    47   ar
   118    46    44   ar
   119   113   114    1
   120    47    45   ar
   121   123   122    2
   122    44    42   ar
   123   115   114    2
   124    45    43   ar
   125   122   121    1
   126   124   121    1
   127   124   125    1
   128    42    43   ar
   129    42    41    1
   130   121   120    1
   131    41    38    1
   132    37    38    1
   133    38    39    1
   134    40    39    2
