@<TRIPOS>MOLECULE
tmp/6hmtA01.pdb
 82 76 0 0 0
SMALL
GASTEIGER

@<TRIPOS>ATOM
      1  N         24.5650   20.7020   -3.4880 N.3    47  CYS47      -0.1235
      2  CA        23.5660   19.6630   -3.2760 C.3    47  CYS47       0.1677
      3  C         24.1210   18.2780   -3.5780 C.2    47  CYS47       0.2270
      4  O         23.8350   17.3250   -2.8430 O.2    47  CYS47      -0.2867
      5  CB        22.3160   19.9520   -4.1000 C.3    47  CYS47       0.0956
      6  SG        21.1170   20.9250   -3.1860 S.3    47  CYS47      -0.0801
      7  N         26.2820   17.2910   -0.6030 N.3    50  SER50      -0.1202
      8  CA        25.4900   17.0020    0.5870 C.3    50  SER50       0.2020
      9  C         24.7400   15.6880    0.4480 C.2    50  SER50       0.2618
     10  O         24.7090   14.8860    1.3870 O.2    50  SER50      -0.2717
     11  CB        24.5020   18.1360    0.8430 C.3    50  SER50       0.2103
     12  OG        23.5150   17.7440    1.7830 O.3    50  SER50      -0.2182
     13  N         24.1140   15.4630   -0.7080 N.am   51  VAL51      -0.1979
     14  CA        23.3370   14.2440   -0.9150 C.3    51  VAL51       0.1595
     15  C         24.2280   13.0170   -0.8020 C.2    51  VAL51       0.2287
     16  O         23.8670   12.0210   -0.1610 O.2    51  VAL51      -0.2864
     17  CB        22.6190   14.2980   -2.2750 C.3    51  VAL51       0.0276
     18  CG1       22.1530   12.8990   -2.6940 C.3    51  VAL51       0.0022
     19  CG2       21.4500   15.2750   -2.2340 C.3    51  VAL51       0.0022
     20  N         24.6590   27.0420    4.0770 N.3   124  PHE124     -0.1241
     21  CA        24.6020   25.6270    3.7270 C.3   124  PHE124      0.1605
     22  C         25.8050   24.8710    4.2800 C.2   124  PHE124      0.2264
     23  O         25.6510   23.7960    4.8690 O.2   124  PHE124     -0.2867
     24  CB        24.5230   25.5040    2.2050 C.3   124  PHE124      0.0534
     25  CG        24.1660   24.1290    1.7110 C.ar  124  PHE124     -0.0203
     26  CD1       25.1570   23.2240    1.3600 C.ar  124  PHE124     -0.0042
     27  CD2       22.8370   23.7490    1.5640 C.ar  124  PHE124     -0.0042
     28  CE1       24.8230   21.9570    0.8810 C.ar  124  PHE124     -0.0003
     29  CE2       22.5040   22.4830    1.0850 C.ar  124  PHE124     -0.0003
     30  CZ        23.5040   21.5960    0.7380 C.ar  124  PHE124     -0.0000
     31  N         25.6730   24.7320    8.1460 N.3   127  LYS127     -0.1245
     32  CA        24.7070   23.6970    8.5010 C.3   127  LYS127      0.1561
     33  C         25.3280   22.3080    8.3820 C.2   127  LYS127      0.2260
     34  O         25.1710   21.4680    9.2770 O.2   127  LYS127     -0.2867
     35  CB        23.4750   23.7950    7.6010 C.3   127  LYS127      0.0271
     36  CG        22.4780   22.6750    7.8370 C.3   127  LYS127      0.0035
     37  CD        21.3610   22.6840    6.8060 C.3   127  LYS127      0.0206
     38  CE        20.5760   21.3880    6.8240 C.3   127  LYS127      0.1093
     39  NZ        21.3960   20.2220    6.3590 N.3   127  LYS127     -0.1314
     40  N         14.4040   27.6770    1.6870 N.3   172  PRO172     -0.2102
     41  CA        14.5310   26.2630    2.0880 C.3   172  PRO172      0.1504
     42  C         15.7840   25.9370    2.8790 C.2   172  PRO172      0.2575
     43  O         15.7380   25.0460    3.7340 O.2   172  PRO172     -0.2718
     44  CB        14.4650   25.5140    0.7530 C.3   172  PRO172      0.0282
     45  CG        13.5810   26.3880   -0.0920 C.3   172  PRO172      0.0208
     46  CD        13.9930   27.8030    0.2740 C.3   172  PRO172      0.0893
     47  N         16.9040   26.6100    2.6140 N.am  173  ILE173     -0.1980
     48  CA        18.1140   26.3580    3.3910 C.3   173  ILE173      0.1595
     49  C         17.9390   26.8460    4.8230 C.2   173  ILE173      0.2287
     50  O         18.3150   26.1570    5.7780 O.2   173  ILE173     -0.2864
     51  CB        19.3340   26.9960    2.7050 C.3   173  ILE173      0.0276
     52  CG1       19.5650   26.3440    1.3400 C.3   173  ILE173      0.0022
     53  CG2       20.5750   26.8810    3.6000 C.3   173  ILE173      0.0022
     54  CD1       20.5910   27.0320    0.5050 C.3   173  ILE173      0.0001
     55  N         15.7050   24.2430    6.4380 N.3   176  GLY176     -0.1225
     56  CA        16.3730   22.9820    6.7190 C.3   176  GLY176      0.1811
     57  C         17.3880   23.0960    7.8400 C.2   176  GLY176      0.2280
     58  O         17.5490   22.1710    8.6440 O.2   176  GLY176     -0.2866
     59  N          7.3400   21.9630    1.6020 N.3   223  LEU223     -0.1231
     60  CA         7.9100   20.6350    1.8110 C.3   223  LEU223      0.1693
     61  C          8.7010   20.5810    3.1120 C.2   223  LEU223      0.2591
     62  O          8.5250   19.6650    3.9210 O.2   223  LEU223     -0.2718
     63  CB         8.7980   20.2700    0.6240 C.3   223  LEU223      0.0284
     64  CG         9.2950   18.8240    0.5700 C.3   223  LEU223      0.0019
     65  CD1        8.1610   17.8750    0.2200 C.3   223  LEU223      0.0001
     66  CD2       10.4280   18.6770   -0.4370 C.3   223  LEU223      0.0001
     67  N          9.5840   21.5580    3.3330 N.am  224  ILE224     -0.1980
     68  CA        10.3790   21.5660    4.5580 C.3   224  ILE224      0.1595
     69  C          9.5160   21.9410    5.7570 C.2   224  ILE224      0.2287
     70  O          9.7140   21.4250    6.8610 O.2   224  ILE224     -0.2864
     71  CB        11.6140   22.4760    4.4260 C.3   224  ILE224      0.0276
     72  CG1       12.3400   22.2750    3.0850 C.3   224  ILE224      0.0022
     73  CG2       12.5460   22.2710    5.6150 C.3   224  ILE224      0.0022
     74  CD1       12.8580   20.8730    2.8580 C.3   224  ILE224      0.0001
     75  N          8.0490   18.9320    7.2870 N.3   227  LEU227     -0.1245
     76  CA         8.9860   18.2010    8.1370 C.3   227  LEU227      0.1561
     77  C          9.0510   18.8060    9.5360 C.2   227  LEU227      0.2260
     78  O          9.1130   18.0760   10.5310 O.2   227  LEU227     -0.2867
     79  CB        10.3690   18.1670    7.4880 C.3   227  LEU227      0.0270
     80  CG        10.4310   17.5040    6.1060 C.3   227  LEU227      0.0019
     81  CD1       11.8260   17.6070    5.5420 C.3   227  LEU227      0.0001
     82  CD2        9.9460   16.0540    6.1300 C.3   227  LEU227      0.0001
@<TRIPOS>BOND
     1     5     2    1
     2     5     6    1
     3     3     2    1
     4     3     4    2
     5     1     2    1
     6    18    17    1
     7    17    19    1
     8    17    14    1
     9    14    15    1
    10    14    13    1
    11    15    16    2
    12    13     9   am
    13     7     8    1
    14    66    64    1
    15    45    46    1
    16    45    44    1
    17    65    64    1
    18    46    40    1
    19     9     8    1
    20     9    10    2
    21    54    52    1
    22    64    63    1
    23     8    11    1
    24    63    60    1
    25    30    28   ar
    26    30    29   ar
    27    44    41    1
    28    11    12    1
    29    28    26   ar
    30    29    27   ar
    31    52    51    1
    32    26    25   ar
    33    27    25   ar
    34    59    60    1
    35    40    41    1
    36    25    24    1
    37    60    61    1
    38    41    42    1
    39    24    21    1
    40    47    42   am
    41    47    48    1
    42    51    48    1
    43    51    53    1
    44    74    72    1
    45    42    43    2
    46    72    71    1
    47    61    67   am
    48    61    62    2
    49    67    68    1
    50    48    49    1
    51    21    20    1
    52    21    22    1
    53    22    23    2
    54    71    68    1
    55    71    73    1
    56    68    69    1
    57    49    50    2
    58    81    80    1
    59    69    70    2
    60    80    82    1
    61    80    79    1
    62    39    38    1
    63    55    56    1
    64    56    57    1
    65    37    38    1
    66    37    36    1
    67    75    76    1
    68    79    76    1
    69    35    36    1
    70    35    32    1
    71    57    58    2
    72    76    77    1
    73    31    32    1
    74    33    32    1
    75    33    34    2
    76    77    78    2
