@<TRIPOS>MOLECULE
tmp/6hmuA01.pdb
 93 86 0 0 0
SMALL
GASTEIGER

@<TRIPOS>ATOM
      1  N         24.5560   20.7610   -3.6450 N.3    47  ASN47      -0.1240
      2  CA        23.5100   19.7620   -3.4370 C.3    47  ASN47       0.1653
      3  C         24.0420   18.3540   -3.6610 C.2    47  ASN47       0.2266
      4  O         23.7370   17.4360   -2.8910 O.2    47  ASN47      -0.2867
      5  CB        22.3220   20.0310   -4.3640 C.3    47  ASN47       0.1155
      6  CG        21.2030   19.0160   -4.1850 C.2    47  ASN47       0.2627
      7  OD1       20.5070   19.0230   -3.1690 O.2    47  ASN47      -0.2716
      8  ND2       21.0290   18.1330   -5.1680 N.am   47  ASN47      -0.0877
      9  N         26.1260   17.3290   -0.7020 N.3    50  CYS50      -0.1221
     10  CA        25.2670   17.0630    0.4410 C.3    50  CYS50       0.1808
     11  C         24.5800   15.7120    0.3110 C.2    50  CYS50       0.2601
     12  O         24.5800   14.9140    1.2560 O.2    50  CYS50      -0.2717
     13  CB        24.2320   18.1810    0.5640 C.3    50  CYS50       0.0970
     14  SG        22.9890   17.8940    1.8380 S.3    50  CYS50      -0.0800
     15  N         23.9700   15.4500   -0.8480 N.am   51  VAL51      -0.1979
     16  CA        23.2270   14.2090   -1.0590 C.3    51  VAL51       0.1595
     17  C         24.1430   13.0050   -0.9180 C.2    51  VAL51       0.2287
     18  O         23.7860   11.9950   -0.2930 O.2    51  VAL51      -0.2864
     19  CB        22.5420   14.2370   -2.4390 C.3    51  VAL51       0.0276
     20  CG1       22.0820   12.8350   -2.8610 C.3    51  VAL51       0.0022
     21  CG2       21.3780   15.2240   -2.4430 C.3    51  VAL51       0.0022
     22  N         25.2110   12.5700    2.8090 N.3    54  LYS54      -0.1245
     23  CA        24.0290   12.2730    3.6170 C.3    54  LYS54       0.1561
     24  C         23.6450   10.8060    3.4930 C.2    54  LYS54       0.2260
     25  O         23.3150   10.1490    4.4890 O.2    54  LYS54      -0.2867
     26  CB        22.8640   13.1710    3.1880 C.3    54  LYS54       0.0271
     27  CG        21.5190   12.8510    3.8360 C.3    54  LYS54       0.0035
     28  CD        20.4890   13.9200    3.4710 C.3    54  LYS54       0.0206
     29  CE        19.1280   13.6300    4.0800 C.3    54  LYS54       0.1093
     30  NZ        19.1690   13.6370    5.5670 N.3    54  LYS54      -0.1314
     31  N         24.6350   27.0960    4.1290 N.3   124  PHE124     -0.1241
     32  CA        24.6260   25.6860    3.7520 C.3   124  PHE124      0.1605
     33  C         25.8210   24.9410    4.3450 C.2   124  PHE124      0.2264
     34  O         25.6660   23.8700    4.9420 O.2   124  PHE124     -0.2867
     35  CB        24.6370   25.6110    2.2250 C.3   124  PHE124      0.0534
     36  CG        24.4800   24.2310    1.6680 C.ar  124  PHE124     -0.0203
     37  CD1       25.5780   23.4150    1.4550 C.ar  124  PHE124     -0.0042
     38  CD2       23.2250   23.7750    1.2960 C.ar  124  PHE124     -0.0042
     39  CE1       25.4030   22.1410    0.8970 C.ar  124  PHE124     -0.0003
     40  CE2       23.0530   22.5200    0.7540 C.ar  124  PHE124     -0.0003
     41  CZ        24.1420   21.7060    0.5580 C.ar  124  PHE124     -0.0000
     42  N         25.6190   24.7760    8.2170 N.3   127  LYS127     -0.1245
     43  CA        24.6500   23.7420    8.5660 C.3   127  LYS127      0.1561
     44  C         25.2760   22.3570    8.4480 C.2   127  LYS127      0.2260
     45  O         25.1270   21.5180    9.3420 O.2   127  LYS127     -0.2867
     46  CB        23.4170   23.8390    7.6670 C.3   127  LYS127      0.0271
     47  CG        22.4490   22.6940    7.8670 C.3   127  LYS127      0.0035
     48  CD        21.3300   22.7500    6.8390 C.3   127  LYS127      0.0206
     49  CE        20.4610   21.4970    6.8790 C.3   127  LYS127      0.1093
     50  NZ        21.2070   20.2660    6.4440 N.3   127  LYS127     -0.1314
     51  N         14.4790   27.5500    1.7290 N.3   172  PRO172     -0.2102
     52  CA        14.6330   26.1390    2.1180 C.3   172  PRO172      0.1504
     53  C         15.8850   25.8310    2.9260 C.2   172  PRO172      0.2575
     54  O         15.8430   24.9360    3.7800 O.2   172  PRO172     -0.2718
     55  CB        14.5880   25.3940    0.7760 C.3   172  PRO172      0.0282
     56  CG        13.7180   26.2680   -0.0780 C.3   172  PRO172      0.0208
     57  CD        14.1160   27.6810    0.3020 C.3   172  PRO172      0.0893
     58  N         17.0000   26.5190    2.6740 N.am  173  ILE173     -0.1980
     59  CA        18.2000   26.2940    3.4770 C.3   173  ILE173      0.1595
     60  C         17.9650   26.7500    4.9100 C.2   173  ILE173      0.2287
     61  O         18.2990   26.0460    5.8690 O.2   173  ILE173     -0.2864
     62  CB        19.4180   26.9930    2.8480 C.3   173  ILE173      0.0276
     63  CG1       19.7050   26.4260    1.4560 C.3   173  ILE173      0.0022
     64  CG2       20.6500   26.8620    3.7510 C.3   173  ILE173      0.0022
     65  CD1       20.6980   27.2300    0.6950 C.3   173  ILE173      0.0001
     66  N         15.6540   24.1310    6.5010 N.3   176  GLY176     -0.1225
     67  CA        16.3100   22.8720    6.8160 C.3   176  GLY176      0.1811
     68  C         17.3170   23.0140    7.9390 C.2   176  GLY176      0.2280
     69  O         17.4590   22.1180    8.7760 O.2   176  GLY176     -0.2866
     70  N          7.2380   21.8270    1.7480 N.3   223  LEU223     -0.1231
     71  CA         7.7700   20.4890    1.9900 C.3   223  LEU223      0.1693
     72  C          8.5430   20.4400    3.3050 C.2   223  LEU223      0.2591
     73  O          8.3510   19.5340    4.1210 O.2   223  LEU223     -0.2718
     74  CB         8.6570   20.0610    0.8210 C.3   223  LEU223      0.0284
     75  CG         9.2430   18.6450    0.8400 C.3   223  LEU223      0.0019
     76  CD1        9.4610   18.1560   -0.5830 C.3   223  LEU223      0.0001
     77  CD2       10.5540   18.5580    1.6240 C.3   223  LEU223      0.0001
     78  N          9.4360   21.4060    3.5200 N.am  224  ILE224     -0.1980
     79  CA        10.2260   21.4010    4.7480 C.3   224  ILE224      0.1595
     80  C          9.3870   21.8370    5.9370 C.2   224  ILE224      0.2287
     81  O          9.5730   21.3370    7.0500 O.2   224  ILE224     -0.2864
     82  CB        11.5120   22.2290    4.5810 C.3   224  ILE224      0.0276
     83  CG1       12.3110   21.7220    3.3770 C.3   224  ILE224      0.0022
     84  CG2       12.3580   22.1510    5.8340 C.3   224  ILE224      0.0022
     85  CD1       13.5210   22.5660    3.0600 C.3   224  ILE224      0.0001
     86  N          7.9030   18.8660    7.4820 N.3   227  LEU227     -0.1245
     87  CA         8.8210   18.1400    8.3550 C.3   227  LEU227      0.1561
     88  C          8.8850   18.7660    9.7410 C.2   227  LEU227      0.2260
     89  O          8.9380   18.0470   10.7450 O.2   227  LEU227     -0.2867
     90  CB        10.2070   18.0730    7.7210 C.3   227  LEU227      0.0270
     91  CG        10.2500   17.3930    6.3530 C.3   227  LEU227      0.0019
     92  CD1       11.6430   17.4880    5.8060 C.3   227  LEU227      0.0001
     93  CD2        9.7700   15.9420    6.4250 C.3   227  LEU227      0.0001
@<TRIPOS>BOND
     1     8     6   am
     2     5     6    1
     3     5     2    1
     4     6     7    2
     5     3     2    1
     6     3     4    2
     7     1     2    1
     8    20    19    1
     9    21    19    1
    10    19    16    1
    11    16    17    1
    12    16    15    1
    13    17    18    2
    14    15    11   am
    15     9    10    1
    16    76    75    1
    17    56    57    1
    18    56    55    1
    19    57    51    1
    20    11    10    1
    21    11    12    2
    22    10    13    1
    23    41    40   ar
    24    41    39   ar
    25    13    14    1
    26    65    63    1
    27    40    38   ar
    28    55    52    1
    29    74    75    1
    30    74    71    1
    31    75    77    1
    32    39    37   ar
    33    38    36   ar
    34    37    36   ar
    35    63    62    1
    36    36    35    1
    37    51    52    1
    38    70    71    1
    39    71    72    1
    40    52    53    1
    41    35    32    1
    42    58    53   am
    43    58    59    1
    44    22    23    1
    45    62    59    1
    46    62    64    1
    47    53    54    2
    48    85    83    1
    49    26    23    1
    50    26    27    1
    51    72    78   am
    52    72    73    2
    53    83    82    1
    54    28    27    1
    55    28    29    1
    56    59    60    1
    57    24    23    1
    58    24    25    2
    59    78    79    1
    60    32    31    1
    61    32    33    1
    62    29    30    1
    63    33    34    2
    64    82    79    1
    65    82    84    1
    66    79    80    1
    67    60    61    2
    68    92    91    1
    69    80    81    2
    70    91    93    1
    71    91    90    1
    72    50    49    1
    73    66    67    1
    74    67    68    1
    75    48    49    1
    76    48    47    1
    77    86    87    1
    78    46    47    1
    79    46    43    1
    80    90    87    1
    81    68    69    2
    82    42    43    1
    83    87    88    1
    84    44    43    1
    85    44    45    2
    86    88    89    2
