@<TRIPOS>MOLECULE
tmp/6hmxA00.pdb
 167 156 0 0 0
SMALL
GASTEIGER

@<TRIPOS>ATOM
      1  N        -32.8750   40.4310   -5.9870 N.3    20  LEU20      -0.1231
      2  CA       -34.1930   41.0760   -5.9790 C.3    20  LEU20       0.1693
      3  C        -34.1810   42.2490   -4.9880 C.2    20  LEU20       0.2592
      4  O        -34.5140   43.3730   -5.3620 O.2    20  LEU20      -0.2718
      5  CB       -35.3320   40.1080   -5.6000 C.3    20  LEU20       0.0284
      6  CG       -35.9380   39.2100   -6.6670 C.3    20  LEU20       0.0019
      7  CD1      -37.0900   38.4170   -6.0740 C.3    20  LEU20       0.0001
      8  CD2      -36.4660   40.0040   -7.8510 C.3    20  LEU20       0.0001
      9  N        -33.8210   41.9700   -3.7200 N.am   21  SER21      -0.1952
     10  CA       -33.7970   42.9420   -2.6340 C.3    21  SER21       0.1924
     11  C        -32.8880   42.4870   -1.4880 C.2    21  SER21       0.2314
     12  O        -32.5230   41.3130   -1.4090 O.2    21  SER21      -0.2863
     13  CB       -35.2100   43.1810   -2.1040 C.3    21  SER21       0.2116
     14  OG       -35.6180   42.1620   -1.2030 O.3    21  SER21      -0.2180
     15  N        -32.8500   38.5640   -0.9060 N.3    28  VAL28      -0.1245
     16  CA       -33.8140   37.7800   -1.6580 C.3    28  VAL28       0.1561
     17  C        -33.3560   37.8080   -3.1240 C.2    28  VAL28       0.2260
     18  O        -33.0300   38.8640   -3.6670 O.2    28  VAL28      -0.2867
     19  CB       -35.3030   38.1920   -1.4670 C.3    28  VAL28       0.0252
     20  CG1      -36.2360   37.3280   -2.3260 C.3    28  VAL28       0.0019
     21  CG2      -35.7130   38.0950    0.0060 C.3    28  VAL28       0.0019
     22  N        -37.7280   31.5130   -5.2760 N.3    41  ALA41      -0.1231
     23  CA       -37.1750   32.6810   -4.6080 C.3    41  ALA41       0.1694
     24  C        -36.2860   32.1280   -3.5110 C.2    41  ALA41       0.2592
     25  O        -36.6290   31.1010   -2.9110 O.2    41  ALA41      -0.2718
     26  CB       -38.2810   33.5480   -4.0180 C.3    41  ALA41       0.0304
     27  N        -35.1210   32.7690   -3.2820 N.am   42  VAL42      -0.1966
     28  CA       -34.1300   32.3370   -2.2900 C.3    42  VAL42       0.1727
     29  C        -33.8000   33.4780   -1.3390 C.2    42  VAL42       0.2616
     30  O        -33.3550   34.5350   -1.7870 O.2    42  VAL42      -0.2715
     31  CB       -32.8250   31.7710   -2.9460 C.3    42  VAL42       0.0290
     32  CG1      -32.0300   30.9160   -1.9600 C.3    42  VAL42       0.0023
     33  CG2      -33.1270   30.9830   -4.2120 C.3    42  VAL42       0.0023
     34  N        -34.0010   33.2580   -0.0310 N.am   43  LYS43      -0.1977
     35  CA       -33.6500   34.2250    1.0060 C.3    43  LYS43       0.1596
     36  C        -32.3810   33.6930    1.6660 C.2    43  LYS43       0.2287
     37  O        -32.4220   32.6700    2.3460 O.2    43  LYS43      -0.2864
     38  CB       -34.7810   34.4480    2.0260 C.3    43  LYS43       0.0298
     39  CG       -34.4540   35.5330    3.0550 C.3    43  LYS43       0.0038
     40  CD       -35.3890   35.5200    4.2600 C.3    43  LYS43       0.0206
     41  CE       -36.3780   36.6480    4.1980 C.3    43  LYS43       0.1093
     42  NZ       -37.2830   36.6400    5.3700 N.3    43  LYS43      -0.1314
     43  N        -36.5710   30.0170   10.8010 N.3    57  GLU57      -0.1245
     44  CA       -37.5090   30.5320    9.8050 C.3    57  GLU57       0.1567
     45  C        -38.0520   29.4160    8.8790 C.2    57  GLU57       0.2260
     46  O        -39.2700   29.3370    8.6570 O.2    57  GLU57      -0.2867
     47  CB       -36.9040   31.6830    8.9970 C.3    57  GLU57       0.0388
     48  CG       -37.9390   32.2990    8.0650 C.3    57  GLU57       0.1160
     49  CD       -37.7070   33.6810    7.4980 C.2    57  GLU57       0.3649
     50  OE1      -36.5390   34.1250    7.4150 O.co2  57  GLU57      -0.2457
     51  OE2      -38.7120   34.3130    7.1020 O.co2  57  GLU57      -0.2457
     52  N        -41.9400   28.1810    8.5060 N.3    61  LEU61      -0.1245
     53  CA       -42.6020   28.1290    7.2010 C.3    61  LEU61       0.1561
     54  C        -43.1150   26.7150    6.8670 C.2    61  LEU61       0.2260
     55  O        -44.2240   26.5770    6.3550 O.2    61  LEU61      -0.2867
     56  CB       -41.6810   28.6270    6.0810 C.3    61  LEU61       0.0270
     57  CG       -41.5190   30.1410    5.9420 C.3    61  LEU61       0.0019
     58  CD1      -40.3410   30.4760    5.0280 C.3    61  LEU61       0.0001
     59  CD2      -42.8290   30.8270    5.4750 C.3    61  LEU61       0.0001
     60  N        -46.7450   31.8400    2.6870 N.3    70  LEU70      -0.1245
     61  CA       -45.7110   31.6400    1.6750 C.3    70  LEU70       0.1561
     62  C        -45.2390   30.1740    1.6520 C.2    70  LEU70       0.2260
     63  O        -44.7190   29.6810    2.6640 O.2    70  LEU70      -0.2867
     64  CB       -44.5130   32.5770    1.9070 C.3    70  LEU70       0.0270
     65  CG       -43.3310   32.4700    0.9110 C.3    70  LEU70       0.0019
     66  CD1      -43.7540   32.8540   -0.5490 C.3    70  LEU70       0.0001
     67  CD2      -42.1360   33.3130    1.4020 C.3    70  LEU70       0.0001
     68  N        -33.1940   29.8310    2.1810 N.3    84  ILE84      -0.1245
     69  CA       -34.5620   29.3250    2.1860 C.3    84  ILE84       0.1561
     70  C        -35.1480   29.4800    0.7840 C.2    84  ILE84       0.2260
     71  O        -35.2070   30.5990    0.2560 O.2    84  ILE84      -0.2867
     72  CB       -35.4420   30.0350    3.2640 C.3    84  ILE84       0.0252
     73  CG1      -34.9170   29.7510    4.6940 C.3    84  ILE84       0.0019
     74  CG2      -36.9290   29.6400    3.1310 C.3    84  ILE84       0.0019
     75  CD1      -35.4440   30.7400    5.7830 C.3    84  ILE84       0.0001
     76  N        -38.4020   29.2120   -1.6870 N.3    86  THR86      -0.1203
     77  CA       -39.8620   29.2770   -1.6620 C.3    86  THR86       0.1994
     78  C        -40.4140   29.4210   -3.0690 C.2    86  THR86       0.2618
     79  O        -39.6580   29.5800   -4.0240 O.2    86  THR86      -0.2717
     80  CB       -40.3600   30.4790   -0.7810 C.3    86  THR86       0.1784
     81  OG1      -40.1490   31.7140   -1.4690 O.3    86  THR86      -0.2211
     82  CG2      -39.7360   30.5190    0.6240 C.3    86  THR86       0.0376
     83  N        -41.7420   29.4430   -3.1910 N.am   87  GLU87      -0.1965
     84  CA       -42.3750   29.7240   -4.4790 C.3    87  GLU87       0.1733
     85  C        -42.0760   31.1840   -4.7820 C.2    87  GLU87       0.2616
     86  O        -41.8830   31.9780   -3.8590 O.2    87  GLU87      -0.2715
     87  CB       -43.9010   29.5240   -4.4130 C.3    87  GLU87       0.0429
     88  CG       -44.3190   28.0720   -4.3530 C.3    87  GLU87       0.1163
     89  CD       -45.8050   27.8040   -4.4410 C.2    87  GLU87       0.3649
     90  OE1      -46.1750   26.6070   -4.4130 O.co2  87  GLU87      -0.2457
     91  OE2      -46.5970   28.7740   -4.5030 O.co2  87  GLU87      -0.2457
     92  N        -41.9950   31.5230   -6.0570 N.am   88  TYR88      -0.1960
     93  CA       -41.7600   32.8870   -6.4860 C.3    88  TYR88       0.1771
     94  C        -43.0960   33.6230   -6.5320 C.2    88  TYR88       0.2619
     95  O        -44.0870   33.0870   -7.0370 O.2    88  TYR88      -0.2715
     96  CB       -41.0500   32.9040   -7.8430 C.3    88  TYR88       0.0574
     97  CG       -40.7810   34.2940   -8.3750 C.ar   88  TYR88      -0.0198
     98  CD1      -39.8420   35.1270   -7.7670 C.ar   88  TYR88      -0.0009
     99  CD2      -41.4350   34.7640   -9.5100 C.ar   88  TYR88      -0.0009
    100  CE1      -39.6030   36.4130   -8.2450 C.ar   88  TYR88       0.0417
    101  CE2      -41.1730   36.0360  -10.0190 C.ar   88  TYR88       0.0417
    102  CZ       -40.2780   36.8630   -9.3670 C.ar   88  TYR88       0.1957
    103  OH       -40.0650   38.1230   -9.8440 O.3    88  TYR88      -0.2866
    104  N        -43.1490   34.8170   -5.9430 N.am   89  MET89      -0.1964
    105  CA       -44.3740   35.6290   -5.9330 C.3    89  MET89       0.1722
    106  C        -44.2110   36.6860   -7.0350 C.2    89  MET89       0.2458
    107  O        -43.4620   37.6440   -6.8550 O.2    89  MET89      -0.2730
    108  CB       -44.6130   36.2290   -4.5410 C.3    89  MET89       0.0427
    109  CG       -44.8050   35.1670   -3.4710 C.3    89  MET89       0.0599
    110  SD       -46.3600   34.2630   -3.7000 S.3    89  MET89      -0.1393
    111  CE       -45.7970   32.6570   -3.8730 C.3    89  MET89       0.0692
    112  N        -44.7910   36.4750   -8.2350 N.am   90  PRO90      -0.2727
    113  CA       -44.4930   37.4100   -9.3490 C.3    90  PRO90       0.1402
    114  C        -44.9910   38.8330   -9.1600 C.2    90  PRO90       0.2269
    115  O        -44.4560   39.7360   -9.7890 O.2    90  PRO90      -0.2865
    116  CB       -45.1080   36.7410  -10.6010 C.3    90  PRO90       0.0296
    117  CG       -45.6560   35.4330  -10.1610 C.3    90  PRO90       0.0237
    118  CD       -45.6840   35.3700   -8.6590 C.3    90  PRO90       0.0939
    119  N        -44.9330   40.6790   -6.3540 N.3    92  GLY92      -0.1210
    120  CA       -44.2690   41.3550   -5.2510 C.3    92  GLY92       0.1956
    121  C        -45.0650   41.4700   -3.9710 C.2    92  GLY92       0.2612
    122  O        -45.6200   40.4830   -3.4860 O.2    92  GLY92      -0.2717
    123  N        -45.1150   42.6840   -3.4110 N.am   93  SER93      -0.1952
    124  CA       -45.7570   42.9550   -2.1330 C.3    93  SER93       0.1924
    125  C        -46.9730   43.8720   -2.2360 C.2    93  SER93       0.2314
    126  O        -47.1090   44.6450   -3.2000 O.2    93  SER93      -0.2863
    127  CB       -44.7380   43.5410   -1.1570 C.3    93  SER93       0.2116
    128  OG       -44.3590   44.8450   -1.5700 O.3    93  SER93      -0.2180
    129  N        -46.1090   47.5880   -2.6850 N.3    96  GLU96      -0.1245
    130  CA       -45.9150   47.9960   -4.0700 C.3    96  GLU96       0.1567
    131  C        -47.2570   48.2550   -4.7860 C.2    96  GLU96       0.2260
    132  O        -47.4290   49.2970   -5.4180 O.2    96  GLU96      -0.2867
    133  CB       -45.0510   46.9700   -4.8180 C.3    96  GLU96       0.0388
    134  CG       -43.6200   46.9340   -4.2900 C.3    96  GLU96       0.1160
    135  CD       -42.6830   45.8120   -4.7190 C.2    96  GLU96       0.3649
    136  OE1      -41.5140   45.8220   -4.2670 O.co2  96  GLU96      -0.2457
    137  OE2      -43.1200   44.8940   -5.4520 O.co2  96  GLU96      -0.2457
    138  N        -45.2550   45.2630    3.3830 N.3   141  GLN141     -0.1245
    139  CA       -44.0160   44.7880    2.7490 C.3   141  GLN141      0.1566
    140  C        -43.8710   43.2710    2.7730 C.2   141  GLN141      0.2260
    141  O        -43.2010   42.7380    1.8840 O.2   141  GLN141     -0.2867
    142  CB       -42.7580   45.4160    3.4000 C.3   141  GLN141      0.0367
    143  CG       -42.6350   46.9350    3.2430 C.3   141  GLN141      0.0905
    144  CD       -43.1940   47.7210    4.4170 C.2   141  GLN141      0.2608
    145  OE1      -44.3520   47.5570    4.8540 O.2   141  GLN141     -0.2717
    146  NE2      -42.3920   48.6530    4.9100 N.am  141  GLN141     -0.0878
    147  N        -47.1250   39.1340    0.4940 N.3   144  LEU144     -0.1245
    148  CA       -46.7330   38.8840   -0.8990 C.3   144  LEU144      0.1561
    149  C        -47.9230   38.4860   -1.7570 C.2   144  LEU144      0.2260
    150  O        -48.9400   37.9710   -1.2420 O.2   144  LEU144     -0.2867
    151  CB       -45.5700   37.8800   -0.9900 C.3   144  LEU144      0.0270
    152  CG       -44.3310   38.1820   -0.0740 C.3   144  LEU144      0.0019
    153  CD1      -43.3020   37.0940   -0.2060 C.3   144  LEU144      0.0001
    154  CD2      -43.6810   39.5880   -0.3680 C.3   144  LEU144      0.0001
    155  N        -45.4580   36.2600    4.5750 N.3   154  ALA154     -0.1231
    156  CA       -44.0520   35.9110    4.7560 C.3   154  ALA154      0.1694
    157  C        -43.5000   36.6020    6.0180 C.2   154  ALA154      0.2592
    158  O        -44.2520   37.2950    6.7090 O.2   154  ALA154     -0.2718
    159  CB       -43.2690   36.3330    3.5160 C.3   154  ALA154      0.0304
    160  N        -42.1850   36.4210    6.3030 N.am  155  ASP155     -0.1974
    161  CA       -41.4030   37.0010    7.4130 C.3   155  ASP155      0.1709
    162  C        -41.8070   36.5150    8.7750 C.2   155  ASP155      0.2293
    163  O        -42.5530   37.1620    9.5020 O.2   155  ASP155     -0.2864
    164  CB       -41.3960   38.5370    7.3930 C.3   155  ASP155      0.1436
    165  CG       -40.3950   39.1940    6.4720 C.2   155  ASP155      0.3671
    166  OD1      -39.9500   38.5240    5.4870 O.co2 155  ASP155     -0.2456
    167  OD2      -40.0770   40.3910    6.7080 O.co2 155  ASP155     -0.2456
@<TRIPOS>BOND
     1   116   117    1
     2   116   113    1
     3   117   118    1
     4   101    99   ar
     5   101   102   ar
     6   103   102    1
     7   115   114    2
     8    99    97   ar
     9   102   100   ar
    10   113   114    1
    11   113   112    1
    12   118   112    1
    13    97    96    1
    14    97    98   ar
    15   100    98   ar
    16   112   106   am
    17     8     6    1
    18    96    93    1
    19    95    94    2
    20   106   107    2
    21   106   105    1
    22     6     7    1
    23     6     5    1
    24    94    93    1
    25    94   104   am
    26    93    92    1
    27   119   120    1
    28    92    85   am
    29     1     2    1
    30     2     5    1
    31     2     3    1
    32   104   105    1
    33   105   108    1
    34   137   135   ar
    35   132   131    2
    36     4     3    2
    37    22    23    1
    38   120   121    1
    39     3     9   am
    40   133   134    1
    41   133   130    1
    42   131   130    1
    43    85    84    1
    44    85    86    2
    45   135   134    1
    46   135   136   ar
    47    23    26    1
    48    23    24    1
    49   108   109    1
    50    91    89   ar
    51    84    87    1
    52    84    83    1
    53    89    90   ar
    54    89    88    1
    55    87    88    1
    56    33    31    1
    57   130   129    1
    58    79    78    2
    59   121   122    2
    60   121   123   am
    61   111   110    1
    62     9    10    1
    63   110   109    1
    64    18    17    2
    65    24    27   am
    66    24    25    2
    67   123   124    1
    68    27    28    1
    69   126   125    2
    70    83    78   am
    71    17    16    1
    72    78    77    1
    73    31    28    1
    74    31    32    1
    75    10    13    1
    76    10    11    1
    77    20    19    1
    78    28    29    1
    79   125   124    1
    80   124   127    1
    81    13    14    1
    82    30    29    2
    83   149   150    2
    84   149   148    1
    85    76    77    1
    86    77    80    1
    87    16    19    1
    88    16    15    1
    89   128   127    1
    90    11    12    2
    91    81    80    1
    92    19    21    1
    93    29    34   am
    94   151   148    1
    95   151   152    1
    96   148   147    1
    97    80    82    1
    98    66    65    1
    99   154   152    1
   100   153   152    1
   101    34    35    1
   102    71    70    2
   103    70    69    1
   104    65    67    1
   105    65    64    1
   106    35    36    1
   107    35    38    1
   108    62    61    1
   109    62    63    2
   110    36    37    2
   111    61    64    1
   112    61    60    1
   113   141   140    2
   114    38    39    1
   115    68    69    1
   116    69    72    1
   117   139   140    1
   118   139   138    1
   119   139   142    1
   120    39    40    1
   121    74    72    1
   122   143   142    1
   123   143   144    1
   124    72    73    1
   125   159   156    1
   126    41    40    1
   127    41    42    1
   128   144   145    2
   129   144   146   am
   130   155   156    1
   131    73    75    1
   132   156   157    1
   133    58    57    1
   134    59    57    1
   135   166   165   ar
   136    57    56    1
   137   157   160   am
   138   157   158    2
   139    56    53    1
   140   160   161    1
   141    55    54    2
   142   165   167   ar
   143   165   164    1
   144    54    53    1
   145    51    49   ar
   146    53    52    1
   147   164   161    1
   148   161   162    1
   149    50    49   ar
   150    49    48    1
   151    48    47    1
   152    46    45    2
   153   162   163    2
   154    45    44    1
   155    47    44    1
   156    44    43    1
