@<TRIPOS>MOLECULE
tmp/6hmzA00.pdb
 185 177 0 0 0
SMALL
GASTEIGER

@<TRIPOS>ATOM
      1  N         27.5990    5.6700   21.3690 N.3    61  ARG61      -0.1245
      2  CA        28.9580    6.1230   21.0370 C.3    61  ARG61       0.1563
      3  C         29.1030    6.0570   19.5600 C.2    61  ARG61       0.2260
      4  O         29.0820    4.9480   18.9830 O.2    61  ARG61      -0.2867
      5  CB        29.9550    5.2360   21.7350 C.3    61  ARG61       0.0307
      6  CG        31.4340    5.4170   21.3380 C.3    61  ARG61       0.0489
      7  CD        32.2920    4.7240   22.3860 C.3    61  ARG61       0.2205
      8  NE        33.6970    4.7910   22.0500 N.pl3  61  ARG61      -0.0865
      9  CZ        34.3520    3.8890   21.3200 C.cat  61  ARG61       0.5346
     10  NH1       33.7590    2.7970   20.8300 N.pl3  61  ARG61       0.1354
     11  NH2       35.6300    4.0650   21.0890 N.pl3  61  ARG61       0.1354
     12  N         31.4390    7.5630   16.4160 N.3    63  ILE63      -0.1245
     13  CA        32.6800    8.1760   16.0090 C.3    63  ILE63       0.1561
     14  C         32.7420    8.2870   14.4670 C.2    63  ILE63       0.2260
     15  O         32.9940    7.2790   13.7460 O.2    63  ILE63      -0.2867
     16  CB        33.8880    7.4240   16.5490 C.3    63  ILE63       0.0252
     17  CG1       33.8290    7.3880   18.0970 C.3    63  ILE63       0.0019
     18  CG2       35.1670    8.0470   15.9870 C.3    63  ILE63       0.0019
     19  CD1       35.0210    6.7260   18.7780 C.3    63  ILE63       0.0001
     20  N         33.5800    8.3190   10.7140 N.3    65  GLY65      -0.1210
     21  CA        34.6350    7.6430   10.0180 C.3    65  GLY65       0.1956
     22  C         35.1440    6.3330   10.5900 C.2    65  GLY65       0.2612
     23  O         36.0170    5.7400    9.9970 O.2    65  GLY65      -0.2717
     24  N         34.6110    5.9090   11.7310 N.am   66  PHE66      -0.1962
     25  CA        34.9700    4.6670   12.4090 C.3    66  PHE66       0.1771
     26  C         33.7200    3.7300   12.5020 C.2    66  PHE66       0.2619
     27  O         33.6550    2.7080   11.7830 O.2    66  PHE66      -0.2715
     28  CB        35.5220    4.9930   13.8060 C.3    66  PHE66       0.0574
     29  CG        35.8510    3.7940   14.6560 C.ar   66  PHE66      -0.0200
     30  CD1       36.2090    2.5700   14.0870 C.ar   66  PHE66      -0.0042
     31  CD2       35.8110    3.9040   16.0600 C.ar   66  PHE66      -0.0042
     32  CE1       36.5170    1.4840   14.8910 C.ar   66  PHE66      -0.0003
     33  CE2       36.0720    2.8030   16.8680 C.ar   66  PHE66      -0.0003
     34  CZ        36.4350    1.6000   16.2840 C.ar   66  PHE66      -0.0000
     35  N         32.7550    4.0980   13.3550 N.am   67  MET67      -0.1977
     36  CA        31.5560    3.2680   13.5960 C.3    67  MET67       0.1605
     37  C         30.5480    3.9630   14.4580 C.2    67  MET67       0.2287
     38  O         30.8120    5.0380   15.0250 O.2    67  MET67      -0.2864
     39  CB        31.9350    1.9000   14.1880 C.3    67  MET67       0.0413
     40  CG        32.7050    1.9610   15.5140 C.3    67  MET67       0.0598
     41  SD        31.6620    2.1950   16.9710 S.3    67  MET67      -0.1393
     42  CE        32.3410    3.7310   17.6060 C.3    67  MET67       0.0692
     43  N         28.0780    2.6220   17.6190 N.3    69  GLN69      -0.1245
     44  CA        27.8900    1.6030   18.6660 C.3    69  GLN69       0.1566
     45  C         26.5900    1.7520   19.4150 C.2    69  GLN69       0.2260
     46  O         26.2680    2.8220   19.9250 O.2    69  GLN69      -0.2867
     47  CB        29.0310    1.7040   19.6760 C.3    69  GLN69       0.0367
     48  CG        29.0530    0.6910   20.7910 C.3    69  GLN69       0.0905
     49  CD        30.2780    0.8130   21.6780 C.2    69  GLN69       0.2608
     50  OE1       31.1820    1.5980   21.4260 O.2    69  GLN69      -0.2717
     51  NE2       30.3320   -0.0270   22.7080 N.am   69  GLN69      -0.0878
     52  N         24.7380    3.2420   28.3300 N.3    77  ASN77      -0.1225
     53  CA        26.0400    3.9450   28.3250 C.3    77  ASN77       0.1785
     54  C         27.2640    3.1720   27.9600 C.2    77  ASN77       0.2598
     55  O         28.3710    3.7370   27.9970 O.2    77  ASN77      -0.2718
     56  CB        26.3460    4.5660   29.6770 C.3    77  ASN77       0.1169
     57  CG        26.3780    3.5740   30.8160 C.2    77  ASN77       0.2627
     58  OD1       26.3210    2.3440   30.7090 O.2    77  ASN77      -0.2716
     59  ND2       26.4400    4.1410   31.9520 N.am   77  ASN77      -0.0877
     60  N         27.1130    1.8800   27.6740 N.am   78  GLY78      -0.1942
     61  CA        28.2680    1.0930   27.2760 C.3    78  GLY78       0.2014
     62  C         28.6650    0.1340   28.3270 C.2    78  GLY78       0.2640
     63  O         29.4450   -0.8030   28.0380 O.2    78  GLY78      -0.2714
     64  N         28.1350    0.3120   29.5400 N.am   79  THR79      -0.1936
     65  CA        28.4700   -0.6130   30.6290 C.3    79  THR79       0.2028
     66  C         27.5030   -1.7910   30.7500 C.2    79  THR79       0.2642
     67  O         27.8430   -2.7400   31.4000 O.2    79  THR79      -0.2714
     68  CB        28.5430    0.0990   31.9950 C.3    79  THR79       0.1808
     69  OG1       27.2650    0.7560   32.2990 O.3    79  THR79      -0.2208
     70  CG2       29.7490    1.0700   31.9880 C.3    79  THR79       0.0379
     71  N         26.3570   -1.7600   30.0830 N.am   80  GLY80      -0.1954
     72  CA        25.2970   -2.8040   30.2890 C.3    80  GLY80       0.1869
     73  C         25.0870   -3.7270   29.1080 C.2    80  GLY80       0.2309
     74  O         25.9670   -3.9230   28.3200 O.2    80  GLY80      -0.2863
     75  N         26.9540  -12.9640   29.1760 N.3    88  LYS88      -0.1245
     76  CA        27.8070  -12.9970   28.0470 C.3    88  LYS88       0.1561
     77  C         27.9400  -14.3810   27.4540 C.2    88  LYS88       0.2260
     78  O         27.8830  -15.3760   28.1710 O.2    88  LYS88      -0.2867
     79  CB        29.2270  -12.5020   28.3820 C.3    88  LYS88       0.0271
     80  CG        29.3540  -11.1550   29.0670 C.3    88  LYS88       0.0035
     81  CD        28.3800  -10.0940   28.5720 C.3    88  LYS88       0.0206
     82  CE        28.7480   -8.6960   29.0420 C.3    88  LYS88       0.1093
     83  NZ        28.2580   -8.4840   30.3760 N.3    88  LYS88      -0.1314
     84  N         30.5610   -5.7040   19.8070 N.3   107  ALA107     -0.1231
     85  CA        31.3720   -5.0120   20.8210 C.3   107  ALA107      0.1694
     86  C         31.5840   -6.0160   21.9570 C.2   107  ALA107      0.2592
     87  O         30.7460   -6.8700   22.2010 O.2   107  ALA107     -0.2718
     88  CB        30.6770   -3.7340   21.3100 C.3   107  ALA107      0.0304
     89  N         32.7330   -5.9460   22.6160 N.am  108  ASN108     -0.1960
     90  CA        32.9950   -6.7840   23.8130 C.3   108  ASN108      0.1819
     91  C         33.9440   -6.0550   24.8680 C.2   108  ASN108      0.2622
     92  O         34.2270   -4.8810   24.7210 O.2   108  ASN108     -0.2715
     93  CB        33.5590   -8.1410   23.3900 C.3   108  ASN108      0.1195
     94  CG        34.8530   -7.9890   22.6320 C.2   108  ASN108      0.2630
     95  OD1       35.6960   -7.1750   23.0180 O.2   108  ASN108     -0.2716
     96  ND2       34.9800   -8.6840   21.4800 N.am  108  ASN108     -0.0877
     97  N         34.3340   -6.7720   25.9390 N.am  109  SER109     -0.1936
     98  CA        35.3270   -6.3640   26.8890 C.3   109  SER109      0.2055
     99  C         36.4090   -7.4490   26.9800 C.2   109  SER109      0.2643
    100  O         36.8070   -7.7920   28.0700 O.2   109  SER109     -0.2714
    101  CB        34.6340   -6.1940   28.2510 C.3   109  SER109      0.2130
    102  OG        33.7040   -5.1400   28.1190 O.3   109  SER109     -0.2179
    103  N         36.8820   -7.9350   25.8490 N.am  110  GLY110     -0.1954
    104  CA        37.8090   -9.0770   25.7920 C.3   110  GLY110      0.1869
    105  C         37.1740  -10.3870   25.3200 C.2   110  GLY110      0.2309
    106  O         35.9430  -10.4590   25.0320 O.2   110  GLY110     -0.2863
    107  N         33.0170  -12.2940   25.7910 N.3   113  THR113     -0.1218
    108  CA        32.2560  -11.3410   26.5720 C.3   113  THR113      0.1862
    109  C         31.1460  -10.6840   25.7310 C.2   113  THR113      0.2287
    110  O         30.7910   -9.5130   25.9480 O.2   113  THR113     -0.2866
    111  CB        33.1910  -10.2700   27.2210 C.3   113  THR113      0.1770
    112  OG1       34.0270   -9.6450   26.2390 O.3   113  THR113     -0.2211
    113  CG2       34.0620  -10.8570   28.3290 C.3   113  THR113      0.0375
    114  N         25.8420   -5.6200   22.8100 N.3   117  GLN117     -0.1245
    115  CA        26.3660   -4.4190   22.1680 C.3   117  GLN117      0.1566
    116  C         27.0800   -4.8110   20.8930 C.2   117  GLN117      0.2260
    117  O         27.7990   -5.8460   20.8050 O.2   117  GLN117     -0.2867
    118  CB        27.2820   -3.5870   23.0700 C.3   117  GLN117      0.0367
    119  CG        26.5770   -2.9240   24.2390 C.3   117  GLN117      0.0905
    120  CD        27.4880   -2.0580   25.0170 C.2   117  GLN117      0.2608
    121  OE1       28.1930   -1.2200   24.4720 O.2   117  GLN117     -0.2717
    122  NE2       27.5080   -2.2530   26.2990 N.am  117  GLN117     -0.0878
    123  N         28.4890   -2.9050   16.8380 N.3   119  PHE119     -0.1241
    124  CA        28.7660   -1.7290   16.0540 C.3   119  PHE119      0.1605
    125  C         28.4980   -1.9220   14.5760 C.2   119  PHE119      0.2264
    126  O         28.6210   -3.0450   14.0660 O.2   119  PHE119     -0.2867
    127  CB        30.1690   -1.1460   16.3080 C.3   119  PHE119      0.0534
    128  CG        31.3130   -2.0870   16.0190 C.ar  119  PHE119     -0.0203
    129  CD1       31.6330   -3.1110   16.8930 C.ar  119  PHE119     -0.0042
    130  CD2       32.0840   -1.9160   14.9000 C.ar  119  PHE119     -0.0042
    131  CE1       32.7530   -3.9430   16.6590 C.ar  119  PHE119     -0.0003
    132  CE2       33.1870   -2.7460   14.6430 C.ar  119  PHE119     -0.0003
    133  CZ        33.5380   -3.7350   15.5610 C.ar  119  PHE119     -0.0000
    134  N         41.8360   -3.6920   11.8670 N.3   127  TRP127     -0.1227
    135  CA        42.6120   -3.8380   13.1360 C.3   127  TRP127      0.1737
    136  C         41.8290   -4.5690   14.2430 C.2   127  TRP127      0.2595
    137  O         42.4200   -5.0000   15.2290 O.2   127  TRP127     -0.2718
    138  CB        43.1460   -2.4360   13.6230 C.3   127  TRP127      0.0564
    139  CG        42.0830   -1.4460   13.8770 C.ar  127  TRP127      0.0003
    140  CD1       41.4820   -1.1960   15.0720 C.ar  127  TRP127      0.0946
    141  CD2       41.4960   -0.5520   12.9320 C.ar  127  TRP127      0.0152
    142  NE1       40.5090   -0.2610   14.9190 N.ar  127  TRP127     -0.2442
    143  CE2       40.5090    0.1810   13.6220 C.ar  127  TRP127      0.0810
    144  CE3       41.7220   -0.2820   11.5700 C.ar  127  TRP127      0.0012
    145  CZ2       39.7280    1.1760   13.0030 C.ar  127  TRP127      0.0191
    146  CZ3       40.9310    0.6760   10.9360 C.ar  127  TRP127      0.0001
    147  CH2       39.9450    1.3930   11.6520 C.ar  127  TRP127      0.0015
    148  N         40.5100   -4.7030   14.0700 N.am  128  LEU128     -0.1980
    149  CA        39.6460   -5.4380   14.9810 C.3   128  LEU128      0.1596
    150  C         39.4870   -6.8790   14.5810 C.2   128  LEU128      0.2287
    151  O         38.7910   -7.6310   15.2960 O.2   128  LEU128     -0.2864
    152  CB        38.2760   -4.7450   15.0680 C.3   128  LEU128      0.0297
    153  CG        38.3220   -3.2560   15.4450 C.3   128  LEU128      0.0022
    154  CD1       36.9390   -2.6170   15.4870 C.3   128  LEU128      0.0001
    155  CD2       39.0080   -3.0570   16.7820 C.3   128  LEU128      0.0001
    156  N         36.7500   -9.1890   17.3890 N.3   132  HIS132     -0.1241
    157  CA        35.3400   -8.9970   17.3950 C.3   132  HIS132      0.1621
    158  C         34.7110   -9.8310   16.3470 C.2   132  HIS132      0.2264
    159  O         35.1420   -9.8160   15.2180 O.2   132  HIS132     -0.2867
    160  CB        34.9920   -7.5490   17.1500 C.3   132  HIS132      0.0745
    161  CG        35.5900   -6.6520   18.1740 C.ar  132  HIS132      0.0817
    162  ND1       34.8640   -6.1590   19.2320 N.ar  132  HIS132     -0.2268
    163  CD2       36.8750   -6.2390   18.3620 C.ar  132  HIS132      0.1154
    164  CE1       35.6770   -5.4760   20.0260 C.ar  132  HIS132      0.1986
    165  NE2       36.9070   -5.5420   19.5430 N.ar  132  HIS132     -0.2212
    166  N         34.3440   13.0240   17.7930 N.3   154  GLU154     -0.1231
    167  CA        35.5720   12.2650   17.8130 C.3   154  GLU154      0.1699
    168  C         35.6970   11.3600   19.0410 C.2   154  GLU154      0.2592
    169  O         36.1340   10.2300   18.9400 O.2   154  GLU154     -0.2718
    170  CB        36.7530   13.1860   17.7450 C.3   154  GLU154      0.0402
    171  CG        37.9900   12.5200   17.2210 C.3   154  GLU154      0.1161
    172  CD        39.1750   13.3950   17.4980 C.2   154  GLU154      0.3649
    173  OE1       39.1910   14.5640   17.0340 O.co2 154  GLU154     -0.2457
    174  OE2       40.0630   12.9250   18.2280 O.co2 154  GLU154     -0.2457
    175  N         35.2880   11.8300   20.1940 N.am  155  ARG155     -0.1980
    176  CA        35.4070   11.0120   21.3830 C.3   155  ARG155      0.1597
    177  C         34.1350   10.1660   21.5420 C.2   155  ARG155      0.2287
    178  O         34.0900    9.3020   22.3730 O.2   155  ARG155     -0.2864
    179  CB        35.6830   11.8820   22.6030 C.3   155  ARG155      0.0334
    180  CG        34.4540   12.5940   23.1590 C.3   155  ARG155      0.0492
    181  CD        34.8380   13.8990   23.8510 C.3   155  ARG155      0.2205
    182  NE        33.7000   14.8090   23.9220 N.pl3 155  ARG155     -0.0865
    183  CZ        33.1580   15.4310   22.8700 C.cat 155  ARG155      0.5346
    184  NH1       33.6370   15.2490   21.6350 N.pl3 155  ARG155      0.1354
    185  NH2       32.1160   16.2330   23.0450 N.pl3 155  ARG155      0.1354
@<TRIPOS>BOND
     1    23    22    2
     2    21    22    1
     3    21    20    1
     4    22    24   am
     5   146   144   ar
     6   146   147   ar
     7   144   141   ar
     8   147   145   ar
     9    24    25    1
    10    27    26    2
    11   134   135    1
    12    25    26    1
    13    25    28    1
    14    26    35   am
    15   141   143   ar
    16   141   139   ar
    17   145   143   ar
    18   135   138    1
    19   135   136    1
    20    35    36    1
    21    36    39    1
    22    36    37    1
    23   143   142   ar
    24   138   139    1
    25    15    14    2
    26    28    29    1
    27   139   140   ar
    28   126   125    2
    29   148   136   am
    30   148   149    1
    31    30    29   ar
    32    30    32   ar
    33    39    40    1
    34   136   137    2
    35    37    38    2
    36    14    13    1
    37   125   124    1
    38   150   149    1
    39   150   151    2
    40   132   130   ar
    41   132   133   ar
    42    29    31   ar
    43    32    34   ar
    44   130   128   ar
    45   142   140   ar
    46   149   152    1
    47   152   153    1
    48   159   158    2
    49   153   154    1
    50   153   155    1
    51    40    41    1
    52   133   131   ar
    53    18    16    1
    54    13    12    1
    55    13    16    1
    56   128   127    1
    57   128   129   ar
    58   124   127    1
    59   124   123    1
    60    31    33   ar
    61    34    33   ar
    62   158   157    1
    63    16    17    1
    64   131   129   ar
    65    41    42    1
    66   173   172   ar
    67   160   157    1
    68   160   161    1
    69   171   172    1
    70   171   170    1
    71   156   157    1
    72   172   174   ar
    73    43    44    1
    74   170   167    1
    75   166   167    1
    76   167   168    1
    77    17    19    1
    78   161   163   ar
    79   161   162   ar
    80   163   165   ar
    81    44    45    1
    82    44    47    1
    83   169   168    2
    84     4     3    2
    85   168   175   am
    86   162   164   ar
    87    45    46    2
    88   165   164   ar
    89     3     2    1
    90    47    48    1
    91    84    85    1
    92   175   176    1
    93    48    49    1
    94   117   116    2
    95    85    88    1
    96    85    86    1
    97    10     9    1
    98   116   115    1
    99     2     1    1
   100     2     5    1
   101    11     9    1
   102     9     8    2
   103     6     5    1
   104     6     7    1
   105   176   177    1
   106   176   179    1
   107    50    49    2
   108    96    94   am
   109   177   178    2
   110   184   183    1
   111    49    51   am
   112    86    87    2
   113    86    89   am
   114     8     7    1
   115   115   114    1
   116   115   118    1
   117   179   180    1
   118    89    90    1
   119    94    95    2
   120    94    93    1
   121   183   185    1
   122   183   182    2
   123   118   119    1
   124   180   181    1
   125    93    90    1
   126    90    91    1
   127   181   182    1
   128   119   120    1
   129   121   120    2
   130    92    91    2
   131    91    97   am
   132   120   122   am
   133   106   105    2
   134   105   104    1
   135   109   110    2
   136   109   108    1
   137   107   108    1
   138   104   103    1
   139   103    99   am
   140    97    98    1
   141   112   111    1
   142   108   111    1
   143    98    99    1
   144    98   101    1
   145    99   100    2
   146   111   113    1
   147    61    60    1
   148    61    62    1
   149    77    76    1
   150    77    78    2
   151    60    54   am
   152    54    55    2
   153    54    53    1
   154    63    62    2
   155    76    79    1
   156    76    75    1
   157   102   101    1
   158    74    73    2
   159    53    52    1
   160    53    56    1
   161    62    64   am
   162    79    80    1
   163    81    82    1
   164    81    80    1
   165    82    83    1
   166    73    72    1
   167    64    65    1
   168    56    57    1
   169    71    72    1
   170    71    66   am
   171    65    66    1
   172    65    68    1
   173    58    57    2
   174    66    67    2
   175    57    59   am
   176    70    68    1
   177    68    69    1
