@<TRIPOS>MOLECULE
tmp/6hn2A01.pdb
 83 77 0 0 0
SMALL
GASTEIGER

@<TRIPOS>ATOM
      1  N         24.5730   20.7330   -3.5600 N.3    47  CYS47      -0.1235
      2  CA        23.5650   19.6980   -3.3710 C.3    47  CYS47       0.1677
      3  C         24.1430   18.3120   -3.6270 C.2    47  CYS47       0.2270
      4  O         23.8660   17.3760   -2.8700 O.2    47  CYS47      -0.2867
      5  CB        22.3690   19.9550   -4.2730 C.3    47  CYS47       0.0956
      6  SG        21.1430   20.9950   -3.4410 S.3    47  CYS47      -0.0801
      7  N         26.2530   17.2880   -0.6130 N.3    50  SER50      -0.1202
      8  CA        25.5010   16.9870    0.6020 C.3    50  SER50       0.2020
      9  C         24.6900   15.7060    0.4530 C.2    50  SER50       0.2618
     10  O         24.6350   14.8980    1.3880 O.2    50  SER50      -0.2717
     11  CB        24.5950   18.1610    0.9750 C.3    50  SER50       0.2103
     12  OG        23.5210   18.2890    0.0630 O.3    50  SER50      -0.2182
     13  N         24.0650   15.4960   -0.7110 N.am   51  VAL51      -0.1979
     14  CA        23.3010   14.2640   -0.9460 C.3    51  VAL51       0.1595
     15  C         24.2030   13.0450   -0.8170 C.2    51  VAL51       0.2287
     16  O         23.8430   12.0500   -0.1740 O.2    51  VAL51      -0.2864
     17  CB        22.6200   14.3060   -2.3250 C.3    51  VAL51       0.0276
     18  CG1       22.1190   12.9140   -2.7330 C.3    51  VAL51       0.0022
     19  CG2       21.4770   15.3220   -2.3190 C.3    51  VAL51       0.0022
     20  N         25.3340   12.5490    2.8400 N.3    54  LYS54      -0.1245
     21  CA        24.1800   12.2650    3.6930 C.3    54  LYS54       0.1561
     22  C         23.7640   10.8080    3.5670 C.2    54  LYS54       0.2260
     23  O         23.4400   10.1570    4.5680 O.2    54  LYS54      -0.2867
     24  CB        23.0100   13.1930    3.3390 C.3    54  LYS54       0.0271
     25  CG        21.7090   12.8970    4.0700 C.3    54  LYS54       0.0035
     26  CD        20.6210   13.9230    3.6860 C.3    54  LYS54       0.0206
     27  CE        19.2670   13.5840    4.3060 C.3    54  LYS54       0.1093
     28  NZ        19.3160   13.5770    5.7950 N.3    54  LYS54      -0.1314
     29  N         24.7450   27.0920    4.0480 N.3   124  PHE124     -0.1241
     30  CA        24.7310   25.6780    3.6690 C.3   124  PHE124      0.1605
     31  C         25.9110   24.9330    4.2830 C.2   124  PHE124      0.2264
     32  O         25.7380   23.8580    4.8780 O.2   124  PHE124     -0.2867
     33  CB        24.7580   25.5480    2.1430 C.3   124  PHE124      0.0534
     34  CG        24.4590   24.1600    1.6320 C.ar  124  PHE124     -0.0203
     35  CD1       25.4820   23.2410    1.4270 C.ar  124  PHE124     -0.0042
     36  CD2       23.1580   23.7890    1.3340 C.ar  124  PHE124     -0.0042
     37  CE1       25.2000   21.9610    0.9390 C.ar  124  PHE124     -0.0003
     38  CE2       22.8700   22.5240    0.8510 C.ar  124  PHE124     -0.0003
     39  CZ        23.8930   21.6140    0.6550 C.ar  124  PHE124     -0.0000
     40  N         25.6580   24.7250    8.1430 N.3   127  LYS127     -0.1245
     41  CA        24.7110   23.6700    8.4920 C.3   127  LYS127      0.1561
     42  C         25.3630   22.2950    8.3640 C.2   127  LYS127      0.2260
     43  O         25.2120   21.4430    9.2450 O.2   127  LYS127     -0.2867
     44  CB        23.4710   23.7490    7.5990 C.3   127  LYS127      0.0271
     45  CG        22.5120   22.5910    7.7870 C.3   127  LYS127      0.0035
     46  CD        21.3750   22.6920    6.7690 C.3   127  LYS127      0.0206
     47  CE        20.5190   21.4270    6.7870 C.3   127  LYS127      0.1093
     48  NZ        21.2730   20.2220    6.3010 N.3   127  LYS127     -0.1314
     49  N         14.4980   27.6680    1.6720 N.3   172  PRO172     -0.2102
     50  CA        14.5950   26.2490    2.0550 C.3   172  PRO172      0.1504
     51  C         15.8500   25.9090    2.8380 C.2   172  PRO172      0.2575
     52  O         15.8060   25.0150    3.6930 O.2   172  PRO172     -0.2718
     53  CB        14.5450   25.5190    0.7050 C.3   172  PRO172      0.0282
     54  CG        13.7340   26.4520   -0.1710 C.3   172  PRO172      0.0208
     55  CD        14.1790   27.8350    0.2450 C.3   172  PRO172      0.0893
     56  N         16.9670   26.5970    2.5890 N.am  173  ILE173     -0.1980
     57  CA        18.1720   26.3130    3.3620 C.3   173  ILE173      0.1595
     58  C         17.9950   26.7860    4.7970 C.2   173  ILE173      0.2287
     59  O         18.3870   26.1000    5.7470 O.2   173  ILE173     -0.2864
     60  CB        19.4070   26.9550    2.7040 C.3   173  ILE173      0.0276
     61  CG1       19.6970   26.2980    1.3520 C.3   173  ILE173      0.0022
     62  CG2       20.6300   26.8300    3.6210 C.3   173  ILE173      0.0022
     63  CD1       20.7420   27.0300    0.5490 C.3   173  ILE173      0.0001
     64  N         15.7180   24.2160    6.4200 N.3   176  GLY176     -0.1225
     65  CA        16.3800   22.9510    6.6900 C.3   176  GLY176      0.1811
     66  C         17.3860   23.0690    7.8120 C.2   176  GLY176      0.2280
     67  O         17.5590   22.1410    8.6110 O.2   176  GLY176     -0.2866
     68  N          7.3360   21.9260    1.6600 N.3   223  LEU223     -0.1231
     69  CA         7.8710   20.5810    1.8650 C.3   223  LEU223      0.1693
     70  C          8.6510   20.5030    3.1730 C.2   223  LEU223      0.2591
     71  O          8.4610   19.5800    3.9780 O.2   223  LEU223     -0.2718
     72  CB         8.7580   20.1860    0.6810 C.3   223  LEU223      0.0284
     73  CG         9.3430   18.7650    0.6650 C.3   223  LEU223      0.0019
     74  CD1        8.3320   17.7650    0.1380 C.3   223  LEU223      0.0001
     75  CD2       10.6190   18.7080   -0.1720 C.3   223  LEU223      0.0001
     76  N          9.5260   21.4740    3.4100 N.am  224  ILE224     -0.1980
     77  CA        10.3170   21.4360    4.6330 C.3   224  ILE224      0.1595
     78  C          9.4820   21.8670    5.8250 C.2   224  ILE224      0.2287
     79  O          9.7150   21.4050    6.9450 O.2   224  ILE224     -0.2864
     80  CB        11.5740   22.3010    4.4680 C.3   224  ILE224      0.0276
     81  CG1       12.3210   21.8680    3.2090 C.3   224  ILE224      0.0022
     82  CG2       12.4920   22.1880    5.6910 C.3   224  ILE224      0.0022
     83  CD1       13.2460   22.8910    2.7090 C.3   224  ILE224      0.0001
@<TRIPOS>BOND
     1     5     6    1
     2     5     2    1
     3     3     2    1
     4     3     4    2
     5     1     2    1
     6    18    17    1
     7    17    19    1
     8    17    14    1
     9    14    15    1
    10    14    13    1
    11    15    16    2
    12    13     9   am
    13     7     8    1
    14    75    73    1
    15    54    55    1
    16    54    53    1
    17    12    11    1
    18    74    73    1
    19    55    49    1
    20     9     8    1
    21     9    10    2
    22    63    61    1
    23     8    11    1
    24    39    38   ar
    25    39    37   ar
    26    73    72    1
    27    72    69    1
    28    53    50    1
    29    38    36   ar
    30    37    35   ar
    31    36    34   ar
    32    61    60    1
    33    35    34   ar
    34    34    33    1
    35    68    69    1
    36    49    50    1
    37    69    70    1
    38    50    51    1
    39    33    30    1
    40    56    51   am
    41    56    57    1
    42    60    57    1
    43    60    62    1
    44    83    81    1
    45    51    52    2
    46    20    21    1
    47    70    76   am
    48    70    71    2
    49    81    80    1
    50    24    21    1
    51    24    25    1
    52    57    58    1
    53    76    77    1
    54    22    21    1
    55    22    23    2
    56    30    29    1
    57    30    31    1
    58    26    25    1
    59    26    27    1
    60    31    32    2
    61    27    28    1
    62    80    77    1
    63    80    82    1
    64    77    78    1
    65    58    59    2
    66    78    79    2
    67    48    47    1
    68    64    65    1
    69    65    66    1
    70    46    47    1
    71    46    45    1
    72    44    45    1
    73    44    41    1
    74    66    67    2
    75    40    41    1
    76    42    41    1
    77    42    43    2
