@<TRIPOS>MOLECULE
tmp/6hn4B01.pdb
 114 109 0 0 0
SMALL
GASTEIGER

@<TRIPOS>ATOM
      1  N        121.7380  131.2830  180.1900 N.3   107  MET107     -0.1230
      2  CA       122.4380  131.2440  181.4690 C.3   107  MET107      0.1702
      3  C        123.9520  131.2220  181.3520 C.2   107  MET107      0.2592
      4  O        124.6330  131.7830  182.2140 O.2   107  MET107     -0.2718
      5  CB       121.9980  130.0270  182.2860 C.3   107  MET107      0.0401
      6  CG       120.5130  129.9560  182.4860 C.3   107  MET107      0.0596
      7  SD       119.9550  131.3920  183.4130 S.3   107  MET107     -0.1393
      8  CE       118.2040  131.0600  183.4970 C.3   107  MET107      0.0692
      9  N        124.5030  130.6010  180.3150 N.am  108  ASN108     -0.1960
     10  CA       125.9460  130.4540  180.2410 C.3   108  ASN108      0.1819
     11  C        126.3760  130.4720  178.7840 C.2   108  ASN108      0.2621
     12  O        125.7340  129.8680  177.9240 O.2   108  ASN108     -0.2715
     13  CB       126.4000  129.1650  180.9470 C.3   108  ASN108      0.1195
     14  CG       127.9260  129.0120  181.0250 C.2   108  ASN108      0.2630
     15  OD1      128.6940  129.8540  180.5560 O.2   108  ASN108     -0.2716
     16  ND2      128.3660  127.9270  181.6520 N.am  108  ASN108     -0.0877
     17  N        127.4690  131.1790  178.5330 N.am  109  ILE109     -0.1963
     18  CA       128.1940  131.1620  177.2700 C.3   109  ILE109      0.1727
     19  C        129.5570  130.5750  177.6010 C.2   109  ILE109      0.2616
     20  O        130.3880  131.2320  178.2390 O.2   109  ILE109     -0.2715
     21  CB       128.2990  132.5480  176.6310 C.3   109  ILE109      0.0290
     22  CG1      126.9120  133.0010  176.1880 C.3   109  ILE109      0.0022
     23  CG2      129.2210  132.5150  175.4370 C.3   109  ILE109      0.0023
     24  CD1      126.8600  134.4110  175.7020 C.3   109  ILE109      0.0001
     25  N        129.7760  129.3240  177.1910 N.am  110  THR110     -0.1951
     26  CA       130.9050  128.5430  177.6820 C.3   110  THR110      0.1897
     27  C        132.2450  129.0240  177.1420 C.2   110  THR110      0.2313
     28  O        133.2570  128.9230  177.8440 O.2   110  THR110     -0.2863
     29  CB       130.6990  127.0750  177.3100 C.3   110  THR110      0.1794
     30  OG1      129.3120  126.7410  177.4460 O.3   110  THR110     -0.2208
     31  CG2      131.5130  126.1690  178.2080 C.3   110  THR110      0.0378
     32  N        128.8020  139.1690  183.9210 N.3   131  SER131     -0.1202
     33  CA       129.7770  138.4070  184.7020 C.3   131  SER131      0.2020
     34  C        129.2130  137.1150  185.2850 C.2   131  SER131      0.2619
     35  O        129.9860  136.2340  185.6700 O.2   131  SER131     -0.2717
     36  CB       130.3260  139.2740  185.8320 C.3   131  SER131      0.2103
     37  OG       129.3140  139.5530  186.7830 O.3   131  SER131     -0.2182
     38  N        127.8940  136.9790  185.3480 N.am  132  ARG132     -0.1965
     39  CA       127.2280  135.7670  185.8010 C.3   132  ARG132      0.1729
     40  C        127.0370  134.7650  184.6760 C.2   132  ARG132      0.2616
     41  O        126.6990  133.6060  184.9410 O.2   132  ARG132     -0.2715
     42  CB       125.8760  136.0990  186.4450 C.3   132  ARG132      0.0348
     43  CG       125.9070  136.2330  187.9700 C.3   132  ARG132      0.0492
     44  CD       126.7410  137.4110  188.4490 C.3   132  ARG132      0.2205
     45  NE       126.6160  137.6250  189.8890 N.pl3 132  ARG132     -0.0865
     46  CZ       127.0380  138.7140  190.5250 C.cat 132  ARG132      0.5346
     47  NH1      127.5720  139.7180  189.8440 N.pl3 132  ARG132      0.1354
     48  NH2      126.8870  138.8190  191.8370 N.pl3 132  ARG132      0.1354
     49  N        127.2510  135.1930  183.4370 N.am  133  ILE133     -0.1963
     50  CA       126.9830  134.3910  182.2580 C.3   133  ILE133      0.1727
     51  C        128.2690  133.9430  181.5760 C.2   133  ILE133      0.2616
     52  O        128.3580  132.8110  181.0960 O.2   133  ILE133     -0.2715
     53  CB       126.0900  135.1920  181.2860 C.3   133  ILE133      0.0290
     54  CG1      124.7930  135.5900  181.9820 C.3   133  ILE133      0.0022
     55  CG2      125.7370  134.3780  180.0610 C.3   133  ILE133      0.0023
     56  CD1      123.9410  136.5380  181.1770 C.3   133  ILE133      0.0001
     57  N        129.2960  134.7850  181.5810 N.am  134  LEU134     -0.1963
     58  CA       130.5710  134.4640  180.9590 C.3   134  LEU134      0.1728
     59  C        131.6900  134.5340  181.9880 C.2   134  LEU134      0.2616
     60  O        131.6780  135.3900  182.8790 O.2   134  LEU134     -0.2715
     61  CB       130.8700  135.4170  179.8000 C.3   134  LEU134      0.0311
     62  CG       129.8940  135.4450  178.6210 C.3   134  LEU134      0.0022
     63  CD1      128.8040  136.4850  178.7840 C.3   134  LEU134      0.0001
     64  CD2      130.6560  135.7200  177.3590 C.3   134  LEU134      0.0001
     65  N        132.6420  133.6020  181.8630 N.am  135  ASP135     -0.1971
     66  CA       133.8330  133.6080  182.7100 C.3   135  ASP135      0.1709
     67  C        134.6850  134.8540  182.5110 C.2   135  ASP135      0.2293
     68  O        135.2460  135.3850  183.4760 O.2   135  ASP135     -0.2864
     69  CB       134.6730  132.3610  182.4380 C.3   135  ASP135      0.1436
     70  CG       134.0710  131.1060  183.0340 C.2   135  ASP135      0.3671
     71  OD1      133.2300  131.2180  183.9500 O.co2 135  ASP135     -0.2456
     72  OD2      134.4530  130.0030  182.5900 O.co2 135  ASP135     -0.2456
     73  N        126.4150  127.8190  190.6340 N.3   187  LYS187     -0.1231
     74  CA       126.9040  128.4920  189.4080 C.3   187  LYS187      0.1693
     75  C        126.8060  127.8750  188.0160 C.2   187  LYS187      0.2592
     76  O        125.9640  128.3750  187.2590 O.2   187  LYS187     -0.2718
     77  CB       128.3880  128.8640  189.5260 C.3   187  LYS187      0.0285
     78  CG       128.7490  129.8190  190.6130 C.3   187  LYS187      0.0035
     79  CD       130.2560  129.9780  190.7370 C.3   187  LYS187      0.0206
     80  CE       130.8740  130.5100  189.4560 C.3   187  LYS187      0.1093
     81  NZ       132.3600  130.5440  189.5360 N.3   187  LYS187     -0.1314
     82  N        127.5590  126.8460  187.6130 N.am  188  SER188     -0.1952
     83  CA       127.2540  126.5300  186.2270 C.3   188  SER188      0.1924
     84  C        126.1580  125.4880  186.0930 C.2   188  SER188      0.2314
     85  O        125.6610  125.2780  184.9820 O.2   188  SER188     -0.2863
     86  CB       128.5110  126.0380  185.5040 C.3   188  SER188      0.2116
     87  OG       129.6110  126.8900  185.7680 O.3   188  SER188     -0.2180
     88  N        123.6990  121.9230  182.8350 N.3   203  LEU203     -0.1245
     89  CA       124.2330  123.2350  182.4850 C.3   203  LEU203      0.1561
     90  C        123.0870  124.2140  182.2960 C.2   203  LEU203      0.2260
     91  O        122.2310  124.0130  181.4300 O.2   203  LEU203     -0.2867
     92  CB       125.0930  123.1690  181.2200 C.3   203  LEU203      0.0270
     93  CG       125.8140  124.4410  180.7720 C.3   203  LEU203      0.0019
     94  CD1      126.6930  124.9710  181.8760 C.3   203  LEU203      0.0001
     95  CD2      126.6610  124.1490  179.5580 C.3   203  LEU203      0.0001
     96  N        126.6070  119.9030  180.8940 N.3   219  ARG219     -0.1231
     97  CA       127.8750  120.5820  181.1290 C.3   219  ARG219      0.1694
     98  C        128.9730  120.0460  180.2270 C.2   219  ARG219      0.2592
     99  O        129.7520  120.8200  179.6580 O.2   219  ARG219     -0.2718
    100  CB       128.2880  120.4070  182.5880 C.3   219  ARG219      0.0321
    101  CG       129.6070  121.0650  182.9290 C.3   219  ARG219      0.0489
    102  CD       129.9980  120.8470  184.3780 C.3   219  ARG219      0.2205
    103  NE       131.0580  121.7620  184.7870 N.pl3 219  ARG219     -0.0865
    104  CZ       131.5090  121.8760  186.0310 C.cat 219  ARG219      0.5346
    105  NH1      130.9950  121.1280  186.9970 N.pl3 219  ARG219      0.1354
    106  NH2      132.4790  122.7350  186.3080 N.pl3 219  ARG219      0.1354
    107  N        129.0480  118.7250  180.0710 N.am  220  ASN220     -0.1974
    108  CA       130.1030  118.1320  179.2770 C.3   220  ASN220      0.1688
    109  C        129.5050  117.5990  177.9900 C.2   220  ASN220      0.2292
    110  O        129.4080  118.3470  176.9990 O.2   220  ASN220     -0.2864
    111  CB       130.8420  117.0660  180.0940 C.3   220  ASN220      0.1181
    112  CG       131.5740  117.6560  181.2750 C.2   220  ASN220      0.2629
    113  OD1      132.4120  118.5420  181.1160 O.2   220  ASN220     -0.2716
    114  ND2      131.2530  117.1790  182.4700 N.am  220  ASN220     -0.0877
@<TRIPOS>BOND
     1    23    21    1
     2    24    22    1
     3    22    21    1
     4    21    18    1
     5   110   109    2
     6    27    26    1
     7    27    28    2
     8    25    19   am
     9    25    26    1
    10    18    19    1
    11    18    17    1
    12    29    30    1
    13    29    26    1
    14    29    31    1
    15    64    62    1
    16    19    20    2
    17    12    11    2
    18   109   108    1
    19    17    11   am
    20    62    63    1
    21    62    61    1
    22    11    10    1
    23   108   107    1
    24   108   111    1
    25    95    93    1
    26    99    98    2
    27    61    58    1
    28    55    53    1
    29   107    98   am
    30   111   112    1
    31     1     2    1
    32    98    97    1
    33    10     9    1
    34    10    13    1
    35     9     3   am
    36    15    14    2
    37    93    92    1
    38    93    94    1
    39    96    97    1
    40    13    14    1
    41    58    57    1
    42    58    59    1
    43    14    16   am
    44    52    51    2
    45   113   112    2
    46    97   100    1
    47    56    54    1
    48    92    89    1
    49   112   114   am
    50    53    54    1
    51    53    50    1
    52     3     2    1
    53     3     4    2
    54    91    90    2
    55     2     5    1
    56    51    57   am
    57    51    50    1
    58    65    59   am
    59    65    66    1
    60    59    60    2
    61    50    49    1
    62     5     6    1
    63    90    89    1
    64    69    66    1
    65    69    70    1
    66    89    88    1
    67     6     7    1
    68    67    66    1
    69    67    68    2
    70   100   101    1
    71    72    70   ar
    72   101   102    1
    73    70    71   ar
    74     7     8    1
    75    49    40   am
    76    32    33    1
    77   102   103    1
    78    40    41    2
    79    40    39    1
    80    33    34    1
    81    33    36    1
    82   103   104    2
    83    85    84    2
    84    34    38   am
    85    34    35    2
    86    38    39    1
    87    86    87    1
    88    86    83    1
    89    39    42    1
    90    36    37    1
    91   104   106    1
    92   104   105    1
    93    84    83    1
    94    83    82    1
    95    42    43    1
    96    76    75    2
    97    82    75   am
    98    43    44    1
    99    75    74    1
   100    44    45    1
   101    74    77    1
   102    74    73    1
   103    80    81    1
   104    80    79    1
   105    77    78    1
   106    47    46    1
   107    45    46    2
   108    46    48    1
   109    78    79    1
