@<TRIPOS>MOLECULE
tmp/6hn4B04.pdb
 88 81 0 0 0
SMALL
GASTEIGER

@<TRIPOS>ATOM
      1  N        113.5790  129.8670  174.9150 N.3    75  ASN75      -0.1240
      2  CA       114.2450  128.8550  175.7170 C.3    75  ASN75       0.1653
      3  C        115.7220  128.6480  175.4050 C.2    75  ASN75       0.2266
      4  O        116.3050  127.6980  175.9400 O.2    75  ASN75      -0.2867
      5  CB       113.5080  127.5230  175.5670 C.3    75  ASN75       0.1155
      6  CG       112.0900  127.5900  176.0800 C.2    75  ASN75       0.2627
      7  OD1      111.8340  128.1160  177.1630 O.2    75  ASN75      -0.2716
      8  ND2      111.1540  127.0650  175.3000 N.am   75  ASN75      -0.0877
      9  N        116.2670  132.9330  179.1990 N.3   105  ASN105     -0.1240
     10  CA       116.7860  131.6410  179.6140 C.3   105  ASN105      0.1653
     11  C        118.2720  131.4640  179.3350 C.2   105  ASN105      0.2266
     12  O        118.8190  130.4120  179.6710 O.2   105  ASN105     -0.2867
     13  CB       116.0080  130.5190  178.9200 C.3   105  ASN105      0.1155
     14  CG       114.7850  130.0920  179.6910 C.2   105  ASN105      0.2627
     15  OD1      114.8870  129.5570  180.7940 O.2   105  ASN105     -0.2716
     16  ND2      113.6110  130.3180  179.1170 N.am  105  ASN105     -0.0877
     17  N        121.7380  131.2830  180.1900 N.3   107  MET107     -0.1245
     18  CA       122.4380  131.2440  181.4690 C.3   107  MET107      0.1570
     19  C        123.9520  131.2220  181.3520 C.2   107  MET107      0.2261
     20  O        124.6330  131.7830  182.2140 O.2   107  MET107     -0.2867
     21  CB       121.9980  130.0270  182.2860 C.3   107  MET107      0.0387
     22  CG       120.5130  129.9560  182.4860 C.3   107  MET107      0.0595
     23  SD       119.9550  131.3920  183.4130 S.3   107  MET107     -0.1393
     24  CE       118.2040  131.0600  183.4970 C.3   107  MET107      0.0692
     25  N        117.4140  135.3850  186.1380 N.3   180  LYS180     -0.1245
     26  CA       117.5290  134.3250  187.1300 C.3   180  LYS180      0.1561
     27  C        118.9110  134.3410  187.7720 C.2   180  LYS180      0.2260
     28  O        119.9270  134.4030  187.0740 O.2   180  LYS180     -0.2867
     29  CB       117.2290  132.9630  186.5090 C.3   180  LYS180      0.0271
     30  CG       115.7540  132.5810  186.5810 C.3   180  LYS180      0.0035
     31  CD       114.8830  133.2700  185.5420 C.3   180  LYS180      0.0206
     32  CE       114.7740  132.4490  184.2700 C.3   180  LYS180      0.1093
     33  NZ       113.8110  133.0650  183.3150 N.3   180  LYS180     -0.1314
     34  N        121.0320  132.1540  190.7710 N.3   182  CYS182     -0.1235
     35  CA       121.0780  130.9570  191.5870 C.3   182  CYS182      0.1677
     36  C        122.0340  131.1490  192.7670 C.2   182  CYS182      0.2270
     37  O        122.7900  132.1260  192.7900 O.2   182  CYS182     -0.2867
     38  CB       121.5360  129.7770  190.7120 C.3   182  CYS182      0.0956
     39  SG       120.3310  129.2870  189.4660 S.3   182  CYS182     -0.0801
     40  N        119.7200  126.1080  188.4100 N.3   191  CYS191     -0.1221
     41  CA       118.9260  125.7820  189.5870 C.3   191  CYS191      0.1808
     42  C        117.4550  125.8920  189.2190 C.2   191  CYS191      0.2602
     43  O        117.0920  126.5200  188.2230 O.2   191  CYS191     -0.2717
     44  CB       119.2040  126.7020  190.7790 C.3   191  CYS191      0.0970
     45  SG       118.8370  128.4430  190.5410 S.3   191  CYS191     -0.0800
     46  N        116.6110  125.2760  190.0430 N.am  192  THR192     -0.1939
     47  CA       115.1720  125.4020  189.8880 C.3   192  THR192      0.2028
     48  C        114.6960  126.7310  190.4800 C.2   192  THR192      0.2642
     49  O        115.4820  127.5080  191.0330 O.2   192  THR192     -0.2714
     50  CB       114.4750  124.1970  190.5100 C.3   192  THR192      0.1808
     51  OG1      113.0540  124.3340  190.3840 O.3   192  THR192     -0.2208
     52  CG2      114.8710  124.0550  191.9520 C.3   192  THR192      0.0379
     53  N        113.3950  127.0180  190.3100 N.am  193  ALA193     -0.1977
     54  CA       112.7950  128.2380  190.8590 C.3   193  ALA193      0.1597
     55  C        112.9300  128.3570  192.3770 C.2   193  ALA193      0.2287
     56  O        113.0940  129.4670  192.8940 O.2   193  ALA193     -0.2864
     57  CB       111.3220  128.3130  190.4600 C.3   193  ALA193      0.0319
     58  N        123.0790  125.2700  183.0990 N.3   204  GLY204     -0.1210
     59  CA       122.1130  126.3420  182.9680 C.3   204  GLY204      0.1956
     60  C        120.7570  126.1540  183.6180 C.2   204  GLY204      0.2612
     61  O        120.2990  127.0790  184.2980 O.2   204  GLY204     -0.2717
     62  N        120.1270  124.9870  183.4740 N.am  205  ASN205     -0.1960
     63  CA       118.7830  124.7800  184.0100 C.3   205  ASN205      0.1819
     64  C        118.4700  123.2870  183.9850 C.2   205  ASN205      0.2621
     65  O        119.1240  122.5100  183.2850 O.2   205  ASN205     -0.2715
     66  CB       117.7330  125.5770  183.2040 C.3   205  ASN205      0.1195
     67  CG       116.3590  125.5920  183.8580 C.2   205  ASN205      0.2630
     68  OD1      116.2460  125.4920  185.0780 O.2   205  ASN205     -0.2716
     69  ND2      115.3100  125.7360  183.0500 N.am  205  ASN205     -0.0877
     70  N        117.4820  122.8980  184.7890 N.am  206  CYS206     -0.1954
     71  CA       116.9910  121.5330  184.8830 C.3   206  CYS206      0.1843
     72  C        115.5290  121.6020  185.2890 C.2   206  CYS206      0.2626
     73  O        115.0540  122.6280  185.7810 O.2   206  CYS206     -0.2714
     74  CB       117.7660  120.6890  185.9040 C.3   206  CYS206      0.0997
     75  SG       117.6950  121.3680  187.5830 S.3   206  CYS206     -0.0797
     76  N        114.8110  120.5020  185.0820 N.am  207  SER207     -0.1950
     77  CA       113.4080  120.4770  185.4690 C.3   207  SER207      0.1924
     78  C        113.2220  119.9590  186.8880 C.2   207  SER207      0.2314
     79  O        112.2380  120.3120  187.5480 O.2   207  SER207     -0.2863
     80  CB       112.5850  119.6370  184.4880 C.3   207  SER207      0.2116
     81  OG       113.0230  118.2950  184.4640 O.3   207  SER207     -0.2180
     82  N        118.2450  120.6910  181.3250 N.3   216  VAL216     -0.1245
     83  CA       117.9250  121.4140  180.1020 C.3   216  VAL216      0.1561
     84  C        119.0950  121.3260  179.1270 C.2   216  VAL216      0.2260
     85  O        118.9020  121.1510  177.9190 O.2   216  VAL216     -0.2867
     86  CB       117.5200  122.8560  180.4510 C.3   216  VAL216      0.0252
     87  CG1      117.3160  123.6880  179.2170 C.3   216  VAL216      0.0019
     88  CG2      116.2330  122.8240  181.2640 C.3   216  VAL216      0.0019
@<TRIPOS>BOND
     1     1     2    1
     2     8     6   am
     3     3     2    1
     4     3     4    2
     5     5     2    1
     6     5     6    1
     7     6     7    2
     8    85    84    2
     9    13    10    1
    10    13    14    1
    11    16    14   am
    12    84    83    1
    13     9    10    1
    14    87    86    1
    15    11    10    1
    16    11    12    2
    17    14    15    2
    18    83    86    1
    19    83    82    1
    20    17    18    1
    21    86    88    1
    22    19    18    1
    23    19    20    2
    24    18    21    1
    25    21    22    1
    26    22    23    1
    27    59    58    1
    28    59    60    1
    29    69    67   am
    30    66    67    1
    31    66    63    1
    32    65    64    2
    33    33    32    1
    34    23    24    1
    35    62    60   am
    36    62    63    1
    37    60    61    2
    38    67    68    2
    39    64    63    1
    40    64    70   am
    41    32    31    1
    42    81    80    1
    43    80    77    1
    44    70    71    1
    45    71    72    1
    46    71    74    1
    47    76    72   am
    48    76    77    1
    49    72    73    2
    50    77    78    1
    51    31    30    1
    52    74    75    1
    53    25    26    1
    54    29    30    1
    55    29    26    1
    56    78    79    2
    57    28    27    2
    58    26    27    1
    59    43    42    2
    60    40    41    1
    61    42    41    1
    62    42    46   am
    63    39    45    1
    64    39    38    1
    65    41    44    1
    66    47    46    1
    67    47    48    1
    68    47    50    1
    69    53    48   am
    70    53    54    1
    71    51    50    1
    72    57    54    1
    73    48    49    2
    74    50    52    1
    75    45    44    1
    76    38    35    1
    77    34    35    1
    78    54    55    1
    79    35    36    1
    80    55    56    2
    81    36    37    2
