@<TRIPOS>MOLECULE
tmp/6hnbA00.pdb
 105 99 0 0 0
SMALL
GASTEIGER

@<TRIPOS>ATOM
      1  N         52.9580   61.1410   21.6070 N.3   159  GLU159     -0.1231
      2  CA        52.2430   62.4270   21.4340 C.3   159  GLU159      0.1699
      3  C         53.1710   63.4050   20.7210 C.2   159  GLU159      0.2592
      4  O         52.7050   64.2300   19.9160 O.2   159  GLU159     -0.2718
      5  CB        51.8130   62.7860   22.8610 C.3   159  GLU159      0.0402
      6  CG        51.6870   64.2280   23.1550 C.3   159  GLU159      0.1161
      7  CD        50.9770   64.5110   24.4590 C.2   159  GLU159      0.3649
      8  OE1       51.3590   63.9350   25.5270 O.co2 159  GLU159     -0.2457
      9  OE2       50.0730   65.3320   24.3970 O.co2 159  GLU159     -0.2457
     10  N         54.4480   63.3360   21.0580 N.am  160  TYR160     -0.1976
     11  CA        55.5490   64.0640   20.3980 C.3   160  TYR160      0.1639
     12  C         56.5260   63.0040   19.8850 C.2   160  TYR160      0.2290
     13  O         56.9430   62.1540   20.7200 O.2   160  TYR160     -0.2864
     14  CB        56.2780   64.9710   21.3890 C.3   160  TYR160      0.0560
     15  CG        55.4160   66.0460   21.9780 C.ar  160  TYR160     -0.0198
     16  CD1       55.2390   67.2390   21.2980 C.ar  160  TYR160     -0.0009
     17  CD2       54.7580   65.8680   23.1910 C.ar  160  TYR160     -0.0009
     18  CE1       54.4390   68.2460   21.8110 C.ar  160  TYR160      0.0417
     19  CE2       53.9610   66.8710   23.7130 C.ar  160  TYR160      0.0417
     20  CZ        53.7910   68.0640   23.0190 C.ar  160  TYR160      0.1957
     21  OH        53.0210   69.0850   23.5300 O.3   160  TYR160     -0.2866
     22  N         52.0370   61.5750   26.9700 N.3   181  MET181     -0.1230
     23  CA        53.3410   61.3940   27.6310 C.3   181  MET181      0.1702
     24  C         53.4080   62.3720   28.8090 C.2   181  MET181      0.2592
     25  O         52.6480   63.3600   28.7900 O.2   181  MET181     -0.2718
     26  CB        54.4880   61.6790   26.6570 C.3   181  MET181      0.0401
     27  CG        54.4320   60.8810   25.3680 C.3   181  MET181      0.0596
     28  SD        55.5800   61.5630   24.1350 S.3   181  MET181     -0.1393
     29  CE        57.1700   60.9880   24.7350 C.3   181  MET181      0.0692
     30  N         54.2640   62.0920   29.7920 N.am  182  ASP182     -0.1960
     31  CA        54.8040   63.0990   30.7420 C.3   182  ASP182      0.1840
     32  C         56.2800   63.2240   30.3850 C.2   182  ASP182      0.2621
     33  O         56.6380   62.8130   29.2510 O.2   182  ASP182     -0.2715
     34  CB        54.5020   62.7590   32.2070 C.3   182  ASP182      0.1450
     35  CG        55.1870   61.4940   32.6890 C.2   182  ASP182      0.3671
     36  OD1       56.0320   60.9740   31.9340 O.co2 182  ASP182     -0.2456
     37  OD2       54.7890   60.9800   33.7440 O.co2 182  ASP182     -0.2456
     38  N         57.1130   63.7990   31.2580 N.am  183  GLU183     -0.1977
     39  CA        58.5410   64.0250   30.9360 C.3   183  GLU183      0.1602
     40  C         59.3070   62.6940   30.8790 C.2   183  GLU183      0.2287
     41  O         60.4500   62.7050   30.3810 O.2   183  GLU183     -0.2864
     42  CB        59.1730   65.0240   31.9090 C.3   183  GLU183      0.0415
     43  CG        59.2510   64.5250   33.3340 C.3   183  GLU183      0.1163
     44  CD        58.1000   64.9010   34.2520 C.2   183  GLU183      0.3649
     45  OE1       56.9220   64.8080   33.8150 O.co2 183  GLU183     -0.2457
     46  OE2       58.3920   65.2730   35.4130 O.co2 183  GLU183     -0.2457
     47  N         61.6960   64.1060   23.0930 N.3   216  THR216     -0.1218
     48  CA        61.4900   64.4140   24.5310 C.3   216  THR216      0.1862
     49  C         62.7630   64.1280   25.3220 C.2   216  THR216      0.2287
     50  O         62.8950   64.6880   26.4280 O.2   216  THR216     -0.2866
     51  CB        60.3030   63.6660   25.1390 C.3   216  THR216      0.1770
     52  OG1       60.5370   62.2600   25.1050 O.3   216  THR216     -0.2211
     53  CG2       58.9940   64.0000   24.4570 C.3   216  THR216      0.0375
     54  N         64.3210   67.8690   32.6370 N.3   382  ASN382     -0.1240
     55  CA        64.5150   66.4440   33.0160 C.3   382  ASN382      0.1653
     56  C         65.8480   66.0020   32.4110 C.2   382  ASN382      0.2266
     57  O         65.9000   65.8130   31.2050 O.2   382  ASN382     -0.2867
     58  CB        63.3420   65.6250   32.4680 C.3   382  ASN382      0.1155
     59  CG        63.5250   64.1400   32.6760 C.2   382  ASN382      0.2627
     60  OD1       63.9690   63.7620   33.7550 O.2   382  ASN382     -0.2716
     61  ND2       63.2490   63.3180   31.6540 N.am  382  ASN382     -0.0877
     62  N         65.7900   68.5460   26.6420 N.3   391  THR391     -0.1218
     63  CA        64.6720   69.4830   26.5090 C.3   391  THR391      0.1862
     64  C         64.6990   70.5160   27.6340 C.2   391  THR391      0.2287
     65  O         65.1110   70.2170   28.7530 O.2   391  THR391     -0.2866
     66  CB        63.3240   68.7660   26.4270 C.3   391  THR391      0.1770
     67  OG1       63.1650   67.9580   27.5920 O.3   391  THR391     -0.2211
     68  CG2       63.1980   67.9410   25.1650 C.3   391  THR391      0.0375
     69  N         61.6160   72.8480   29.2760 N.3   393  THR393     -0.1218
     70  CA        60.1650   73.0950   29.3800 C.3   393  THR393      0.1862
     71  C         59.9620   74.4900   29.9610 C.2   393  THR393      0.2287
     72  O         60.7460   74.8850   30.8520 O.2   393  THR393     -0.2866
     73  CB        59.4710   72.0300   30.2260 C.3   393  THR393      0.1770
     74  OG1       59.5360   70.8390   29.4560 O.3   393  THR393     -0.2211
     75  CG2       58.0420   72.3720   30.5680 C.3   393  THR393      0.0375
     76  N         46.4540   73.5410   28.3710 N.3   446  LYS446     -0.1245
     77  CA        47.9000   73.1960   28.4640 C.3   446  LYS446      0.1561
     78  C         48.6960   74.5020   28.3590 C.2   446  LYS446      0.2260
     79  O         48.5190   75.2260   27.3520 O.2   446  LYS446     -0.2867
     80  CB        48.3090   72.2000   27.3680 C.3   446  LYS446      0.0271
     81  CG        49.6240   71.4720   27.6190 C.3   446  LYS446      0.0035
     82  CD        50.1470   70.6450   26.4450 C.3   446  LYS446      0.0206
     83  CE        51.5740   70.1400   26.6300 C.3   446  LYS446      0.1093
     84  NZ        51.6850   68.6830   26.9170 N.3   446  LYS446     -0.1314
     85  N         52.2680   74.6250   29.2170 N.3   448  HIS448     -0.1241
     86  CA        53.7320   74.3510   29.0890 C.3   448  HIS448      0.1621
     87  C         54.1120   74.1030   27.6290 C.2   448  HIS448      0.2264
     88  O         53.3480   73.4580   26.8870 O.2   448  HIS448     -0.2867
     89  CB        54.1610   73.1960   30.0100 C.3   448  HIS448      0.0745
     90  CG        54.0880   73.5730   31.4510 C.ar  448  HIS448      0.0817
     91  ND1       52.8810   73.5650   32.1430 N.ar  448  HIS448     -0.2268
     92  CD2       55.0330   74.0260   32.3070 C.ar  448  HIS448      0.1154
     93  CE1       53.0890   73.9870   33.3900 C.ar  448  HIS448      0.1986
     94  NE2       54.4240   74.2790   33.5160 N.ar  448  HIS448     -0.2212
     95  N         58.0120   73.3300   25.1800 N.3   450  PHE450     -0.1241
     96  CA        59.4040   72.8650   25.3280 C.3   450  PHE450      0.1605
     97  C         60.1490   73.0570   24.0140 C.2   450  PHE450      0.2264
     98  O         59.5140   73.3070   22.9610 O.2   450  PHE450     -0.2867
     99  CB        59.4650   71.4220   25.8420 C.3   450  PHE450      0.0534
    100  CG        59.0820   70.3530   24.8430 C.ar  450  PHE450     -0.0203
    101  CD1       57.7530   70.0800   24.5820 C.ar  450  PHE450     -0.0042
    102  CD2       60.0580   69.6170   24.1850 C.ar  450  PHE450     -0.0042
    103  CE1       57.4000   69.1240   23.6470 C.ar  450  PHE450     -0.0003
    104  CE2       59.7020   68.6530   23.2660 C.ar  450  PHE450     -0.0003
    105  CZ        58.3720   68.3840   23.0180 C.ar  450  PHE450     -0.0000
@<TRIPOS>BOND
     1    12    11    1
     2    12    13    2
     3     4     3    2
     4    11    10    1
     5    11    14    1
     6     3    10   am
     7     3     2    1
     8    16    18   ar
     9    16    15   ar
    10    14    15    1
    11     2     1    1
    12     2     5    1
    13    18    20   ar
    14    15    17   ar
    15     5     6    1
    16    98    97    2
    17   105   104   ar
    18   105   103   ar
    19    20    21    1
    20    20    19   ar
    21    47    48    1
    22     6     7    1
    23    17    19   ar
    24   104   102   ar
    25   103   101   ar
    26    97    96    1
    27    28    29    1
    28    28    27    1
    29   102   100   ar
    30     9     7   ar
    31    53    51    1
    32     7     8   ar
    33    48    51    1
    34    48    49    1
    35   101   100   ar
    36   100    99    1
    37    52    51    1
    38    68    66    1
    39    95    96    1
    40    49    50    2
    41    96    99    1
    42    27    26    1
    43    66    63    1
    44    66    67    1
    45    82    83    1
    46    82    81    1
    47    63    62    1
    48    63    64    1
    49    83    84    1
    50    26    23    1
    51    88    87    2
    52    22    23    1
    53    79    78    2
    54    80    81    1
    55    80    77    1
    56    87    86    1
    57    23    24    1
    58    64    65    2
    59    78    77    1
    60    76    77    1
    61    25    24    2
    62    24    30   am
    63    86    85    1
    64    86    89    1
    65    33    32    2
    66    69    70    1
    67    70    71    1
    68    70    73    1
    69    74    73    1
    70    30    31    1
    71    71    72    2
    72    89    90    1
    73    73    75    1
    74    41    40    2
    75    32    31    1
    76    32    38   am
    77    31    34    1
    78    40    39    1
    79    39    38    1
    80    39    42    1
    81    57    56    2
    82    90    91   ar
    83    90    92   ar
    84    61    59   am
    85    42    43    1
    86    36    35   ar
    87    91    93   ar
    88    34    35    1
    89    92    94   ar
    90    56    55    1
    91    58    59    1
    92    58    55    1
    93    54    55    1
    94    59    60    2
    95    35    37   ar
    96    43    44    1
    97    93    94   ar
    98    45    44   ar
    99    44    46   ar
