@<TRIPOS>MOLECULE
tmp/6hndB00.pdb
 128 121 0 0 0
SMALL
GASTEIGER

@<TRIPOS>ATOM
      1  N         67.0760   44.4910    9.1710 N.3   124  GLY124     -0.1210
      2  CA        67.1160   45.2840   10.4150 C.3   124  GLY124      0.1956
      3  C         65.9140   45.0410   11.2980 C.2   124  GLY124      0.2612
      4  O         65.0920   44.1770   10.9840 O.2   124  GLY124     -0.2717
      5  N         65.7860   45.8090   12.3650 N.am  125  ALA125     -0.1965
      6  CA        64.7090   45.6420   13.3540 C.3   125  ALA125      0.1728
      7  C         63.3420   45.9540   12.7260 C.2   125  ALA125      0.2616
      8  O         62.4090   45.1440   12.9000 O.2   125  ALA125     -0.2715
      9  CB        64.9900   46.5020   14.5510 C.3   125  ALA125      0.0334
     10  N         63.2300   47.0790   12.0280 N.am  126  SER126     -0.1950
     11  CA        61.9890   47.5540   11.3730 C.3   126  SER126      0.1924
     12  C         61.5190   46.5350   10.3230 C.2   126  SER126      0.2314
     13  O         60.3070   46.2430   10.2490 O.2   126  SER126     -0.2863
     14  CB        62.2080   48.9310   10.8000 C.3   126  SER126      0.2116
     15  OG        62.5710   49.8430   11.8330 O.3   126  SER126     -0.2180
     16  N         60.1280   43.6340   12.4540 N.3   129  LEU129     -0.1245
     17  CA        58.8210   44.0750   13.0130 C.3   129  LEU129      0.1561
     18  C         57.7080   44.0350   11.9550 C.2   129  LEU129      0.2260
     19  O         56.5570   43.7070   12.2950 O.2   129  LEU129     -0.2867
     20  CB        58.9720   45.4940   13.5630 C.3   129  LEU129      0.0270
     21  CG        59.8730   45.6430   14.7880 C.3   129  LEU129      0.0019
     22  CD1       60.0270   47.1140   15.1280 C.3   129  LEU129      0.0001
     23  CD2       59.3250   44.8490   15.9640 C.3   129  LEU129      0.0001
     24  N         58.1450   52.6610   19.7800 N.3   150  PHE150     -0.1241
     25  CA        58.8140   52.8520   18.4780 C.3   150  PHE150      0.1605
     26  C         57.7170   53.0670   17.4310 C.2   150  PHE150      0.2264
     27  O         57.1940   52.0950   16.8660 O.2   150  PHE150     -0.2867
     28  CB        59.7530   51.6710   18.2310 C.3   150  PHE150      0.0534
     29  CG        60.5590   51.7880   16.9700 C.ar  150  PHE150     -0.0203
     30  CD1       61.4870   52.8000   16.8340 C.ar  150  PHE150     -0.0042
     31  CD2       60.3720   50.9040   15.9210 C.ar  150  PHE150     -0.0042
     32  CE1       62.2160   52.9200   15.6640 C.ar  150  PHE150     -0.0003
     33  CE2       61.1060   51.0280   14.7530 C.ar  150  PHE150     -0.0003
     34  CZ        62.0320   52.0350   14.6320 C.ar  150  PHE150     -0.0000
     35  N         58.9540   46.2410   23.7780 N.3   206  ILE206     -0.1245
     36  CA        60.4060   46.5200   23.8140 C.3   206  ILE206      0.1561
     37  C         60.8150   46.3340   25.2820 C.2   206  ILE206      0.2260
     38  O         60.9030   47.3540   26.0360 O.2   206  ILE206     -0.2867
     39  CB        60.6590   47.9320   23.2360 C.3   206  ILE206      0.0252
     40  CG1       59.9220   48.1330   21.9110 C.3   206  ILE206      0.0019
     41  CG2       62.1560   48.2010   23.0950 C.3   206  ILE206      0.0019
     42  CD1       59.5940   49.5660   21.5790 C.3   206  ILE206      0.0001
     43  N         61.8890   51.6520   24.3000 N.3   211  ASN211     -0.1240
     44  CA        61.9340   52.9170   23.5310 C.3   211  ASN211      0.1653
     45  C         60.5390   53.5340   23.5190 C.2   211  ASN211      0.2266
     46  O         59.6510   52.9820   22.8940 O.2   211  ASN211     -0.2867
     47  CB        62.4780   52.6770   22.1380 C.3   211  ASN211      0.1155
     48  CG        62.5680   53.9500   21.3410 C.2   211  ASN211      0.2627
     49  OD1       62.2130   54.9990   21.8710 O.2   211  ASN211     -0.2716
     50  ND2       63.0270   53.8630   20.0960 N.am  211  ASN211     -0.0877
     51  N         60.9660   43.0030   20.7380 N.3   239  ASP239     -0.1239
     52  CA        61.9620   43.8190   20.0080 C.3   239  ASP239      0.1674
     53  C         63.0890   44.0730   21.0080 C.2   239  ASP239      0.2266
     54  O         62.7640   44.5100   22.0930 O.2   239  ASP239     -0.2867
     55  CB        61.2710   45.0600   19.4320 C.3   239  ASP239      0.1410
     56  CG        62.1080   45.9660   18.5380 C.2   239  ASP239      0.3668
     57  OD1       63.2780   45.6210   18.2310 O.co2 239  ASP239     -0.2456
     58  OD2       61.5600   47.0130   18.1390 O.co2 239  ASP239     -0.2456
     59  N         66.7280   45.6480   20.2680 N.3   241  PRO241     -0.2102
     60  CA        67.8980   46.1950   19.5870 C.3   241  PRO241      0.1504
     61  C         69.1370   46.5210   20.4460 C.2   241  PRO241      0.2575
     62  O         70.2100   46.5370   19.8850 O.2   241  PRO241     -0.2718
     63  CB        67.3340   47.4520   18.9220 C.3   241  PRO241      0.0282
     64  CG        66.1880   47.8540   19.8250 C.3   241  PRO241      0.0208
     65  CD        65.5850   46.5630   20.3110 C.3   241  PRO241      0.0893
     66  N         69.0200   46.7020   21.7580 N.am  242  TYR242     -0.1977
     67  CA        70.1870   47.0800   22.6180 C.3   242  TYR242      0.1639
     68  C         70.0780   46.5070   24.0400 C.2   242  TYR242      0.2290
     69  O         70.7360   47.0670   24.9380 O.2   242  TYR242     -0.2864
     70  CB        70.3370   48.6080   22.6780 C.3   242  TYR242      0.0560
     71  CG        69.0110   49.3090   22.5770 C.ar  242  TYR242     -0.0198
     72  CD1       67.9750   48.9080   23.3910 C.ar  242  TYR242     -0.0009
     73  CD2       68.7710   50.2850   21.6220 C.ar  242  TYR242     -0.0009
     74  CE1       66.7250   49.4720   23.2730 C.ar  242  TYR242      0.0417
     75  CE2       67.5120   50.8420   21.4720 C.ar  242  TYR242      0.0417
     76  CZ        66.4850   50.4170   22.2990 C.ar  242  TYR242      0.1957
     77  OH        65.2260   50.9390   22.2390 O.3   242  TYR242     -0.2866
     78  N         68.6800   43.1350   15.5880 N.3   284  THR284     -0.1218
     79  CA        69.3350   43.9710   14.5470 C.3   284  THR284      0.1862
     80  C         70.8440   44.0760   14.8350 C.2   284  THR284      0.2287
     81  O         71.2550   43.9370   16.0220 O.2   284  THR284     -0.2866
     82  CB        68.6540   45.3450   14.4450 C.3   284  THR284      0.1770
     83  OG1       69.2130   46.1640   13.4100 O.3   284  THR284     -0.2211
     84  CG2       68.7360   46.1080   15.7450 C.3   284  THR284      0.0375
     85  N         72.0630   46.9660   13.8910 N.3   286  SER286     -0.1202
     86  CA        72.0440   48.4470   13.7640 C.3   286  SER286      0.2020
     87  C         72.7820   49.1020   14.9340 C.2   286  SER286      0.2618
     88  O         73.6120   49.9870   14.7300 O.2   286  SER286     -0.2717
     89  CB        70.6400   48.9710   13.6120 C.3   286  SER286      0.2103
     90  OG        70.1290   48.7020   12.3050 O.3   286  SER286     -0.2182
     91  N         72.4720   48.6820   16.1610 N.am  287  LYS287     -0.1975
     92  CA        72.8930   49.4390   17.3370 C.3   287  LYS287      0.1639
     93  C         74.1620   48.8070   17.9400 C.2   287  LYS287      0.2290
     94  O         74.8890   49.4940   18.6570 O.2   287  LYS287     -0.2864
     95  CB        71.6870   49.6870   18.2740 C.3   287  LYS287      0.0554
     96  CG        70.3860   50.1210   17.5760 C.2   287  LYS287     -0.0270
     97  CD        69.8870   51.5410   17.8490 C.2   287  LYS287     -0.0102
     98  CE        68.7570   52.0580   16.9340 C.3   287  LYS287      0.1350
     99  NZ        67.5410   51.2260   16.9990 N.3   287  LYS287     -0.1262
    100  N         73.8820   51.0600   11.7980 N.3   291  PRO291     -0.2116
    101  CA        72.5750   51.1140   11.1400 C.3   291  PRO291      0.1372
    102  C         72.6210   50.9410    9.6130 C.2   291  PRO291      0.2244
    103  O         71.6960   50.3480    9.0660 O.2   291  PRO291     -0.2868
    104  CB        72.0690   52.5070   11.4980 C.3   291  PRO291      0.0268
    105  CG        72.7960   52.8460   12.7690 C.3   291  PRO291      0.0207
    106  CD        74.1790   52.2780   12.5670 C.3   291  PRO291      0.0892
    107  N         71.7800   47.7130    7.3280 N.3   294  ARG294     -0.1245
    108  CA        70.3960   47.2280    7.0620 C.3   294  ARG294      0.1563
    109  C         70.4140   45.6870    7.1630 C.2   294  ARG294      0.2260
    110  O         70.2100   45.0140    6.1520 O.2   294  ARG294     -0.2867
    111  CB        69.9220   47.6490    5.6670 C.3   294  ARG294      0.0307
    112  CG        69.7990   49.1410    5.4050 C.3   294  ARG294      0.0489
    113  CD        68.6620   49.7640    6.1780 C.3   294  ARG294      0.2205
    114  NE        69.1330   49.9840    7.5320 N.pl3 294  ARG294     -0.0865
    115  CZ        68.3630   50.1630    8.5910 C.cat 294  ARG294      0.5346
    116  NH1       68.9470   50.3690    9.7610 N.pl3 294  ARG294      0.1354
    117  NH2       67.0370   50.1310    8.4940 N.pl3 294  ARG294      0.1354
    118  N         68.6880   55.2820   25.8460 N.3   384  PHE384     -0.1241
    119  CA        67.6140   56.2920   26.0760 C.3   384  PHE384      0.1605
    120  C         67.4190   56.5790   27.5770 C.2   384  PHE384      0.2264
    121  O         67.5160   55.6710   28.4170 O.2   384  PHE384     -0.2867
    122  CB        66.3000   55.8710   25.4070 C.3   384  PHE384      0.0534
    123  CG        66.3830   55.7310   23.9030 C.ar  384  PHE384     -0.0203
    124  CD1       66.8800   56.7570   23.1180 C.ar  384  PHE384     -0.0042
    125  CD2       65.9330   54.5800   23.2750 C.ar  384  PHE384     -0.0042
    126  CE1       66.9700   56.6160   21.7480 C.ar  384  PHE384     -0.0003
    127  CE2       66.0360   54.4330   21.9060 C.ar  384  PHE384     -0.0003
    128  CZ        66.5680   55.4450   21.1460 C.ar  384  PHE384     -0.0000
@<TRIPOS>BOND
     1   112   111    1
     2   112   113    1
     3   111   108    1
     4   110   109    2
     5   113   114    1
     6   108   109    1
     7   108   107    1
     8   114   115    2
     9   117   115    1
    10   115   116    1
    11   103   102    2
    12     1     2    1
    13   102   101    1
    14    13    12    2
    15    12    11    1
    16     2     3    1
    17    14    11    1
    18    14    15    1
    19     4     3    2
    20   101   104    1
    21   101   100    1
    22     3     5   am
    23    11    10    1
    24   104   105    1
    25   100   106    1
    26    18    19    2
    27    18    17    1
    28    10     7   am
    29    90    89    1
    30     5     6    1
    31    16    17    1
    32   106   105    1
    33     7     8    2
    34     7     6    1
    35    17    20    1
    36     6     9    1
    37    83    82    1
    38    20    21    1
    39    89    86    1
    40    86    85    1
    41    86    87    1
    42    82    79    1
    43    82    84    1
    44    79    80    1
    45    79    78    1
    46    34    33   ar
    47    34    32   ar
    48    88    87    2
    49    33    31   ar
    50    21    22    1
    51    21    23    1
    52    80    81    2
    53    87    91   am
    54    32    30   ar
    55    31    29   ar
    56    91    92    1
    57    30    29   ar
    58    27    26    2
    59    98    99    1
    60    98    97    1
    61    29    28    1
    62    92    93    1
    63    92    95    1
    64    26    25    1
    65    96    97    2
    66    96    95    1
    67    93    94    2
    68    58    56   ar
    69    57    56   ar
    70    28    25    1
    71    25    24    1
    72    56    55    1
    73    63    60    1
    74    63    64    1
    75    55    52    1
    76    60    59    1
    77    60    61    1
    78    64    65    1
    79    62    61    2
    80    52    51    1
    81    52    53    1
    82    50    48   am
    83    59    65    1
    84    61    66   am
    85    53    54    2
    86   128   126   ar
    87   128   127   ar
    88    48    49    2
    89    48    47    1
    90    75    73   ar
    91    75    76   ar
    92    42    40    1
    93    73    71   ar
    94   126   124   ar
    95    66    67    1
    96   127   125   ar
    97    40    39    1
    98    47    44    1
    99    77    76    1
   100    76    74   ar
   101    71    70    1
   102    71    72   ar
   103    67    70    1
   104    67    68    1
   105    46    45    2
   106    41    39    1
   107   124   123   ar
   108    39    36    1
   109    74    72   ar
   110   125   123   ar
   111    45    44    1
   112    44    43    1
   113    35    36    1
   114    36    37    1
   115   123   122    1
   116    68    69    2
   117    37    38    2
   118   122   119    1
   119   118   119    1
   120   119   120    1
   121   120   121    2
