@<TRIPOS>MOLECULE
tmp/6hnqK00.pdb
 196 189 0 0 0
SMALL
GASTEIGER

@<TRIPOS>ATOM
      1  N        -63.0100  -68.6460  511.0870 N.3   122  TYR122     -0.1241
      2  CA       -64.1680  -68.7490  510.1690 C.3   122  TYR122      0.1605
      3  C        -64.6880  -70.1860  510.1550 C.2   122  TYR122      0.2264
      4  O        -63.8860  -71.1230  510.1190 O.2   122  TYR122     -0.2867
      5  CB       -63.7860  -68.3370  508.7450 C.3   122  TYR122      0.0534
      6  CG       -63.2580  -66.9320  508.6320 C.ar  122  TYR122     -0.0201
      7  CD1      -64.0940  -65.8410  508.7930 C.ar  122  TYR122     -0.0009
      8  CD2      -61.9240  -66.6900  508.3690 C.ar  122  TYR122     -0.0009
      9  CE1      -63.6120  -64.5490  508.7100 C.ar  122  TYR122      0.0417
     10  CE2      -61.4310  -65.4020  508.2640 C.ar  122  TYR122      0.0417
     11  CZ       -62.2740  -64.3270  508.4470 C.ar  122  TYR122      0.1957
     12  OH       -61.7860  -63.0540  508.3560 O.3   122  TYR122     -0.2866
     13  N        -64.8220  -71.1030  499.9170 N.3   130  SER130     -0.1202
     14  CA       -63.9570  -71.7440  500.9410 C.3   130  SER130      0.2020
     15  C        -63.5240  -70.6830  501.9660 C.2   130  SER130      0.2619
     16  O        -63.7110  -69.4760  501.6990 O.2   130  SER130     -0.2717
     17  CB       -62.7880  -72.4150  500.2740 C.3   130  SER130      0.2103
     18  OG       -61.9250  -72.9850  501.1240 O.3   130  SER130     -0.2182
     19  N        -62.9800  -71.0980  503.1090 N.am  131  VAL131     -0.1966
     20  CA       -62.4610  -70.1600  504.1500 C.3   131  VAL131      0.1712
     21  C        -61.0250  -70.5370  504.4970 C.2   131  VAL131      0.2458
     22  O        -60.6320  -71.6950  504.3840 O.2   131  VAL131     -0.2730
     23  CB       -63.3550  -70.1540  505.4070 C.3   131  VAL131      0.0289
     24  CG1      -64.7890  -69.7460  505.0750 C.3   131  VAL131      0.0023
     25  CG2      -63.3420  -71.4980  506.1310 C.3   131  VAL131      0.0023
     26  N        -60.1940  -69.5680  504.9350 N.am  132  PRO132     -0.2716
     27  CA       -58.8190  -69.8550  505.3450 C.3   132  PRO132      0.1536
     28  C        -58.7820  -70.8150  506.5390 C.2   132  PRO132      0.2598
     29  O        -59.7210  -70.8310  507.3290 O.2   132  PRO132     -0.2715
     30  CB       -58.2290  -68.4980  505.7370 C.3   132  PRO132      0.0310
     31  CG       -59.1410  -67.4930  505.0830 C.3   132  PRO132      0.0237
     32  CD       -60.5250  -68.1470  505.0480 C.3   132  PRO132      0.0939
     33  N        -57.7120  -71.5950  506.6290 N.am  133  LYS133     -0.1964
     34  CA       -57.5160  -72.6410  507.6660 C.3   133  LYS133      0.1728
     35  C        -56.1460  -72.4650  508.3340 C.2   133  LYS133      0.2616
     36  O        -56.0900  -72.5530  509.5770 O.2   133  LYS133     -0.2715
     37  CB       -57.6840  -74.0310  507.0420 C.3   133  LYS133      0.0311
     38  CG       -59.0700  -74.3640  506.5190 C.3   133  LYS133      0.0038
     39  CD       -60.0340  -74.8930  507.5460 C.3   133  LYS133      0.0206
     40  CE       -60.8580  -76.0540  507.0230 C.3   133  LYS133      0.1093
     41  NZ       -62.0080  -76.3280  507.9110 N.3   133  LYS133     -0.1314
     42  N        -55.0750  -72.2450  507.5600 N.am  134  ALA134     -0.1963
     43  CA       -53.6850  -72.2950  508.0810 C.3   134  ALA134      0.1728
     44  C        -53.4970  -71.2240  509.1580 C.2   134  ALA134      0.2616
     45  O        -52.8350  -71.4960  510.1460 O.2   134  ALA134     -0.2715
     46  CB       -52.7080  -72.1160  506.9450 C.3   134  ALA134      0.0334
     47  N        -54.0680  -70.0390  508.9640 N.am  135  ILE135     -0.1977
     48  CA       -53.9780  -68.9010  509.9250 C.3   135  ILE135      0.1596
     49  C        -54.4730  -69.3300  511.3170 C.2   135  ILE135      0.2287
     50  O        -53.9920  -68.7520  512.2870 O.2   135  ILE135     -0.2864
     51  CB       -54.7390  -67.6710  509.3840 C.3   135  ILE135      0.0276
     52  CG1      -54.5920  -66.4640  510.3080 C.3   135  ILE135      0.0022
     53  CG2      -56.2110  -67.9900  509.1360 C.3   135  ILE135      0.0022
     54  CD1      -55.0580  -65.1660  509.7010 C.3   135  ILE135      0.0001
     55  N        -49.6880  -66.7850  508.0560 N.3   150  SER150     -0.1217
     56  CA       -50.4300  -67.0130  506.7910 C.3   150  SER150      0.1889
     57  C        -51.5280  -65.9650  506.6100 C.2   150  SER150      0.2288
     58  O        -52.5770  -66.3280  506.1150 O.2   150  SER150     -0.2866
     59  CB       -51.0200  -68.4010  506.7760 C.3   150  SER150      0.2089
     60  OG       -50.0480  -69.3760  507.1190 O.3   150  SER150     -0.2183
     61  N        -53.1000  -65.2170  503.2130 N.3   153  TYR153     -0.1227
     62  CA       -54.0740  -66.2400  502.7550 C.3   153  TYR153      0.1736
     63  C        -55.4500  -66.0080  503.4100 C.2   153  TYR153      0.2595
     64  O        -56.3530  -66.8650  503.2400 O.2   153  TYR153     -0.2718
     65  CB       -53.5090  -67.6330  503.0230 C.3   153  TYR153      0.0548
     66  CG       -52.3130  -67.9450  502.1680 C.ar  153  TYR153     -0.0200
     67  CD1      -52.4740  -68.2660  500.8410 C.ar  153  TYR153     -0.0009
     68  CD2      -51.0220  -67.8870  502.6680 C.ar  153  TYR153     -0.0009
     69  CE1      -51.3900  -68.5510  500.0210 C.ar  153  TYR153      0.0417
     70  CE2      -49.9240  -68.1860  501.8720 C.ar  153  TYR153      0.0417
     71  CZ       -50.1090  -68.5160  500.5390 C.ar  153  TYR153      0.1957
     72  OH       -49.0580  -68.7800  499.7090 O.3   153  TYR153     -0.2866
     73  N        -55.6340  -64.9020  504.1370 N.am  154  ALA154     -0.1966
     74  CA       -56.9180  -64.5680  504.8080 C.3   154  ALA154      0.1728
     75  C        -57.1550  -63.0610  504.7240 C.2   154  ALA154      0.2616
     76  O        -57.1400  -62.3980  505.7810 O.2   154  ALA154     -0.2715
     77  CB       -56.8880  -65.0390  506.2430 C.3   154  ALA154      0.0334
     78  N        -57.3180  -62.5280  503.5070 N.am  155  LEU155     -0.1963
     79  CA       -57.3180  -61.0630  503.2740 C.3   155  LEU155      0.1728
     80  C        -58.7530  -60.5290  503.1550 C.2   155  LEU155      0.2616
     81  O        -58.8880  -59.3710  502.7390 O.2   155  LEU155     -0.2715
     82  CB       -56.5080  -60.7990  502.0040 C.3   155  LEU155      0.0311
     83  CG       -54.9930  -60.9790  502.1430 C.3   155  LEU155      0.0022
     84  CD1      -54.2840  -60.6840  500.8310 C.3   155  LEU155      0.0001
     85  CD2      -54.4060  -60.0800  503.2330 C.3   155  LEU155      0.0001
     86  N        -59.7850  -61.2970  503.5400 N.am  156  SER156     -0.1950
     87  CA       -61.1750  -60.7630  503.5800 C.3   156  SER156      0.1924
     88  C        -61.2380  -59.6350  504.6190 C.2   156  SER156      0.2314
     89  O        -60.3550  -59.5760  505.5060 O.2   156  SER156     -0.2863
     90  CB       -62.2010  -61.8380  503.8850 C.3   156  SER156      0.2116
     91  OG       -62.3270  -62.0470  505.2910 O.3   156  SER156     -0.2180
     92  N        -63.5780  -56.9450  491.9490 N.3   179  THR179     -0.1203
     93  CA       -62.9290  -58.0850  492.6580 C.3   179  THR179      0.1994
     94  C        -61.6590  -57.5930  493.3630 C.2   179  THR179      0.2617
     95  O        -61.0380  -56.6050  492.8420 O.2   179  THR179     -0.2717
     96  CB       -62.6800  -59.2390  491.6720 C.3   179  THR179      0.1784
     97  OG1      -61.9060  -60.2450  492.3250 O.3   179  THR179     -0.2211
     98  CG2      -61.9880  -58.7880  490.4060 C.3   179  THR179      0.0376
     99  N        -61.2820  -58.2250  494.4760 N.am  180  ALA180     -0.1979
    100  CA       -59.9990  -58.0320  495.2040 C.3   180  ALA180      0.1597
    101  C        -59.9370  -56.6640  495.9060 C.2   180  ALA180      0.2287
    102  O        -58.8610  -56.3130  496.3510 O.2   180  ALA180     -0.2864
    103  CB       -58.8260  -58.1880  494.2500 C.3   180  ALA180      0.0319
    104  N        -61.5180  -55.8950  498.6900 N.3   182  ASP182     -0.1225
    105  CA       -61.3990  -56.2780  500.1210 C.3   182  ASP182      0.1805
    106  C        -59.9330  -56.6370  500.4340 C.2   182  ASP182      0.2597
    107  O        -59.4370  -56.2170  501.5050 O.2   182  ASP182     -0.2718
    108  CB       -62.3930  -57.3840  500.4630 C.3   182  ASP182      0.1424
    109  CG       -62.1770  -58.6520  499.6600 C.2   182  ASP182      0.3668
    110  OD1      -61.6890  -58.5390  498.4900 O.co2 182  ASP182     -0.2456
    111  OD2      -62.4970  -59.7390  500.2070 O.co2 182  ASP182     -0.2456
    112  N        -59.2610  -57.3710  499.5500 N.am  183  GLN183     -0.1979
    113  CA       -57.8200  -57.7200  499.7110 C.3   183  GLN183      0.1601
    114  C        -57.0010  -56.4300  499.8380 C.2   183  GLN183      0.2287
    115  O        -56.1680  -56.3330  500.7620 O.2   183  GLN183     -0.2864
    116  CB       -57.2600  -58.4970  498.5120 C.3   183  GLN183      0.0394
    117  CG       -57.5960  -59.9730  498.4950 C.3   183  GLN183      0.0908
    118  CD       -56.9110  -60.6310  497.3120 C.2   183  GLN183      0.2608
    119  OE1      -55.6790  -60.7960  497.2500 O.2   183  GLN183     -0.2717
    120  NE2      -57.7030  -60.9860  496.3190 N.am  183  GLN183     -0.0878
    121  N        -58.8400  -55.6670  487.5140 N.3   217  TYR217     -0.1241
    122  CA       -58.2920  -56.6290  488.5020 C.3   217  TYR217      0.1605
    123  C        -56.8040  -56.3490  488.7360 C.2   217  TYR217      0.2264
    124  O        -56.3970  -56.2400  489.8940 O.2   217  TYR217     -0.2867
    125  CB       -58.5190  -58.0560  488.0140 C.3   217  TYR217      0.0534
    126  CG       -57.8560  -59.1170  488.8530 C.ar  217  TYR217     -0.0201
    127  CD1      -58.2870  -59.3610  490.1420 C.ar  217  TYR217     -0.0009
    128  CD2      -56.7940  -59.8700  488.3660 C.ar  217  TYR217     -0.0009
    129  CE1      -57.6880  -60.3320  490.9280 C.ar  217  TYR217      0.0417
    130  CE2      -56.2000  -60.8510  489.1280 C.ar  217  TYR217      0.0417
    131  CZ       -56.6530  -61.0840  490.4150 C.ar  217  TYR217      0.1957
    132  OH       -56.0990  -62.0570  491.1910 O.3   217  TYR217     -0.2866
    133  N        -44.2400  -63.1610  499.0220 N.3   246  LYS246     -0.1245
    134  CA       -45.2770  -64.0020  499.6660 C.3   246  LYS246      0.1561
    135  C        -46.6050  -63.7050  498.9800 C.2   246  LYS246      0.2260
    136  O        -47.3810  -64.6490  498.7750 O.2   246  LYS246     -0.2867
    137  CB       -45.3690  -63.7450  501.1720 C.3   246  LYS246      0.0271
    138  CG       -46.4360  -64.5760  501.8950 C.3   246  LYS246      0.0035
    139  CD       -46.3620  -66.0890  501.7370 C.3   246  LYS246      0.0206
    140  CE       -45.0620  -66.6230  502.3190 C.3   246  LYS246      0.1093
    141  NZ       -44.9980  -68.0980  502.3660 N.3   246  LYS246     -0.1314
    142  N        -46.7550  -65.4830  495.6500 N.3   249  THR249     -0.1203
    143  CA       -47.0620  -66.9150  495.8840 C.3   249  THR249      0.1994
    144  C        -48.5730  -67.0720  496.0540 C.2   249  THR249      0.2617
    145  O        -49.1470  -67.9450  495.3930 O.2   249  THR249     -0.2717
    146  CB       -46.2800  -67.4610  497.0840 C.3   249  THR249      0.1784
    147  OG1      -44.8870  -67.2590  496.8020 O.3   249  THR249     -0.2211
    148  CG2      -46.5390  -68.9180  497.3440 C.3   249  THR249      0.0376
    149  N        -49.1980  -66.2480  496.8950 N.am  250  ARG250     -0.1979
    150  CA       -50.6550  -66.3200  497.1670 C.3   250  ARG250      0.1597
    151  C        -51.4210  -66.0940  495.8610 C.2   250  ARG250      0.2287
    152  O        -52.4140  -66.7890  495.6220 O.2   250  ARG250     -0.2864
    153  CB       -51.0720  -65.3200  498.2530 C.3   250  ARG250      0.0334
    154  CG       -52.5860  -65.2320  498.4600 C.3   250  ARG250      0.0492
    155  CD       -53.1820  -63.9530  497.9060 C.3   250  ARG250      0.2205
    156  NE       -54.4780  -64.1530  497.3110 N.pl3 250  ARG250     -0.0865
    157  CZ       -55.6040  -64.3370  497.9780 C.cat 250  ARG250      0.5346
    158  NH1      -55.6530  -64.2130  499.3000 N.pl3 250  ARG250      0.1354
    159  NH2      -56.7120  -64.5380  497.2740 N.pl3 250  ARG250      0.1354
    160  N        -51.2030  -69.0990  493.6870 N.3   253  ARG253     -0.1231
    161  CA       -51.9130  -70.2520  494.2990 C.3   253  ARG253      0.1694
    162  C        -53.4320  -70.0420  494.2330 C.2   253  ARG253      0.2592
    163  O        -54.1420  -71.0330  494.1730 O.2   253  ARG253     -0.2718
    164  CB       -51.5030  -70.4470  495.7580 C.3   253  ARG253      0.0321
    165  CG       -50.1550  -71.1290  495.9580 C.3   253  ARG253      0.0489
    166  CD       -49.9710  -71.4270  497.4410 C.3   253  ARG253      0.2205
    167  NE       -48.6430  -71.9460  497.7010 N.pl3 253  ARG253     -0.0865
    168  CZ       -48.2130  -73.1790  497.4750 C.cat 253  ARG253      0.5346
    169  NH1      -46.9550  -73.4860  497.7640 N.pl3 253  ARG253      0.1354
    170  NH2      -49.0250  -74.1040  496.9950 N.pl3 253  ARG253      0.1354
    171  N        -53.9240  -68.8110  494.3360 N.am  254  HIS254     -0.1976
    172  CA       -55.3620  -68.5510  494.6110 C.3   254  HIS254      0.1656
    173  C        -55.9020  -67.3630  493.8180 C.2   254  HIS254      0.2291
    174  O        -57.0370  -66.9730  494.0750 O.2   254  HIS254     -0.2864
    175  CB       -55.5880  -68.2890  496.1100 C.3   254  HIS254      0.0771
    176  CG       -55.1720  -69.4070  496.9920 C.ar  254  HIS254      0.0820
    177  ND1      -55.7810  -70.6360  496.9920 N.ar  254  HIS254     -0.2267
    178  CD2      -54.2120  -69.4710  497.9200 C.ar  254  HIS254      0.1154
    179  CE1      -55.2000  -71.4170  497.8830 C.ar  254  HIS254      0.1986
    180  NE2      -54.2420  -70.7220  498.4820 N.ar  254  HIS254     -0.2212
    181  N        -57.4600  -64.8980  490.7820 N.3   256  GLN256     -0.1245
    182  CA       -58.5340  -64.9990  489.7680 C.3   256  GLN256      0.1566
    183  C        -57.9340  -65.6090  488.4950 C.2   256  GLN256      0.2260
    184  O        -56.8600  -65.1570  488.0580 O.2   256  GLN256     -0.2867
    185  CB       -59.1430  -63.6180  489.5100 C.3   256  GLN256      0.0367
    186  CG       -60.6240  -63.6570  489.1630 C.3   256  GLN256      0.0905
    187  CD       -61.0960  -62.4080  488.4530 C.2   256  GLN256      0.2608
    188  OE1      -60.6840  -61.3100  488.7900 O.2   256  GLN256     -0.2717
    189  NE2      -61.9900  -62.5480  487.4800 N.am  256  GLN256     -0.0878
    190  N        -42.3210  -69.2760  496.4110 N.3   293  THR293     -0.1218
    191  CA       -42.1400  -70.7480  496.5210 C.3   293  THR293      0.1862
    192  C        -41.6080  -71.2820  495.1840 C.2   293  THR293      0.2287
    193  O        -42.1960  -70.9580  494.1570 O.2   293  THR293     -0.2866
    194  CB       -43.4360  -71.4200  496.9760 C.3   293  THR293      0.1770
    195  OG1      -43.8680  -70.7660  498.1670 O.3   293  THR293     -0.2211
    196  CG2      -43.2170  -72.8890  497.2700 C.3   293  THR293      0.0375
@<TRIPOS>BOND
     1   189   187   am
     2   121   122    1
     3   125   122    1
     4   125   126    1
     5   184   183    2
     6   128   126   ar
     7   128   130   ar
     8   187   188    2
     9   187   186    1
    10   183   182    1
    11   122   123    1
    12   123   124    2
    13   126   127   ar
    14   130   131   ar
    15   186   185    1
    16   185   182    1
    17   182   181    1
    18   127   129   ar
    19    98    96    1
    20   131   129   ar
    21   131   132    1
    22    96    97    1
    23    96    93    1
    24    92    93    1
    25    93    94    1
    26    95    94    2
    27    94    99   am
    28   160   161    1
    29   173   174    2
    30   173   172    1
    31   193   192    2
    32   163   162    2
    33   162   161    1
    34   162   171   am
    35   103   100    1
    36   161   164    1
    37   171   172    1
    38    99   100    1
    39   172   175    1
    40   192   191    1
    41   100   101    1
    42   145   144    2
    43   152   151    2
    44   142   143    1
    45   164   165    1
    46   151   150    1
    47   143   144    1
    48   143   146    1
    49   101   102    2
    50   165   166    1
    51   144   149   am
    52   175   176    1
    53   120   118   am
    54   190   191    1
    55   191   194    1
    56   147   146    1
    57   149   150    1
    58   194   196    1
    59   194   195    1
    60   176   177   ar
    61   176   178   ar
    62   177   179   ar
    63   170   168    1
    64   146   148    1
    65   150   153    1
    66   119   118    2
    67   159   157    1
    68   156   155    1
    69   156   157    2
    70   118   117    1
    71   166   167    1
    72   168   167    2
    73   168   169    1
    74   179   180   ar
    75   155   154    1
    76   178   180   ar
    77   157   158    1
    78   153   154    1
    79   110   109   ar
    80   117   116    1
    81   116   113    1
    82   104   105    1
    83   136   135    2
    84   135   134    1
    85   133   134    1
    86   112   113    1
    87   112   106   am
    88   109   111   ar
    89   109   108    1
    90   134   137    1
    91    72    71    1
    92   113   114    1
    93   114   115    2
    94    13    14    1
    95    69    71   ar
    96    69    67   ar
    97   105   106    1
    98   105   108    1
    99    17    14    1
   100    17    18    1
   101   106   107    2
   102    71    70   ar
   103    84    83    1
   104    67    66   ar
   105    14    15    1
   106   137   138    1
   107    16    15    2
   108   139   138    1
   109   139   140    1
   110    70    68   ar
   111    15    19   am
   112    82    83    1
   113    82    79    1
   114    83    85    1
   115    66    68   ar
   116    66    65    1
   117   140   141    1
   118    81    80    2
   119    62    65    1
   120    62    61    1
   121    62    63    1
   122    19    20    1
   123    80    79    1
   124    80    86   am
   125    64    63    2
   126    79    78    1
   127    63    73   am
   128    78    75   am
   129    86    87    1
   130    87    90    1
   131    87    88    1
   132    90    91    1
   133    73    74    1
   134    20    21    1
   135    20    23    1
   136    22    21    2
   137    21    26   am
   138    88    89    2
   139    75    74    1
   140    75    76    2
   141    74    77    1
   142    26    32    1
   143    26    27    1
   144    32    31    1
   145    24    23    1
   146    31    30    1
   147    27    30    1
   148    27    28    1
   149    23    25    1
   150    58    57    2
   151    38    37    1
   152    38    39    1
   153    28    33   am
   154    28    29    2
   155    57    56    1
   156    33    34    1
   157    59    56    1
   158    59    60    1
   159    56    55    1
   160    46    43    1
   161    40    39    1
   162    40    41    1
   163    37    34    1
   164    42    43    1
   165    42    35   am
   166    34    35    1
   167    43    44    1
   168    10     8   ar
   169    10    11   ar
   170    35    36    2
   171    12    11    1
   172     8     6   ar
   173    11     9   ar
   174     6     5    1
   175     6     7   ar
   176     9     7   ar
   177     5     2    1
   178    47    44   am
   179    47    48    1
   180    53    51    1
   181    44    45    2
   182    51    48    1
   183    51    52    1
   184    54    52    1
   185    48    49    1
   186     4     3    2
   187     3     2    1
   188     2     1    1
   189    49    50    2
