@<TRIPOS>MOLECULE
tmp/6hnuA01.pdb
 112 106 0 0 0
SMALL
GASTEIGER

@<TRIPOS>ATOM
      1  N         68.1950   50.4760    7.3960 N.3   135  GLY135     -0.1210
      2  CA        68.0150   51.4810    8.4430 C.3   135  GLY135      0.1956
      3  C         66.5900   51.5530    8.9230 C.2   135  GLY135      0.2612
      4  O         65.6610   50.9720    8.2640 O.2   135  GLY135     -0.2717
      5  N         66.4110   52.2840   10.0140 N.am  136  ASN136     -0.1960
      6  CA        65.0990   52.3430   10.7050 C.3   136  ASN136      0.1819
      7  C         64.1230   53.1720    9.8750 C.2   136  ASN136      0.2621
      8  O         62.9470   52.8780    9.9840 O.2   136  ASN136     -0.2715
      9  CB        65.1520   52.8560   12.1400 C.3   136  ASN136      0.1195
     10  CG        65.7480   51.8840   13.1330 C.2   136  ASN136      0.2630
     11  OD1       66.2640   50.8190   12.7350 O.2   136  ASN136     -0.2716
     12  ND2       65.6530   52.2460   14.4120 N.am  136  ASN136     -0.0877
     13  N         64.5860   54.1310    9.0650 N.am  137  THR137     -0.1951
     14  CA        63.7120   54.8580    8.0890 C.3   137  THR137      0.1897
     15  C         62.9650   53.8390    7.2170 C.2   137  THR137      0.2313
     16  O         61.7110   53.8490    7.1520 O.2   137  THR137     -0.2863
     17  CB        64.4840   55.8520    7.2280 C.3   137  THR137      0.1794
     18  OG1       65.2600   56.6440    8.1290 O.3   137  THR137     -0.2208
     19  CG2       63.5510   56.7120    6.3970 C.3   137  THR137      0.0378
     20  N         58.5020   61.7060   16.0280 N.3   161  PHE161     -0.1241
     21  CA        59.4670   61.9360   14.9230 C.3   161  PHE161      0.1605
     22  C         58.6880   62.2820   13.6610 C.2   161  PHE161      0.2264
     23  O         57.7910   61.5270   13.3070 O.2   161  PHE161     -0.2867
     24  CB        60.3180   60.6890   14.7540 C.3   161  PHE161      0.0534
     25  CG        61.3610   60.7080   13.6650 C.ar  161  PHE161     -0.0203
     26  CD1       62.1310   61.8360   13.4200 C.ar  161  PHE161     -0.0042
     27  CD2       61.6510   59.5370   12.9710 C.ar  161  PHE161     -0.0042
     28  CE1       63.1660   61.7940   12.4910 C.ar  161  PHE161     -0.0003
     29  CE2       62.6890   59.4910   12.0530 C.ar  161  PHE161     -0.0003
     30  CZ        63.4380   60.6270   11.8040 C.ar  161  PHE161     -0.0000
     31  N         59.2750   55.4410   20.3440 N.3   208  ILE208     -0.1245
     32  CA        60.7470   55.6740   20.3890 C.3   208  ILE208      0.1561
     33  C         61.0810   55.6500   21.8690 C.2   208  ILE208      0.2260
     34  O         61.2280   56.7200   22.4710 O.2   208  ILE208     -0.2867
     35  CB        61.1230   57.0010   19.6970 C.3   208  ILE208      0.0252
     36  CG1       60.4750   57.1340   18.3130 C.3   208  ILE208      0.0019
     37  CG2       62.6420   57.1270   19.6140 C.3   208  ILE208      0.0019
     38  CD1       60.3730   58.5790   17.7930 C.3   208  ILE208      0.0001
     39  N         62.3900   60.9310   20.6690 N.3   213  ASN213     -0.1240
     40  CA        62.4760   62.1500   19.8380 C.3   213  ASN213      0.1653
     41  C         61.0750   62.7320   19.7500 C.2   213  ASN213      0.2266
     42  O         60.2320   62.1310   19.0960 O.2   213  ASN213     -0.2867
     43  CB        63.0700   61.7910   18.4810 C.3   213  ASN213      0.1155
     44  CG        63.2650   62.9690   17.5470 C.2   213  ASN213      0.2627
     45  OD1       63.0830   64.1140   17.9410 O.2   213  ASN213     -0.2716
     46  ND2       63.6520   62.6740   16.3140 N.am  213  ASN213     -0.0877
     47  N         61.0150   51.6190   17.9310 N.3   241  ASP241     -0.1239
     48  CA        61.9470   52.2220   16.9610 C.3   241  ASP241      0.1674
     49  C         63.0900   52.7660   17.8060 C.2   241  ASP241      0.2266
     50  O         62.8850   53.7720   18.4930 O.2   241  ASP241     -0.2867
     51  CB        61.2060   53.2270   16.0680 C.3   241  ASP241      0.1410
     52  CG        62.0930   53.9760   15.1010 C.2   241  ASP241      0.3668
     53  OD1       63.2690   53.5780   14.9820 O.co2 241  ASP241     -0.2456
     54  OD2       61.5780   54.9070   14.4440 O.co2 241  ASP241     -0.2456
     55  N         66.7650   53.4840   17.5950 N.3   243  PRO243     -0.2102
     56  CA        68.1060   53.8600   17.1250 C.3   243  PRO243      0.1504
     57  C         68.9930   54.4360   18.2370 C.2   243  PRO243      0.2575
     58  O         70.2240   54.4030   18.0840 O.2   243  PRO243     -0.2718
     59  CB        67.8200   54.9350   16.0730 C.3   243  PRO243      0.0282
     60  CG        66.5580   55.5800   16.5650 C.3   243  PRO243      0.0208
     61  CD        65.7310   54.4170   17.1290 C.3   243  PRO243      0.0893
     62  N         68.3900   54.9190   19.3320 N.am  244  TYR244     -0.1977
     63  CA        69.1190   55.5930   20.4290 C.3   244  TYR244      0.1639
     64  C         69.2820   54.6650   21.6330 C.2   244  TYR244      0.2290
     65  O         69.6530   55.1510   22.7150 O.2   244  TYR244     -0.2864
     66  CB        68.4400   56.9000   20.8320 C.3   244  TYR244      0.0560
     67  CG        68.0400   57.8440   19.7290 C.ar  244  TYR244     -0.0198
     68  CD1       68.9820   58.5360   18.9910 C.ar  244  TYR244     -0.0009
     69  CD2       66.7050   58.1390   19.5050 C.ar  244  TYR244     -0.0009
     70  CE1       68.6030   59.4210   17.9940 C.ar  244  TYR244      0.0417
     71  CE2       66.3160   59.0130   18.5070 C.ar  244  TYR244      0.0417
     72  CZ        67.2660   59.6920   17.7800 C.ar  244  TYR244      0.1957
     73  OH        66.9050   60.6160   16.8220 O.3   244  TYR244     -0.2866
     74  N         69.2910   49.9240   14.4310 N.3   292  SER292     -0.1217
     75  CA        70.1450   50.5710   13.4070 C.3   292  SER292      0.1889
     76  C         71.5550   50.7920   13.9400 C.2   292  SER292      0.2288
     77  O         71.7290   51.0610   15.1420 O.2   292  SER292     -0.2866
     78  CB        69.5570   51.9180   13.0140 C.3   292  SER292      0.2089
     79  OG        70.3530   52.6020   12.0610 O.3   292  SER292     -0.2183
     80  N         73.0440   53.5140   12.7510 N.3   294  SER294     -0.1202
     81  CA        73.2450   54.9520   12.3960 C.3   294  SER294      0.2020
     82  C         73.8270   55.7660   13.5410 C.2   294  SER294      0.2618
     83  O         74.7440   56.5900   13.2670 O.2   294  SER294     -0.2717
     84  CB        71.9620   55.6020   11.9090 C.3   294  SER294      0.2103
     85  OG        71.6510   55.0620   10.6420 O.3   294  SER294     -0.2182
     86  N         73.3460   55.5860   14.7760 N.am  295  LYS295     -0.1979
     87  CA        73.7880   56.4380   15.9190 C.3   295  LYS295      0.1596
     88  C         74.9530   55.7890   16.6680 C.2   295  LYS295      0.2287
     89  O         75.5050   56.4300   17.5660 O.2   295  LYS295     -0.2864
     90  CB        72.6450   56.7170   16.8890 C.3   295  LYS295      0.0298
     91  CG        71.2660   56.8780   16.2690 C.3   295  LYS295      0.0038
     92  CD        71.1120   58.0270   15.3050 C.3   295  LYS295      0.0206
     93  CE        69.6710   58.1240   14.8330 C.3   295  LYS295      0.1093
     94  NZ        69.4980   59.2550   13.9170 N.3   295  LYS295     -0.1314
     95  N         75.6040   56.9660   10.1570 N.3   299  PRO299     -0.2116
     96  CA        74.3690   56.9710    9.3650 C.3   299  PRO299      0.1372
     97  C         74.5050   56.3610    7.9720 C.2   299  PRO299      0.2244
     98  O         73.5690   55.7390    7.4500 O.2   299  PRO299     -0.2868
     99  CB        74.1220   58.4880    9.2140 C.3   299  PRO299      0.0268
    100  CG        74.6210   59.0590   10.5250 C.3   299  PRO299      0.0207
    101  CD        75.9020   58.2770   10.7630 C.3   299  PRO299      0.0892
    102  N         73.6800   52.7140    6.1770 N.3   302  ARG302     -0.1245
    103  CA        72.3270   52.3100    5.6920 C.3   302  ARG302      0.1563
    104  C         72.1830   50.8170    5.9720 C.2   302  ARG302      0.2260
    105  O         71.9010   50.0490    5.0710 O.2   302  ARG302     -0.2867
    106  CB        72.0960   52.6430    4.2230 C.3   302  ARG302      0.0307
    107  CG        72.1220   54.1320    3.9320 C.3   302  ARG302      0.0489
    108  CD        70.9030   54.8660    4.4920 C.3   302  ARG302      0.2205
    109  NE        71.1830   55.4010    5.8210 N.pl3 302  ARG302     -0.0865
    110  CZ        70.3200   55.5170    6.8220 C.cat 302  ARG302      0.5346
    111  NH1       70.7270   56.0350    7.9670 N.pl3 302  ARG302      0.1354
    112  NH2       69.0650   55.1100    6.6910 N.pl3 302  ARG302      0.1354
@<TRIPOS>BOND
     1   107   106    1
     2   107   108    1
     3   106   103    1
     4   108   109    1
     5   105   104    2
     6   103   104    1
     7   103   102    1
     8   109   110    2
     9    19    17    1
    10   112   110    1
    11   110   111    1
    12    16    15    2
    13    15    14    1
    14    17    14    1
    15    17    18    1
    16     1     2    1
    17    98    97    2
    18    97    96    1
    19    14    13    1
    20     4     3    2
    21     2     3    1
    22     3     5   am
    23    13     7   am
    24    99    96    1
    25    99   100    1
    26    96    95    1
    27     7     8    2
    28     7     6    1
    29     5     6    1
    30    95   101    1
    31   100   101    1
    32    85    84    1
    33     6     9    1
    34    30    29   ar
    35    30    28   ar
    36    84    81    1
    37    29    27   ar
    38    79    78    1
    39     9    10    1
    40    81    80    1
    41    81    82    1
    42    28    26   ar
    43    11    10    2
    44    27    25   ar
    45    78    75    1
    46    10    12   am
    47    83    82    2
    48    23    22    2
    49    75    76    1
    50    75    74    1
    51    26    25   ar
    52    82    86   am
    53    22    21    1
    54    25    24    1
    55    94    93    1
    56    76    77    2
    57    54    52   ar
    58    24    21    1
    59    86    87    1
    60    93    92    1
    61    21    20    1
    62    53    52   ar
    63    52    51    1
    64    92    91    1
    65    87    88    1
    66    87    90    1
    67    51    48    1
    68    59    60    1
    69    59    56    1
    70    91    90    1
    71    46    44   am
    72    60    61    1
    73    88    89    2
    74    73    72    1
    75    48    49    1
    76    48    47    1
    77    56    55    1
    78    56    57    1
    79    61    55    1
    80    44    45    2
    81    44    43    1
    82    72    70   ar
    83    72    71   ar
    84    38    36    1
    85    49    50    2
    86    70    68   ar
    87    58    57    2
    88    57    62   am
    89    36    35    1
    90    43    40    1
    91    71    69   ar
    92    68    67   ar
    93    42    41    2
    94    62    63    1
    95    69    67   ar
    96    37    35    1
    97    35    32    1
    98    67    66    1
    99    41    40    1
   100    40    39    1
   101    31    32    1
   102    32    33    1
   103    63    66    1
   104    63    64    1
   105    64    65    2
   106    33    34    2
