@<TRIPOS>MOLECULE
tmp/6hnxA00.pdb
 247 241 0 0 0
SMALL
GASTEIGER

@<TRIPOS>ATOM
      1  N          6.7650   35.4380    3.2190 N.3    64  LEU64      -0.1245
      2  CA         6.4680   34.1270    3.8620 C.3    64  LEU64       0.1561
      3  C          5.4060   34.3290    4.9770 C.2    64  LEU64       0.2260
      4  O          4.4550   33.5120    5.0520 O.2    64  LEU64      -0.2867
      5  CB         7.7700   33.5190    4.3970 C.3    64  LEU64       0.0270
      6  CG         7.6430   32.1830    5.1270 C.3    64  LEU64       0.0019
      7  CD1        7.2010   31.0660    4.1940 C.3    64  LEU64       0.0001
      8  CD2        8.9730   31.8180    5.7520 C.3    64  LEU64       0.0001
      9  N          1.9710   34.4800    3.4910 N.3    67  LEU67      -0.1231
     10  CA         1.5100   33.1360    3.1020 C.3    67  LEU67       0.1693
     11  C          1.0380   32.3580    4.3190 C.2    67  LEU67       0.2591
     12  O          0.0080   31.6640    4.2180 O.2    67  LEU67      -0.2718
     13  CB         2.6510   32.3720    2.4420 C.3    67  LEU67       0.0284
     14  CG         2.5050   32.1300    0.9570 C.3    67  LEU67       0.0019
     15  CD1        3.6580   31.2730    0.4780 C.3    67  LEU67       0.0001
     16  CD2        1.1500   31.5050    0.6170 C.3    67  LEU67       0.0001
     17  N          1.8260   32.3740    5.3950 N.am   68  ALA68      -0.1980
     18  CA         1.5090   31.6310    6.6350 C.3    68  ALA68       0.1597
     19  C          0.0940   32.0430    7.0840 C.2    68  ALA68       0.2287
     20  O         -0.6630   31.1540    7.4740 O.2    68  ALA68      -0.2864
     21  CB         2.5530   31.8720    7.7130 C.3    68  ALA68       0.0319
     22  N         -3.2270   30.7910    3.8870 N.3    71  PRO71      -0.2116
     23  CA        -2.9500   29.5260    3.1990 C.3    71  PRO71       0.1372
     24  C         -3.7410   29.3750    1.8860 C.2    71  PRO71       0.2244
     25  O         -4.9410   29.6300    1.8750 O.2    71  PRO71      -0.2868
     26  CB        -3.3470   28.4310    4.2150 C.3    71  PRO71       0.0268
     27  CG        -4.1810   29.1590    5.2690 C.3    71  PRO71       0.0207
     28  CD        -3.7060   30.5980    5.2650 C.3    71  PRO71       0.0892
     29  N         -1.1790   19.4360   -0.6460 N.3    76  ARG76      -0.1245
     30  CA         0.0410   19.6780    0.1550 C.3    76  ARG76       0.1563
     31  C          1.2310   19.9860   -0.7780 C.2    76  ARG76       0.2260
     32  O          1.9660   20.9310   -0.4610 O.2    76  ARG76      -0.2867
     33  CB         0.2800   18.5080    1.1190 C.3    76  ARG76       0.0307
     34  CG        -0.5050   18.6630    2.4200 C.3    76  ARG76       0.0489
     35  CD        -0.5540   17.3920    3.2440 C.3    76  ARG76       0.2205
     36  NE        -0.9010   17.7280    4.6130 N.pl3  76  ARG76      -0.0865
     37  CZ        -2.1120   17.6440    5.1590 C.cat  76  ARG76       0.5346
     38  NH1       -2.2830   17.9980    6.4270 N.pl3  76  ARG76       0.1354
     39  NH2       -3.1380   17.2040    4.4460 N.pl3  76  ARG76       0.1354
     40  N          0.9950   23.6420   -1.8410 N.3    79  MET79      -0.1230
     41  CA         1.2360   24.5600   -0.6960 C.3    79  MET79       0.1702
     42  C          2.7450   24.6950   -0.4500 C.2    79  MET79       0.2592
     43  O          3.2240   25.8330   -0.1810 O.2    79  MET79      -0.2718
     44  CB         0.5240   24.0880    0.5710 C.3    79  MET79       0.0401
     45  CG        -1.0320   24.1830    0.4680 C.3    79  MET79       0.0596
     46  SD        -1.9100   22.9640    1.5410 S.3    79  MET79      -0.1393
     47  CE        -0.9760   23.2180    3.0460 C.3    79  MET79       0.0692
     48  N          3.4930   23.5920   -0.5740 N.am   80  TRP80      -0.1976
     49  CA         4.9780   23.6610   -0.3840 C.3    80  TRP80       0.1640
     50  C          5.5840   24.3920   -1.5820 C.2    80  TRP80       0.2290
     51  O          6.5040   25.1780   -1.3790 O.2    80  TRP80      -0.2864
     52  CB         5.5790   22.2640   -0.2330 C.3    80  TRP80       0.0576
     53  CG         5.3070   21.6950    1.1250 C.ar   80  TRP80       0.0006
     54  CD1        4.4340   20.6890    1.4400 C.ar   80  TRP80       0.0946
     55  CD2        5.9030   22.1000    2.3560 C.ar   80  TRP80       0.0152
     56  NE1        4.4590   20.4490    2.7830 N.ar   80  TRP80      -0.2442
     57  CE2        5.3610   21.2800    3.3700 C.ar   80  TRP80       0.0810
     58  CE3        6.8170   23.0810    2.7150 C.ar   80  TRP80       0.0012
     59  CZ2        5.7040   21.4240    4.7010 C.ar   80  TRP80       0.0191
     60  CZ3        7.1720   23.2070    4.0330 C.ar   80  TRP80       0.0001
     61  CH2        6.6410   22.3720    5.0120 C.ar   80  TRP80       0.0015
     62  N          5.2620   28.0480   -1.1020 N.3    83  GLY83      -0.1210
     63  CA         6.1710   28.5850   -0.0780 C.3    83  GLY83       0.1956
     64  C          7.6120   28.6700   -0.5940 C.2    83  GLY83       0.2611
     65  O          8.2380   29.7190   -0.4790 O.2    83  GLY83      -0.2717
     66  N          8.0980   27.6220   -1.2260 N.am   84  ILE84      -0.1979
     67  CA         9.4740   27.6770   -1.7930 C.3    84  ILE84       0.1595
     68  C          9.5170   28.8190   -2.8180 C.2    84  ILE84       0.2287
     69  O         10.5480   29.4850   -2.9500 O.2    84  ILE84      -0.2864
     70  CB         9.8990   26.3160   -2.3650 C.3    84  ILE84       0.0276
     71  CG1        9.9210   25.2690   -1.2380 C.3    84  ILE84       0.0022
     72  CG2       11.2630   26.4550   -3.0180 C.3    84  ILE84       0.0022
     73  CD1       10.1030   23.8510   -1.7180 C.3    84  ILE84       0.0001
     74  N         10.8480   32.3000   -1.9850 N.3    87  PHE87      -0.1241
     75  CA        12.3250   32.4310   -1.9710 C.3    87  PHE87       0.1605
     76  C         12.8750   32.4610   -3.4070 C.2    87  PHE87       0.2264
     77  O         13.7890   33.2850   -3.6990 O.2    87  PHE87      -0.2867
     78  CB        12.9110   31.3130   -1.1170 C.3    87  PHE87       0.0534
     79  CG        12.5680   31.4870    0.3360 C.ar   87  PHE87      -0.0203
     80  CD1       11.4170   30.9360    0.8550 C.ar   87  PHE87      -0.0042
     81  CD2       13.3780   32.2580    1.1440 C.ar   87  PHE87      -0.0042
     82  CE1       11.0610   31.1680    2.1770 C.ar   87  PHE87      -0.0003
     83  CE2       13.0580   32.4640    2.4710 C.ar   87  PHE87      -0.0003
     84  CZ        11.8770   31.9470    2.9770 C.ar   87  PHE87      -0.0000
     85  N         14.5140   36.1720   -4.0610 N.3    91  PHE91      -0.1241
     86  CA        15.9810   36.2080   -4.3290 C.3    91  PHE91       0.1605
     87  C         16.2120   36.2670   -5.8410 C.2    91  PHE91       0.2264
     88  O         17.1650   36.9320   -6.2880 O.2    91  PHE91      -0.2867
     89  CB        16.6840   35.0630   -3.6120 C.3    91  PHE91       0.0534
     90  CG        16.7470   35.2860   -2.1230 C.ar   91  PHE91      -0.0203
     91  CD1       17.6490   36.2030   -1.5850 C.ar   91  PHE91      -0.0042
     92  CD2       16.0140   34.4990   -1.2730 C.ar   91  PHE91      -0.0042
     93  CE1       17.7320   36.3900   -0.2070 C.ar   91  PHE91      -0.0003
     94  CE2       16.0710   34.7070    0.0930 C.ar   91  PHE91      -0.0003
     95  CZ        16.9120   35.6570    0.6230 C.ar   91  PHE91      -0.0000
     96  N         22.3120   36.9660    7.7790 N.3   115  TRP115     -0.1241
     97  CA        21.9550   35.7170    7.0950 C.3   115  TRP115      0.1605
     98  C         21.5940   34.6720    8.1610 C.2   115  TRP115      0.2264
     99  O         20.5350   33.9960    8.0810 O.2   115  TRP115     -0.2867
    100  CB        23.1300   35.2850    6.2230 C.3   115  TRP115      0.0550
    101  CG        22.6320   34.1770    5.3950 C.ar  115  TRP115      0.0003
    102  CD1       22.8100   32.8290    5.5620 C.ar  115  TRP115      0.0946
    103  CD2       21.6830   34.3410    4.3390 C.ar  115  TRP115      0.0152
    104  NE1       22.0810   32.1450    4.6230 N.ar  115  TRP115     -0.2442
    105  CE2       21.3740   33.0450    3.8680 C.ar  115  TRP115      0.0810
    106  CE3       21.1020   35.4500    3.7330 C.ar  115  TRP115      0.0012
    107  CZ2       20.4750   32.8590    2.8220 C.ar  115  TRP115      0.0191
    108  CZ3       20.2400   35.2600    2.6840 C.ar  115  TRP115      0.0001
    109  CH2       19.9070   33.9830    2.2590 C.ar  115  TRP115      0.0015
    110  N         17.9960   32.6950    8.6170 N.3   119  MET119     -0.1245
    111  CA        18.0160   31.2170    8.3950 C.3   119  MET119      0.1570
    112  C         17.4280   30.5430    9.6560 C.2   119  MET119      0.2261
    113  O         16.6690   29.5830    9.5360 O.2   119  MET119     -0.2867
    114  CB        19.4360   30.6860    8.1670 C.3   119  MET119      0.0387
    115  CG        20.0790   31.0590    6.8890 C.3   119  MET119      0.0595
    116  SD        19.1970   30.2310    5.5530 S.3   119  MET119     -0.1393
    117  CE        19.7140   28.5080    5.6400 C.3   119  MET119      0.0692
    118  N         13.6310   30.9270    9.5390 N.3   122  TRP122     -0.1241
    119  CA        13.0120   30.1360    8.4520 C.3   122  TRP122      0.1605
    120  C         13.0750   28.6510    8.7950 C.2   122  TRP122      0.2264
    121  O         12.0920   27.9580    8.5490 O.2   122  TRP122     -0.2867
    122  CB        13.6610   30.4750    7.1210 C.3   122  TRP122      0.0550
    123  CG        13.4700   31.9060    6.7490 C.ar  122  TRP122      0.0003
    124  CD1       12.4460   32.7330    7.1430 C.ar  122  TRP122      0.0946
    125  CD2       14.3210   32.6730    5.8940 C.ar  122  TRP122      0.0152
    126  NE1       12.6120   33.9660    6.5660 N.ar  122  TRP122     -0.2442
    127  CE2       13.7760   33.9770    5.8420 C.ar  122  TRP122      0.0810
    128  CE3       15.5070   32.4040    5.2090 C.ar  122  TRP122      0.0012
    129  CZ2       14.3430   34.9690    5.0510 C.ar  122  TRP122      0.0191
    130  CZ3       16.1080   33.3980    4.4690 C.ar  122  TRP122      0.0001
    131  CH2       15.5240   34.6630    4.3950 C.ar  122  TRP122      0.0015
    132  N         10.4520   28.0160   11.5550 N.3   125  TYR125     -0.1227
    133  CA         9.0790   27.9690   10.9950 C.3   125  TYR125      0.1736
    134  C          8.8740   26.6340   10.2590 C.2   125  TYR125      0.2596
    135  O          7.8370   25.9480   10.4120 O.2   125  TYR125     -0.2718
    136  CB         8.8040   29.2050   10.1340 C.3   125  TYR125      0.0548
    137  CG         7.4570   29.1490    9.4840 C.ar  125  TYR125     -0.0200
    138  CD1        6.2820   29.0870   10.2280 C.ar  125  TYR125     -0.0009
    139  CD2        7.3530   29.0940    8.1070 C.ar  125  TYR125     -0.0009
    140  CE1        5.0360   29.0040    9.6120 C.ar  125  TYR125      0.0417
    141  CE2        6.1210   29.0030    7.4840 C.ar  125  TYR125      0.0417
    142  CZ         4.9570   28.9760    8.2260 C.ar  125  TYR125      0.1957
    143  OH         3.7680   28.8470    7.5610 O.3   125  TYR125     -0.2866
    144  N          9.8480   26.2170    9.4470 N.am  126  THR126     -0.1953
    145  CA         9.7700   24.9560    8.6790 C.3   126  THR126      0.1897
    146  C          9.5630   23.7940    9.6700 C.2   126  THR126      0.2313
    147  O          8.7230   22.9220    9.4530 O.2   126  THR126     -0.2863
    148  CB        11.0420   24.7420    7.8340 C.3   126  THR126      0.1794
    149  OG1       11.2200   25.8340    6.9090 O.3   126  THR126     -0.2208
    150  CG2       10.9980   23.4300    7.0910 C.3   126  THR126      0.0378
    151  N          6.0920   23.6250   11.2100 N.3   129  VAL129     -0.1245
    152  CA         5.0940   23.1150   10.2490 C.3   129  VAL129      0.1561
    153  C          5.2230   21.6050   10.1800 C.2   129  VAL129      0.2260
    154  O          4.2100   20.9130   10.1570 O.2   129  VAL129     -0.2867
    155  CB         5.2950   23.7940    8.8880 C.3   129  VAL129      0.0252
    156  CG1        4.5430   23.0670    7.7950 C.3   129  VAL129      0.0019
    157  CG2        4.9200   25.2520    8.9940 C.3   129  VAL129      0.0019
    158  N          2.2950   18.9310   11.0140 N.3   133  GLU133     -0.1245
    159  CA         1.8860   17.8910   10.0660 C.3   133  GLU133      0.1567
    160  C          1.9330   16.5280   10.7590 C.2   133  GLU133      0.2260
    161  O          1.0710   15.6620   10.4940 O.2   133  GLU133     -0.2867
    162  CB         2.7970   17.9560    8.8310 C.3   133  GLU133      0.0388
    163  CG         2.4730   19.0850    7.8800 C.3   133  GLU133      0.1160
    164  CD         1.1340   18.8510    7.1690 C.2   133  GLU133      0.3649
    165  OE1        1.1280   18.4120    6.0040 O.co2 133  GLU133     -0.2457
    166  OE2        0.0880   19.1080    7.7880 O.co2 133  GLU133     -0.2457
    167  N         -0.9980   16.0980   13.3080 N.3   136  ARG136     -0.1245
    168  CA        -2.3060   15.8470   12.6510 C.3   136  ARG136      0.1563
    169  C         -2.2730   14.5290   11.8660 C.2   136  ARG136      0.2260
    170  O         -3.3110   14.1820   11.3020 O.2   136  ARG136     -0.2867
    171  CB        -2.7860   17.0750   11.8610 C.3   136  ARG136      0.0307
    172  CG        -2.0670   17.3620   10.5590 C.3   136  ARG136      0.0489
    173  CD        -2.5360   18.6320    9.8470 C.3   136  ARG136      0.2205
    174  NE        -2.5610   19.8300   10.6810 N.pl3 136  ARG136     -0.0865
    175  CZ        -1.7130   20.8660   10.6080 C.cat 136  ARG136      0.5346
    176  NH1       -0.7030   20.8840    9.7360 N.pl3 136  ARG136      0.1354
    177  NH2       -1.8850   21.8970   11.4160 N.pl3 136  ARG136      0.1354
    178  N         16.5530   23.7350    4.3300 N.3   153  ASN153     -0.1240
    179  CA        16.8170   25.1620    4.1360 C.3   153  ASN153      0.1653
    180  C         18.2130   25.3660    3.5460 C.2   153  ASN153      0.2266
    181  O         18.3760   26.2720    2.6780 O.2   153  ASN153     -0.2867
    182  CB        16.5810   25.9850    5.4060 C.3   153  ASN153      0.1155
    183  CG        15.1250   26.3670    5.5920 C.2   153  ASN153      0.2627
    184  OD1       14.7900   27.4810    5.2410 O.2   153  ASN153     -0.2716
    185  ND2       14.2930   25.4960    6.1400 N.am  153  ASN153     -0.0877
    186  N         18.1680   24.5430   -0.0370 N.3   156  ASN156     -0.1225
    187  CA        17.5400   25.5870   -0.8650 C.3   156  ASN156      0.1785
    188  C         18.4970   26.7600   -1.0330 C.2   156  ASN156      0.2597
    189  O         18.6040   27.3130   -2.1710 O.2   156  ASN156     -0.2718
    190  CB        16.2000   26.0430   -0.3080 C.3   156  ASN156      0.1169
    191  CG        15.1150   25.0300   -0.5570 C.2   156  ASN156      0.2627
    192  OD1       15.4190   23.8640   -0.8730 O.2   156  ASN156     -0.2716
    193  ND2       13.8740   25.4870   -0.4660 N.am  156  ASN156     -0.0877
    194  N         19.2010   27.1510    0.0140 N.am  157  GLU157     -0.1979
    195  CA        20.1410   28.2780   -0.0790 C.3   157  GLU157      0.1602
    196  C         21.1830   27.9300   -1.1660 C.2   157  GLU157      0.2287
    197  O         21.3680   28.7190   -2.1580 O.2   157  GLU157     -0.2864
    198  CB        20.8150   28.5040    1.2700 C.3   157  GLU157      0.0415
    199  CG        21.9440   29.5080    1.2040 C.3   157  GLU157      0.1163
    200  CD        22.8410   29.4690    2.4480 C.2   157  GLU157      0.3649
    201  OE1       22.3260   29.2920    3.4990 O.co2 157  GLU157     -0.2457
    202  OE2       24.0480   29.4810    2.3260 O.co2 157  GLU157     -0.2457
    203  N         19.2410   27.1300   -4.9460 N.3   160  LEU160     -0.1231
    204  CA        18.6920   28.3540   -5.5690 C.3   160  LEU160      0.1693
    205  C         19.8090   29.2810   -6.0170 C.2   160  LEU160      0.2592
    206  O         19.7350   29.7740   -7.1610 O.2   160  LEU160     -0.2718
    207  CB        17.7670   29.0760   -4.6070 C.3   160  LEU160      0.0284
    208  CG        16.4370   28.3830   -4.3730 C.3   160  LEU160      0.0019
    209  CD1       15.7160   29.0830   -3.2440 C.3   160  LEU160      0.0001
    210  CD2       15.5780   28.3480   -5.6520 C.3   160  LEU160      0.0001
    211  N         20.7670   29.5680   -5.1450 N.am  161  PHE161     -0.1976
    212  CA        21.7910   30.6010   -5.4200 C.3   161  PHE161      0.1639
    213  C         22.7780   30.0690   -6.4750 C.2   161  PHE161      0.2290
    214  O         23.2680   30.8440   -7.3180 O.2   161  PHE161     -0.2864
    215  CB        22.4500   31.0850   -4.1190 C.3   161  PHE161      0.0560
    216  CG        21.4480   31.6870   -3.1500 C.ar  161  PHE161     -0.0200
    217  CD1       20.1430   31.9840   -3.5510 C.ar  161  PHE161     -0.0042
    218  CD2       21.8090   32.0010   -1.8600 C.ar  161  PHE161     -0.0042
    219  CE1       19.2290   32.5600   -2.6720 C.ar  161  PHE161     -0.0003
    220  CE2       20.8940   32.5960   -0.9960 C.ar  161  PHE161     -0.0003
    221  CZ        19.6030   32.8340   -1.3970 C.ar  161  PHE161     -0.0000
    222  N         11.6220   18.2950   -0.8590 N.3   184  TRP184     -0.1241
    223  CA        10.8700   18.7080    0.3730 C.3   184  TRP184      0.1605
    224  C          9.7070   17.7310    0.6180 C.2   184  TRP184      0.2264
    225  O          9.6040   17.0950    1.7150 O.2   184  TRP184     -0.2867
    226  CB        10.3910   20.1400    0.2550 C.3   184  TRP184      0.0550
    227  CG        11.4380   21.1530    0.5430 C.ar  184  TRP184      0.0003
    228  CD1       12.6480   21.3320   -0.0860 C.ar  184  TRP184      0.0946
    229  CD2       11.3770   22.1560    1.5660 C.ar  184  TRP184      0.0152
    230  NE1       13.3170   22.3880    0.4670 N.ar  184  TRP184     -0.2442
    231  CE2       12.5680   22.8960    1.4960 C.ar  184  TRP184      0.0810
    232  CE3       10.4480   22.4940    2.5560 C.ar  184  TRP184      0.0012
    233  CZ2       12.8460   23.9600    2.3620 C.ar  184  TRP184      0.0191
    234  CZ3       10.7260   23.5610    3.3810 C.ar  184  TRP184      0.0001
    235  CH2       11.8960   24.2710    3.2970 C.ar  184  TRP184      0.0015
    236  N          7.2140   13.7290    3.8440 N.3   189  TYR189     -0.1241
    237  CA         6.0640   12.7910    3.8940 C.3   189  TYR189      0.1605
    238  C          6.4880   11.3470    3.7320 C.2   189  TYR189      0.2264
    239  O          5.6010   10.4830    3.9810 O.2   189  TYR189     -0.2867
    240  CB         4.9890   13.2190    2.8970 C.3   189  TYR189      0.0534
    241  CG         4.4140   14.5600    3.2570 C.ar  189  TYR189     -0.0201
    242  CD1        3.4050   14.7160    4.2050 C.ar  189  TYR189     -0.0009
    243  CD2        4.9020   15.7100    2.6580 C.ar  189  TYR189     -0.0009
    244  CE1        2.9600   15.9750    4.5820 C.ar  189  TYR189      0.0417
    245  CE2        4.4490   16.9560    3.0080 C.ar  189  TYR189      0.0417
    246  CZ         3.4450   17.0980    3.9420 C.ar  189  TYR189      0.1957
    247  OH         3.0810   18.3620    4.2830 O.3   189  TYR189     -0.2866
@<TRIPOS>BOND
     1   214   213    2
     2   206   205    2
     3   213   212    1
     4    88    87    2
     5   205   204    1
     6   205   211   am
     7    87    86    1
     8   210   208    1
     9   204   203    1
    10   204   207    1
    11   212   211    1
    12   212   215    1
    13   207   208    1
    14   208   209    1
    15    86    85    1
    16    86    89    1
    17   215   216    1
    18    77    76    2
    19    89    90    1
    20   217   216   ar
    21   217   219   ar
    22    76    75    1
    23   216   218   ar
    24    72    70    1
    25    69    68    2
    26    68    67    1
    27   219   221   ar
    28    70    67    1
    29    70    71    1
    30   189   188    2
    31   197   196    2
    32    90    91   ar
    33    90    92   ar
    34    74    75    1
    35    75    78    1
    36   218   220   ar
    37    40    41    1
    38    67    66    1
    39    73    71    1
    40    91    93   ar
    41    50    51    2
    42    50    49    1
    43   221   220   ar
    44    92    94   ar
    45    66    64   am
    46   196   195    1
    47    78    79    1
    48    62    63    1
    49   188   187    1
    50   188   194   am
    51   192   191    2
    52   187   190    1
    53   187   186    1
    54   222   223    1
    55    31    32    2
    56    31    30    1
    57    41    42    1
    58    41    44    1
    59    29    30    1
    60    64    65    2
    61    64    63    1
    62    48    42   am
    63    48    49    1
    64   191   193   am
    65   191   190    1
    66    42    43    2
    67    49    52    1
    68    52    53    1
    69    93    95   ar
    70   228   230   ar
    71   228   227   ar
    72   195   194    1
    73   195   198    1
    74    94    95   ar
    75    30    33    1
    76   226   223    1
    77   226   227    1
    78    79    80   ar
    79    79    81   ar
    80   223   224    1
    81   230   231   ar
    82    45    44    1
    83    45    46    1
    84    15    14    1
    85   227   229   ar
    86    16    14    1
    87   224   225    2
    88    80    82   ar
    89    14    13    1
    90    33    34    1
    91    53    54   ar
    92    53    55   ar
    93    81    83   ar
    94   199   198    1
    95   199   200    1
    96    54    56   ar
    97   231   229   ar
    98   231   233   ar
    99    46    47    1
   100   229   232   ar
   101    25    24    2
   102    24    23    1
   103    82    84   ar
   104   109   108   ar
   105   109   107   ar
   106   202   200   ar
   107    55    58   ar
   108    55    57   ar
   109   233   235   ar
   110    34    35    1
   111    13    10    1
   112   200   201   ar
   113    83    84   ar
   114   232   234   ar
   115   243   245   ar
   116   243   241   ar
   117   181   180    2
   118   108   106   ar
   119    58    60   ar
   120    56    57   ar
   121   107   105   ar
   122   240   241    1
   123   240   237    1
   124   245   246   ar
   125    10     9    1
   126    10    11    1
   127    23    22    1
   128    23    26    1
   129     1     2    1
   130    35    36    1
   131   241   242   ar
   132   235   234   ar
   133    57    59   ar
   134   180   179    1
   135   238   237    1
   136   238   239    2
   137   106   103   ar
   138   236   237    1
   139     2     5    1
   140     2     3    1
   141   105   103   ar
   142   105   104   ar
   143    22    28    1
   144   246   247    1
   145   246   244   ar
   146    60    61   ar
   147   179   178    1
   148   179   182    1
   149     7     6    1
   150   242   244   ar
   151    26    27    1
   152    12    11    2
   153    11    17   am
   154   103   101   ar
   155   131   130   ar
   156   131   129   ar
   157     5     6    1
   158    39    37    1
   159   130   128   ar
   160    36    37    2
   161   104   102   ar
   162    59    61   ar
   163     3     4    2
   164   129   127   ar
   165     6     8    1
   166    37    38    1
   167   128   125   ar
   168   184   183    2
   169    28    27    1
   170   101   102   ar
   171   101   100    1
   172    17    18    1
   173   182   183    1
   174   116   117    1
   175   116   115    1
   176   183   185   am
   177   127   125   ar
   178   127   126   ar
   179   125   123   ar
   180   165   164   ar
   181   100    97    1
   182   126   124   ar
   183    18    19    1
   184    18    21    1
   185   123   122    1
   186   123   124   ar
   187   115   114    1
   188   149   148    1
   189    19    20    2
   190   150   148    1
   191    97    96    1
   192    97    98    1
   193   122   119    1
   194   164   166   ar
   195   164   163    1
   196   141   139   ar
   197   141   142   ar
   198   143   142    1
   199   156   155    1
   200   148   145    1
   201   163   162    1
   202    99    98    2
   203   139   137   ar
   204   114   111    1
   205   142   140   ar
   206   111   110    1
   207   111   112    1
   208   119   120    1
   209   119   118    1
   210   121   120    2
   211   145   144    1
   212   145   146    1
   213   162   159    1
   214   155   157    1
   215   155   152    1
   216   144   134   am
   217   147   146    2
   218   137   136    1
   219   137   138   ar
   220   113   112    2
   221   140   138   ar
   222   176   175    1
   223   173   172    1
   224   173   174    1
   225   159   160    1
   226   159   158    1
   227   136   133    1
   228   154   153    2
   229   153   152    1
   230   152   151    1
   231   134   135    2
   232   134   133    1
   233   161   160    2
   234   172   171    1
   235   175   174    2
   236   175   177    1
   237   133   132    1
   238   170   169    2
   239   171   168    1
   240   169   168    1
   241   168   167    1
