@<TRIPOS>MOLECULE
tmp/6hnzA00.pdb
 204 201 0 0 0
SMALL
GASTEIGER

@<TRIPOS>ATOM
      1  N         -7.0430  -35.8420    3.3600 N.3    64  LEU64      -0.1245
      2  CA        -6.8030  -34.5600    4.0680 C.3    64  LEU64       0.1561
      3  C         -5.7670  -34.7440    5.1970 C.2    64  LEU64       0.2260
      4  O         -4.8450  -33.9200    5.3190 O.2    64  LEU64      -0.2867
      5  CB        -8.1300  -34.0680    4.6210 C.3    64  LEU64       0.0270
      6  CG        -7.9910  -32.7170    5.3170 C.3    64  LEU64       0.0019
      7  CD1       -7.5170  -31.6660    4.3280 C.3    64  LEU64       0.0001
      8  CD2       -9.2770  -32.2960    5.9860 C.3    64  LEU64       0.0001
      9  N         -2.2110  -34.8280    3.6630 N.3    67  LEU67      -0.1231
     10  CA        -1.8380  -33.4260    3.3870 C.3    67  LEU67       0.1693
     11  C         -1.3590  -32.7290    4.6510 C.2    67  LEU67       0.2591
     12  O         -0.2980  -32.1160    4.6010 O.2    67  LEU67      -0.2718
     13  CB        -3.0650  -32.6900    2.8600 C.3    67  LEU67       0.0284
     14  CG        -3.1210  -32.4640    1.3610 C.3    67  LEU67       0.0019
     15  CD1       -4.0910  -31.3200    1.1170 C.3    67  LEU67       0.0001
     16  CD2       -1.7430  -32.1580    0.7710 C.3    67  LEU67       0.0001
     17  N         -2.1550  -32.7870    5.7190 N.am   68  ALA68      -0.1980
     18  CA        -1.9020  -32.1160    7.0100 C.3    68  ALA68       0.1597
     19  C         -0.6010  -32.6260    7.6530 C.2    68  ALA68       0.2287
     20  O         -0.1990  -31.9990    8.6350 O.2    68  ALA68      -0.2864
     21  CB        -3.0700  -32.3250    7.9390 C.3    68  ALA68       0.0319
     22  N         -1.7230  -23.9750   -0.9270 N.3    74  MET74      -0.1230
     23  CA        -2.0570  -24.7510    0.2750 C.3    74  MET74       0.1702
     24  C         -3.5700  -25.0120    0.2430 C.2    74  MET74       0.2592
     25  O         -3.9760  -26.2010    0.3200 O.2    74  MET74      -0.2718
     26  CB        -1.7260  -23.9950    1.5700 C.3    74  MET74       0.0401
     27  CG        -2.0520  -24.8060    2.8210 C.3    74  MET74       0.0596
     28  SD        -1.5780  -23.9560    4.3610 S.3    74  MET74      -0.1393
     29  CE        -2.7480  -22.5980    4.3750 C.3    74  MET74       0.0692
     30  N         -4.3590  -23.9390    0.1410 N.am   75  TRP75      -0.1976
     31  CA        -5.8350  -24.1220    0.1730 C.3    75  TRP75       0.1640
     32  C         -6.2920  -24.8620   -1.0880 C.2    75  TRP75       0.2290
     33  O         -7.2270  -25.6960   -0.9910 O.2    75  TRP75      -0.2864
     34  CB        -6.5480  -22.7900    0.3790 C.3    75  TRP75       0.0576
     35  CG        -6.2820  -22.2270    1.7330 C.ar   75  TRP75       0.0006
     36  CD1       -5.5520  -21.1040    2.0210 C.ar   75  TRP75       0.0946
     37  CD2       -6.8040  -22.6970    2.9860 C.ar   75  TRP75       0.0152
     38  NE1       -5.5680  -20.8640    3.3660 N.ar   75  TRP75      -0.2442
     39  CE2       -6.3120  -21.8240    3.9810 C.ar   75  TRP75       0.0810
     40  CE3       -7.5900  -23.7880    3.3650 C.ar   75  TRP75       0.0012
     41  CZ2       -6.6310  -21.9800    5.3250 C.ar   75  TRP75       0.0191
     42  CZ3       -7.8570  -23.9680    4.7110 C.ar   75  TRP75       0.0001
     43  CH2       -7.4200  -23.0530    5.6620 C.ar   75  TRP75       0.0015
     44  N         -4.7510  -27.2310   -2.7470 N.3    77  THR77      -0.1203
     45  CA        -4.5250  -28.6800   -2.5930 C.3    77  THR77       0.1994
     46  C         -5.5640  -29.2780   -1.6610 C.2    77  THR77       0.2618
     47  O         -5.9910  -30.4610   -1.8830 O.2    77  THR77      -0.2717
     48  CB        -3.0820  -28.9820   -2.1670 C.3    77  THR77       0.1784
     49  OG1       -2.2120  -28.2630   -3.0210 O.3    77  THR77      -0.2211
     50  CG2       -2.7990  -30.4600   -2.3100 C.3    77  THR77       0.0376
     51  N         -5.9510  -28.5610   -0.5880 N.am   78  GLY78      -0.1942
     52  CA        -6.9430  -29.0440    0.3720 C.3    78  GLY78       0.2014
     53  C         -8.3280  -29.1750   -0.2640 C.2    78  GLY78       0.2638
     54  O         -8.9940  -30.2710   -0.1810 O.2    78  GLY78      -0.2714
     55  N         -8.7850  -28.1260   -0.9210 N.am   79  ILE79      -0.1977
     56  CA       -10.0910  -28.1790   -1.6370 C.3    79  ILE79       0.1596
     57  C        -10.0500  -29.2930   -2.6860 C.2    79  ILE79       0.2287
     58  O        -11.0280  -29.9740   -2.9000 O.2    79  ILE79      -0.2864
     59  CB       -10.4730  -26.8300   -2.2470 C.3    79  ILE79       0.0276
     60  CG1      -10.5780  -25.8070   -1.1090 C.3    79  ILE79       0.0022
     61  CG2      -11.7440  -26.9860   -3.0270 C.3    79  ILE79       0.0022
     62  CD1      -10.6590  -24.3890   -1.5590 C.3    79  ILE79       0.0001
     63  N        -11.2250  -32.8740   -1.9180 N.3    82  PHE82      -0.1241
     64  CA       -12.7040  -33.0570   -1.9190 C.3    82  PHE82       0.1605
     65  C        -13.2420  -33.0440   -3.3460 C.2    82  PHE82       0.2264
     66  O        -14.1100  -33.8670   -3.6910 O.2    82  PHE82      -0.2867
     67  CB       -13.3370  -31.9880   -1.0330 C.3    82  PHE82       0.0534
     68  CG       -12.9880  -32.2340    0.3990 C.ar   82  PHE82      -0.0203
     69  CD1      -13.7160  -33.1100    1.1680 C.ar   82  PHE82      -0.0042
     70  CD2      -11.8440  -31.6540    0.9480 C.ar   82  PHE82      -0.0042
     71  CE1      -13.3450  -33.3600    2.4900 C.ar   82  PHE82      -0.0003
     72  CE2      -11.4610  -31.9490    2.2450 C.ar   82  PHE82      -0.0003
     73  CZ       -12.2030  -32.8140    3.0000 C.ar   82  PHE82      -0.0000
     74  N        -14.7520  -36.7090   -4.2200 N.3    86  PHE86      -0.1241
     75  CA       -16.2130  -36.7490   -4.4370 C.3    86  PHE86       0.1605
     76  C        -16.4540  -36.7910   -5.9560 C.2    86  PHE86       0.2264
     77  O        -17.4300  -37.4410   -6.4120 O.2    86  PHE86      -0.2867
     78  CB       -16.9180  -35.5940   -3.7400 C.3    86  PHE86       0.0534
     79  CG       -16.7960  -35.5760   -2.2310 C.ar   86  PHE86      -0.0203
     80  CD1      -16.5120  -36.7020   -1.5080 C.ar   86  PHE86      -0.0042
     81  CD2      -16.8930  -34.3810   -1.5410 C.ar   86  PHE86      -0.0042
     82  CE1      -16.4060  -36.6630   -0.1140 C.ar   86  PHE86      -0.0003
     83  CE2      -16.8320  -34.3560   -0.1580 C.ar   86  PHE86      -0.0003
     84  CZ       -16.5800  -35.4950    0.5450 C.ar   86  PHE86      -0.0000
     85  N        -22.7730  -37.5010    7.6160 N.3   110  TRP110     -0.1241
     86  CA       -22.3840  -36.2570    6.9010 C.3   110  TRP110      0.1605
     87  C        -22.0670  -35.1610    7.9250 C.2   110  TRP110      0.2264
     88  O        -21.0230  -34.5000    7.8360 O.2   110  TRP110     -0.2867
     89  CB       -23.4440  -35.8830    5.8560 C.3   110  TRP110      0.0550
     90  CG       -22.8910  -34.7610    5.0420 C.ar  110  TRP110      0.0003
     91  CD1      -23.1930  -33.4280    5.1290 C.ar  110  TRP110      0.0946
     92  CD2      -21.8280  -34.8650    4.0740 C.ar  110  TRP110      0.0152
     93  NE1      -22.4180  -32.7170    4.2500 N.ar  110  TRP110     -0.2442
     94  CE2      -21.5710  -33.5580    3.5960 C.ar  110  TRP110      0.0810
     95  CE3      -21.1450  -35.9350    3.4970 C.ar  110  TRP110      0.0012
     96  CZ2      -20.5930  -33.2970    2.6340 C.ar  110  TRP110      0.0191
     97  CZ3      -20.1900  -35.6790    2.5380 C.ar  110  TRP110      0.0001
     98  CH2      -19.9240  -34.3780    2.1050 C.ar  110  TRP110      0.0015
     99  N        -18.5110  -33.1270    8.4230 N.3   114  MET114     -0.1245
    100  CA       -18.4790  -31.6330    8.2140 C.3   114  MET114      0.1570
    101  C        -17.9270  -30.9520    9.4710 C.2   114  MET114      0.2261
    102  O        -17.1290  -29.9730    9.3490 O.2   114  MET114     -0.2867
    103  CB       -19.8580  -31.1190    7.8390 C.3   114  MET114      0.0387
    104  CG       -20.2700  -31.5180    6.4570 C.3   114  MET114      0.0595
    105  SD       -19.3220  -30.7980    5.1180 S.3   114  MET114     -0.1393
    106  CE       -19.8240  -29.0710    5.2000 C.3   114  MET114      0.0692
    107  N        -14.1600  -31.3960    9.4470 N.3   117  TRP117     -0.1241
    108  CA       -13.5010  -30.6490    8.3490 C.3   117  TRP117      0.1605
    109  C        -13.5500  -29.1480    8.6830 C.2   117  TRP117      0.2264
    110  O        -12.5680  -28.4440    8.4520 O.2   117  TRP117     -0.2867
    111  CB       -14.1570  -30.9730    7.0080 C.3   117  TRP117      0.0550
    112  CG       -13.9610  -32.4170    6.6510 C.ar  117  TRP117      0.0003
    113  CD1      -12.8860  -33.1730    7.0170 C.ar  117  TRP117      0.0946
    114  CD2      -14.7710  -33.2210    5.8070 C.ar  117  TRP117      0.0152
    115  NE1      -13.0430  -34.4550    6.5700 N.ar  117  TRP117     -0.2442
    116  CE2      -14.1700  -34.5170    5.8080 C.ar  117  TRP117      0.0810
    117  CE3      -15.9870  -33.0330    5.1420 C.ar  117  TRP117      0.0012
    118  CZ2      -14.6890  -35.5550    5.0490 C.ar  117  TRP117      0.0191
    119  CZ3      -16.5330  -34.0890    4.4490 C.ar  117  TRP117      0.0001
    120  CH2      -15.8840  -35.3300    4.4040 C.ar  117  TRP117      0.0015
    121  N        -10.9360  -28.4800   11.3720 N.3   120  TYR120     -0.1227
    122  CA        -9.5740  -28.4780   10.8000 C.3   120  TYR120      0.1736
    123  C         -9.3270  -27.1590   10.0570 C.2   120  TYR120      0.2596
    124  O         -8.2990  -26.4670   10.2550 O.2   120  TYR120     -0.2718
    125  CB        -9.2790  -29.7010    9.9330 C.3   120  TYR120      0.0548
    126  CG        -7.8060  -29.7330    9.6510 C.ar  120  TYR120     -0.0200
    127  CD1       -6.8650  -29.7760   10.6770 C.ar  120  TYR120     -0.0009
    128  CD2       -7.3460  -29.5840    8.3640 C.ar  120  TYR120     -0.0009
    129  CE1       -5.5000  -29.7150   10.4190 C.ar  120  TYR120      0.0417
    130  CE2       -5.9910  -29.5450    8.0940 C.ar  120  TYR120      0.0417
    131  CZ        -5.0620  -29.6050    9.1150 C.ar  120  TYR120      0.1957
    132  OH        -3.7370  -29.5100    8.7750 O.3   120  TYR120     -0.2866
    133  N        -10.2880  -26.7360    9.2540 N.am  121  THR121     -0.1953
    134  CA       -10.2210  -25.4320    8.5790 C.3   121  THR121      0.1897
    135  C         -9.9590  -24.3060    9.5830 C.2   121  THR121      0.2313
    136  O         -9.1040  -23.4420    9.3180 O.2   121  THR121     -0.2863
    137  CB       -11.4940  -25.1600    7.7320 C.3   121  THR121      0.1794
    138  OG1      -11.6670  -26.1920    6.7550 O.3   121  THR121     -0.2208
    139  CG2      -11.3960  -23.8340    7.0260 C.3   121  THR121      0.0378
    140  N         -6.4230  -24.2630   10.9670 N.3   124  VAL124     -0.1245
    141  CA        -5.4270  -23.7250   10.0000 C.3   124  VAL124      0.1561
    142  C         -5.5450  -22.1880    9.9130 C.2   124  VAL124      0.2260
    143  O         -4.5410  -21.5180    9.9190 O.2   124  VAL124     -0.2867
    144  CB        -5.5580  -24.4290    8.6320 C.3   124  VAL124      0.0252
    145  CG1       -4.5460  -23.8550    7.6320 C.3   124  VAL124      0.0019
    146  CG2       -5.3880  -25.9290    8.7830 C.3   124  VAL124      0.0019
    147  N        -17.0780  -23.9610    4.2280 N.3   148  ASN148     -0.1240
    148  CA       -17.2390  -25.4090    4.0060 C.3   148  ASN148      0.1653
    149  C        -18.6420  -25.6620    3.4570 C.2   148  ASN148      0.2266
    150  O        -18.7970  -26.5640    2.6050 O.2   148  ASN148     -0.2867
    151  CB       -16.9440  -26.1760    5.3010 C.3   148  ASN148      0.1155
    152  CG       -15.4600  -26.4650    5.4120 C.2   148  ASN148      0.2627
    153  OD1      -14.9480  -27.2360    4.6030 O.2   148  ASN148     -0.2716
    154  ND2      -14.7100  -25.6980    6.1770 N.am  148  ASN148     -0.0877
    155  N        -18.5630  -24.9010   -0.1520 N.3   151  ASN151     -0.1225
    156  CA       -17.9490  -26.0150   -0.9190 C.3   151  ASN151      0.1784
    157  C        -18.9350  -27.1570   -1.0890 C.2   151  ASN151      0.2593
    158  O        -19.0330  -27.7140   -2.2180 O.2   151  ASN151     -0.2718
    159  CB       -16.6440  -26.4800   -0.2990 C.3   151  ASN151      0.1169
    160  CG       -15.5160  -25.5090   -0.5090 C.2   151  ASN151      0.2627
    161  OD1      -15.7610  -24.2970   -0.7640 O.2   151  ASN151     -0.2716
    162  ND2      -14.3110  -26.0010   -0.2350 N.am  151  ASN151     -0.0877
    163  N        -19.5850  -27.5870   -0.0220 N.am  152  GLU152     -0.2033
    164  CA       -20.5830  -28.6640   -0.0650 C.3   152  GLU152      0.1288
    165  C        -21.6250  -28.3660   -1.1640 C.3   152  GLU152      0.2036
    166  O        -21.7910  -29.1690   -2.1630 O.3   152  GLU152     -0.2185
    167  CB       -21.2590  -28.7750    1.2990 C.3   152  GLU152      0.0362
    168  CG       -22.3470  -29.7930    1.2830 C.3   152  GLU152      0.1159
    169  CD       -23.2850  -29.7720    2.4870 C.2   152  GLU152      0.3649
    170  OE1      -22.8050  -29.9130    3.5750 O.co2 152  GLU152     -0.2457
    171  OE2      -24.5320  -29.6700    2.3040 O.co2 152  GLU152     -0.2457
    172  N        -19.7770  -27.7740   -4.9080 N.3   155  LEU155     -0.1231
    173  CA       -19.2210  -29.0170   -5.5040 C.3   155  LEU155      0.1693
    174  C        -20.3600  -29.9150   -5.9690 C.2   155  LEU155      0.2592
    175  O        -20.3230  -30.3580   -7.1490 O.2   155  LEU155     -0.2718
    176  CB       -18.3380  -29.7550   -4.5040 C.3   155  LEU155      0.0284
    177  CG       -17.0150  -29.0770   -4.1880 C.3   155  LEU155      0.0019
    178  CD1      -16.3380  -29.7520   -2.9960 C.3   155  LEU155      0.0001
    179  CD2      -16.1200  -29.0660   -5.4270 C.3   155  LEU155      0.0001
    180  N        -21.3750  -30.1060   -5.1360 N.am  156  PHE156     -0.1976
    181  CA       -22.4760  -31.0680   -5.3890 C.3   156  PHE156      0.1639
    182  C        -23.4160  -30.5280   -6.4720 C.2   156  PHE156      0.2290
    183  O        -23.8050  -31.3120   -7.3660 O.2   156  PHE156     -0.2864
    184  CB       -23.1680  -31.4590   -4.0910 C.3   156  PHE156      0.0560
    185  CG       -22.2560  -32.2220   -3.1650 C.ar  156  PHE156     -0.0200
    186  CD1      -21.1930  -32.9670   -3.6550 C.ar  156  PHE156     -0.0042
    187  CD2      -22.4330  -32.1590   -1.8020 C.ar  156  PHE156     -0.0042
    188  CE1      -20.3340  -33.6370   -2.8020 C.ar  156  PHE156     -0.0003
    189  CE2      -21.6000  -32.8600   -0.9490 C.ar  156  PHE156     -0.0003
    190  CZ       -20.5300  -33.5580   -1.4460 C.ar  156  PHE156     -0.0000
    191  N        -12.0540  -18.5910   -0.9560 N.3   179  TRP179     -0.1241
    192  CA       -11.3520  -18.9590    0.3220 C.3   179  TRP179      0.1605
    193  C        -10.1910  -18.0060    0.5620 C.2   179  TRP179      0.2264
    194  O        -10.0950  -17.4150    1.6780 O.2   179  TRP179     -0.2867
    195  CB       -10.8650  -20.4120    0.2680 C.3   179  TRP179      0.0550
    196  CG       -11.9400  -21.3990    0.5490 C.ar  179  TRP179      0.0003
    197  CD1      -13.1220  -21.5880   -0.1210 C.ar  179  TRP179      0.0946
    198  CD2      -11.8900  -22.3960    1.5980 C.ar  179  TRP179      0.0152
    199  NE1      -13.8250  -22.6090    0.4570 N.ar  179  TRP179     -0.2442
    200  CE2      -13.1010  -23.1120    1.5280 C.ar  179  TRP179      0.0810
    201  CE3      -10.9720  -22.7490    2.5930 C.ar  179  TRP179      0.0012
    202  CZ2      -13.4000  -24.1610    2.3940 C.ar  179  TRP179      0.0191
    203  CZ3      -11.2640  -23.8320    3.4220 C.ar  179  TRP179      0.0001
    204  CH2      -12.5020  -24.4530    3.3910 C.ar  179  TRP179      0.0015
@<TRIPOS>BOND
     1   183   182    2
     2   175   174    2
     3   182   181    1
     4    77    76    2
     5   174   173    1
     6   174   180   am
     7    76    75    1
     8   173   172    1
     9   173   176    1
    10   179   177    1
    11   181   180    1
    12   181   184    1
    13   176   177    1
    14    75    74    1
    15    75    78    1
    16   177   178    1
    17   184   185    1
    18    78    79    1
    19    66    65    2
    20   186   185   ar
    21   186   188   ar
    22    65    64    1
    23   185   187   ar
    24    61    59    1
    25    49    48    1
    26    58    57    2
    27   188   190   ar
    28    44    45    1
    29    57    56    1
    30    45    48    1
    31    45    46    1
    32    50    48    1
    33    59    56    1
    34    59    60    1
    35    79    81   ar
    36    79    80   ar
    37   158   157    2
    38   166   165    1
    39    64    63    1
    40    64    67    1
    41    47    46    2
    42   187   189   ar
    43    46    51   am
    44    56    55    1
    45    62    60    1
    46    81    83   ar
    47    80    82   ar
    48   190   189   ar
    49   165   164    1
    50   157   156    1
    51   157   163   am
    52    32    33    2
    53    32    31    1
    54    67    68    1
    55   191   192    1
    56    22    23    1
    57    55    53   am
    58   156   159    1
    59   156   155    1
    60   161   160    2
    61    51    52    1
    62   160   159    1
    63   160   162   am
    64    53    54    2
    65    53    52    1
    66    83    84   ar
    67   197   199   ar
    68   197   196   ar
    69    82    84   ar
    70   164   163    1
    71   164   167    1
    72    30    31    1
    73    30    24   am
    74    31    34    1
    75    24    23    1
    76    24    25    2
    77   195   192    1
    78   195   196    1
    79    23    26    1
    80   192   193    1
    81    34    35    1
    82    68    70   ar
    83    68    69   ar
    84   199   200   ar
    85   196   198   ar
    86   193   194    2
    87    16    14    1
    88    70    72   ar
    89    15    14    1
    90    69    71   ar
    91   168   167    1
    92   168   169    1
    93    14    13    1
    94   200   198   ar
    95   200   202   ar
    96    26    27    1
    97   198   201   ar
    98    35    36   ar
    99    35    37   ar
   100    36    38   ar
   101    98    97   ar
   102    98    96   ar
   103    72    73   ar
   104   171   169   ar
   105   202   204   ar
   106   169   170   ar
   107    71    73   ar
   108    97    95   ar
   109   201   203   ar
   110   150   149    2
   111    96    94   ar
   112    27    28    1
   113    13    10    1
   114    37    40   ar
   115    37    39   ar
   116     1     2    1
   117    40    42   ar
   118    38    39   ar
   119    10     9    1
   120    10    11    1
   121   204   203   ar
   122   149   148    1
   123    95    92   ar
   124    94    92   ar
   125    94    93   ar
   126    39    41   ar
   127   148   147    1
   128   148   151    1
   129     2     5    1
   130     2     3    1
   131    92    90   ar
   132    93    91   ar
   133     7     6    1
   134    28    29    1
   135   120   119   ar
   136   120   118   ar
   137   119   117   ar
   138    12    11    2
   139   153   152    2
   140     5     6    1
   141    11    17   am
   142    42    43   ar
   143    90    91   ar
   144    90    89    1
   145   118   116   ar
   146   105   106    1
   147   105   104    1
   148   117   114   ar
   149     3     4    2
   150   151   152    1
   151     6     8    1
   152    41    43   ar
   153   152   154   am
   154    17    18    1
   155   114   116   ar
   156   114   112   ar
   157   116   115   ar
   158    89    86    1
   159   104   103    1
   160   115   113   ar
   161   112   111    1
   162   112   113   ar
   163   138   137    1
   164    86    85    1
   165    86    87    1
   166   111   108    1
   167    18    19    1
   168    18    21    1
   169   139   137    1
   170   145   144    1
   171    19    20    2
   172   137   134    1
   173    88    87    2
   174   103   100    1
   175   130   128   ar
   176   130   131   ar
   177   100    99    1
   178   100   101    1
   179   108   109    1
   180   108   107    1
   181   128   126   ar
   182   110   109    2
   183   134   133    1
   184   134   135    1
   185   144   146    1
   186   144   141    1
   187   132   131    1
   188   131   129   ar
   189   133   123   am
   190   136   135    2
   191   102   101    2
   192   126   125    1
   193   126   127   ar
   194   142   143    2
   195   142   141    1
   196   125   122    1
   197   141   140    1
   198   123   124    2
   199   123   122    1
   200   129   127   ar
   201   122   121    1
