@<TRIPOS>MOLECULE
tmp/6ho0A00.pdb
 212 208 0 0 0
SMALL
GASTEIGER

@<TRIPOS>ATOM
      1  N         -6.7540  -35.5040    3.3660 N.3    64  LEU64      -0.1245
      2  CA        -6.4450  -34.1930    4.0120 C.3    64  LEU64       0.1561
      3  C         -5.4190  -34.3980    5.1570 C.2    64  LEU64       0.2260
      4  O         -4.4560  -33.6070    5.2400 O.2    64  LEU64      -0.2867
      5  CB        -7.7500  -33.5510    4.4930 C.3    64  LEU64       0.0270
      6  CG        -7.5900  -32.2290    5.2580 C.3    64  LEU64       0.0019
      7  CD1       -7.1020  -31.1270    4.3310 C.3    64  LEU64       0.0001
      8  CD2       -8.9110  -31.8610    5.9180 C.3    64  LEU64       0.0001
      9  N         -1.8540  -34.4900    3.5660 N.3    67  LEU67      -0.1231
     10  CA        -1.4060  -33.0840    3.3750 C.3    67  LEU67       0.1693
     11  C         -0.9080  -32.4460    4.6690 C.2    67  LEU67       0.2591
     12  O          0.1620  -31.7970    4.6390 O.2    67  LEU67      -0.2718
     13  CB        -2.5890  -32.2660    2.8600 C.3    67  LEU67       0.0284
     14  CG        -2.8180  -32.3780    1.3690 C.3    67  LEU67       0.0019
     15  CD1       -3.9610  -31.4650    0.9640 C.3    67  LEU67       0.0001
     16  CD2       -1.5390  -32.0270    0.6240 C.3    67  LEU67       0.0001
     17  N         -1.6960  -32.5530    5.7370 N.am   68  ALA68      -0.1980
     18  CA        -1.5020  -31.8250    7.0140 C.3    68  ALA68       0.1597
     19  C         -0.1830  -32.2370    7.6970 C.2    68  ALA68       0.2287
     20  O          0.1900  -31.5480    8.6500 O.2    68  ALA68      -0.2864
     21  CB        -2.6800  -32.0680    7.9340 C.3    68  ALA68       0.0319
     22  N          3.2340  -32.0240    7.0440 N.3    70  ASN70      -0.1240
     23  CA         4.1570  -31.2830    6.1540 C.3    70  ASN70       0.1653
     24  C          3.9780  -29.7850    6.3980 C.2    70  ASN70       0.2266
     25  O          4.4980  -29.0170    5.5620 O.2    70  ASN70      -0.2867
     26  CB         3.9150  -31.5950    4.6770 C.3    70  ASN70       0.1155
     27  CG         4.8590  -30.7980    3.8060 C.2    70  ASN70       0.2627
     28  OD1        6.0170  -30.6280    4.1730 O.2    70  ASN70      -0.2716
     29  ND2        4.3740  -30.2660    2.6940 N.am   70  ASN70      -0.0877
     30  N         -1.3840  -23.6680   -1.0080 N.3    75  MET75      -0.1230
     31  CA        -1.7740  -24.5000    0.1550 C.3    75  MET75       0.1702
     32  C         -3.3020  -24.6990    0.1180 C.2    75  MET75       0.2592
     33  O         -3.7660  -25.8430    0.1820 O.2    75  MET75      -0.2718
     34  CB        -1.3640  -23.8160    1.4750 C.3    75  MET75       0.0401
     35  CG        -1.7900  -24.5880    2.7280 C.3    75  MET75       0.0596
     36  SD        -1.4070  -23.7580    4.3240 S.3    75  MET75      -0.1393
     37  CE        -2.3350  -22.2250    4.2500 C.3    75  MET75       0.0692
     38  N         -4.0790  -23.6170    0.0630 N.am   76  TRP76      -0.1976
     39  CA        -5.5590  -23.7480    0.0940 C.3    76  TRP76       0.1640
     40  C         -6.0320  -24.4740   -1.1600 C.2    76  TRP76       0.2290
     41  O         -6.9460  -25.2900   -1.0700 O.2    76  TRP76      -0.2864
     42  CB        -6.2400  -22.3900    0.2790 C.3    76  TRP76       0.0576
     43  CG        -5.9920  -21.8140    1.6410 C.ar   76  TRP76       0.0006
     44  CD1       -5.2880  -20.6870    1.9210 C.ar   76  TRP76       0.0946
     45  CD2       -6.4640  -22.3170    2.9060 C.ar   76  TRP76       0.0152
     46  NE1       -5.2630  -20.4730    3.2720 N.ar   76  TRP76      -0.2442
     47  CE2       -5.9620  -21.4550    3.9060 C.ar   76  TRP76       0.0810
     48  CE3       -7.2390  -23.4080    3.2980 C.ar   76  TRP76       0.0012
     49  CZ2       -6.2640  -21.6050    5.2630 C.ar   76  TRP76       0.0191
     50  CZ3       -7.4840  -23.6040    4.6450 C.ar   76  TRP76       0.0001
     51  CH2       -7.0110  -22.7110    5.6140 C.ar   76  TRP76       0.0015
     52  N         -4.4540  -26.8390   -2.8350 N.3    78  THR78      -0.1203
     53  CA        -4.1470  -28.2740   -2.6380 C.3    78  THR78       0.1994
     54  C         -5.1900  -28.8980   -1.7080 C.2    78  THR78       0.2618
     55  O         -5.6350  -30.0560   -1.9510 O.2    78  THR78      -0.2717
     56  CB        -2.6870  -28.4440   -2.1800 C.3    78  THR78       0.1784
     57  OG1       -1.8470  -27.9130   -3.2040 O.3    78  THR78      -0.2211
     58  CG2       -2.3110  -29.9010   -2.0030 C.3    78  THR78       0.0376
     59  N         -5.5370  -28.2040   -0.6280 N.am   79  GLY79      -0.1942
     60  CA        -6.5250  -28.6880    0.3420 C.3    79  GLY79       0.2014
     61  C         -7.9170  -28.7770   -0.2680 C.2    79  GLY79       0.2638
     62  O         -8.5750  -29.8560   -0.2050 O.2    79  GLY79      -0.2714
     63  N         -8.3780  -27.7240   -0.9260 N.am   80  ILE80      -0.1977
     64  CA        -9.7130  -27.7990   -1.5920 C.3    80  ILE80       0.1596
     65  C         -9.7060  -28.9300   -2.6290 C.2    80  ILE80       0.2287
     66  O        -10.6900  -29.6270   -2.7880 O.2    80  ILE80      -0.2864
     67  CB       -10.0770  -26.4340   -2.1770 C.3    80  ILE80       0.0276
     68  CG1      -10.1730  -25.3930   -1.0600 C.3    80  ILE80       0.0022
     69  CG2      -11.3550  -26.5660   -2.9730 C.3    80  ILE80       0.0022
     70  CD1      -10.3740  -23.9860   -1.5690 C.3    80  ILE80       0.0001
     71  N        -10.9580  -32.4360   -1.9480 N.3    83  PHE83      -0.1241
     72  CA       -12.4270  -32.6690   -1.9470 C.3    83  PHE83       0.1605
     73  C        -12.9560  -32.6770   -3.3820 C.2    83  PHE83       0.2264
     74  O        -13.8350  -33.4970   -3.7560 O.2    83  PHE83      -0.2867
     75  CB       -13.0700  -31.6120   -1.0510 C.3    83  PHE83       0.0534
     76  CG       -12.6850  -31.8280    0.3880 C.ar   83  PHE83      -0.0203
     77  CD1      -13.4040  -32.7160    1.1710 C.ar   83  PHE83      -0.0042
     78  CD2      -11.5140  -31.2950    0.9010 C.ar   83  PHE83      -0.0042
     79  CE1      -13.0050  -33.0070    2.4740 C.ar   83  PHE83      -0.0003
     80  CE2      -11.1120  -31.5780    2.2110 C.ar   83  PHE83      -0.0003
     81  CZ       -11.8540  -32.4350    2.9960 C.ar   83  PHE83      -0.0000
     82  N        -14.4380  -36.2550   -4.2360 N.3    87  PHE87      -0.1298
     83  CA       -15.9090  -36.3250   -4.4570 C.3    87  PHE87       0.1290
     84  C        -16.1710  -36.3920   -5.9660 C.3    87  PHE87       0.2013
     85  O        -17.1660  -37.0510   -6.4450 O.3    87  PHE87      -0.2188
     86  CB       -16.6080  -35.1670   -3.7580 C.3    87  PHE87       0.0480
     87  CG       -16.4400  -35.1660   -2.2590 C.ar   87  PHE87      -0.0206
     88  CD1      -16.3700  -36.3370   -1.5480 C.ar   87  PHE87      -0.0042
     89  CD2      -16.4100  -33.9810   -1.5580 C.ar   87  PHE87      -0.0042
     90  CE1      -16.2380  -36.3270   -0.1630 C.ar   87  PHE87      -0.0003
     91  CE2      -16.3240  -33.9750   -0.1750 C.ar   87  PHE87      -0.0003
     92  CZ       -16.2010  -35.1540    0.5190 C.ar   87  PHE87      -0.0000
     93  N        -22.3460  -37.0660    7.5970 N.3   111  TRP111     -0.1241
     94  CA       -22.0090  -35.8230    6.8550 C.3   111  TRP111      0.1605
     95  C        -21.7390  -34.7100    7.8720 C.2   111  TRP111      0.2264
     96  O        -20.6720  -34.0690    7.8390 O.2   111  TRP111     -0.2867
     97  CB       -23.0910  -35.4310    5.8320 C.3   111  TRP111      0.0550
     98  CG       -22.5400  -34.3060    5.0200 C.ar  111  TRP111      0.0003
     99  CD1      -22.7740  -32.9610    5.1590 C.ar  111  TRP111      0.0946
    100  CD2      -21.4920  -34.4300    4.0470 C.ar  111  TRP111      0.0152
    101  NE1      -22.0160  -32.2620    4.2610 N.ar  111  TRP111     -0.2442
    102  CE2      -21.1980  -33.1290    3.5910 C.ar  111  TRP111      0.0810
    103  CE3      -20.8030  -35.5150    3.5050 C.ar  111  TRP111      0.0012
    104  CZ2      -20.2300  -32.9000    2.6150 C.ar  111  TRP111      0.0191
    105  CZ3      -19.8610  -35.2940    2.5230 C.ar  111  TRP111      0.0001
    106  CH2      -19.5780  -33.9960    2.0910 C.ar  111  TRP111      0.0015
    107  N        -18.1680  -32.7450    8.4520 N.3   115  MET115     -0.1245
    108  CA       -18.1700  -31.2620    8.2140 C.3   115  MET115      0.1570
    109  C        -17.6270  -30.5390    9.4710 C.2   115  MET115      0.2261
    110  O        -16.7830  -29.5880    9.3680 O.2   115  MET115     -0.2867
    111  CB       -19.5700  -30.7800    7.8360 C.3   115  MET115      0.0387
    112  CG       -20.0010  -31.1250    6.4150 C.3   115  MET115      0.0595
    113  SD       -18.9440  -30.3760    5.1140 S.3   115  MET115     -0.1393
    114  CE       -19.4050  -28.6360    5.2790 C.3   115  MET115      0.0692
    115  N        -13.7990  -30.9980    9.4500 N.3   118  TRP118     -0.1241
    116  CA       -13.0970  -30.2170    8.3860 C.3   118  TRP118      0.1605
    117  C        -13.1780  -28.7150    8.6920 C.2   118  TRP118      0.2264
    118  O        -12.1570  -28.0070    8.5290 O.2   118  TRP118     -0.2867
    119  CB       -13.7190  -30.5630    7.0240 C.3   118  TRP118      0.0550
    120  CG       -13.5530  -32.0080    6.6960 C.ar  118  TRP118      0.0003
    121  CD1      -12.4990  -32.8070    7.0720 C.ar  118  TRP118      0.0946
    122  CD2      -14.4120  -32.8120    5.8730 C.ar  118  TRP118      0.0152
    123  NE1      -12.6750  -34.0620    6.5700 N.ar  118  TRP118     -0.2442
    124  CE2      -13.8220  -34.0960    5.8200 C.ar  118  TRP118      0.0810
    125  CE3      -15.6020  -32.5960    5.1750 C.ar  118  TRP118      0.0012
    126  CZ2      -14.3870  -35.1370    5.0950 C.ar  118  TRP118      0.0191
    127  CZ3      -16.1680  -33.6240    4.4660 C.ar  118  TRP118      0.0001
    128  CH2      -15.5840  -34.8920    4.4500 C.ar  118  TRP118      0.0015
    129  N        -10.6190  -28.1300   11.3500 N.3   121  TYR121     -0.1227
    130  CA        -9.2380  -28.1510   10.7760 C.3   121  TYR121      0.1736
    131  C         -8.9760  -26.8390   10.0210 C.2   121  TYR121      0.2596
    132  O         -7.9620  -26.1830   10.2540 O.2   121  TYR121     -0.2718
    133  CB        -8.9210  -29.3850    9.9180 C.3   121  TYR121      0.0548
    134  CG        -7.4430  -29.4330    9.6510 C.ar  121  TYR121     -0.0200
    135  CD1       -6.5490  -29.5830   10.7060 C.ar  121  TYR121     -0.0009
    136  CD2       -6.9170  -29.1860    8.3960 C.ar  121  TYR121     -0.0009
    137  CE1       -5.1780  -29.5850   10.5070 C.ar  121  TYR121      0.0417
    138  CE2       -5.5470  -29.1750    8.1820 C.ar  121  TYR121      0.0417
    139  CZ        -4.6780  -29.3760    9.2360 C.ar  121  TYR121      0.1957
    140  OH        -3.3350  -29.3230    9.0280 O.3   121  TYR121     -0.2866
    141  N         -9.9440  -26.3590    9.2410 N.am  122  THR122     -0.1953
    142  CA        -9.8450  -25.0710    8.5370 C.3   122  THR122      0.1897
    143  C         -9.5880  -23.9510    9.5430 C.2   122  THR122      0.2313
    144  O         -8.6640  -23.1300    9.3120 O.2   122  THR122     -0.2863
    145  CB       -11.1140  -24.7630    7.7240 C.3   122  THR122      0.1794
    146  OG1      -11.3520  -25.7740    6.7460 O.3   122  THR122     -0.2208
    147  CG2      -10.9620  -23.4410    7.0150 C.3   122  THR122      0.0378
    148  N         -6.0750  -23.9250   10.9280 N.3   125  VAL125     -0.1245
    149  CA        -5.0560  -23.4170    9.9820 C.3   125  VAL125      0.1561
    150  C         -5.1860  -21.9020    9.9000 C.2   125  VAL125      0.2260
    151  O         -4.1690  -21.2170    9.9170 O.2   125  VAL125     -0.2867
    152  CB        -5.2010  -24.1450    8.6350 C.3   125  VAL125      0.0252
    153  CG1       -4.2810  -23.5280    7.5900 C.3   125  VAL125      0.0019
    154  CG2       -4.9160  -25.6310    8.8400 C.3   125  VAL125      0.0019
    155  N        -16.6300  -23.5740    4.1660 N.3   149  ASN149     -0.1240
    156  CA       -16.8630  -25.0270    4.0350 C.3   149  ASN149      0.1653
    157  C        -18.2800  -25.2800    3.4990 C.2   149  ASN149      0.2266
    158  O        -18.4020  -26.1280    2.6130 O.2   149  ASN149     -0.2867
    159  CB       -16.5150  -25.7730    5.3390 C.3   149  ASN149      0.1155
    160  CG       -15.0290  -26.0840    5.3620 C.2   149  ASN149      0.2627
    161  OD1      -14.5330  -26.7190    4.4200 O.2   149  ASN149     -0.2716
    162  ND2      -14.2690  -25.4200    6.2050 N.am  149  ASN149     -0.0877
    163  N        -18.2350  -24.4720   -0.1280 N.3   152  ASN152     -0.1225
    164  CA       -17.5850  -25.5410   -0.9120 C.3   152  ASN152      0.1784
    165  C        -18.5430  -26.7160   -1.0930 C.2   152  ASN152      0.2593
    166  O        -18.5840  -27.2580   -2.2090 O.2   152  ASN152     -0.2718
    167  CB       -16.2760  -26.0310   -0.3110 C.3   152  ASN152      0.1169
    168  CG       -15.1450  -25.0650   -0.5200 C.2   152  ASN152      0.2627
    169  OD1      -15.3780  -23.9070   -0.8870 O.2   152  ASN152     -0.2716
    170  ND2      -13.9390  -25.5320   -0.2200 N.am  152  ASN152     -0.0877
    171  N        -19.2400  -27.1360   -0.0270 N.am  153  GLU153     -0.2033
    172  CA       -20.1880  -28.2610   -0.0900 C.3   153  GLU153      0.1288
    173  C        -21.1910  -27.9550   -1.2180 C.3   153  GLU153      0.2036
    174  O        -21.3570  -28.7930   -2.1880 O.3   153  GLU153     -0.2185
    175  CB       -20.8710  -28.4410    1.2640 C.3   153  GLU153      0.0362
    176  CG       -22.0570  -29.3370    1.1920 C.3   153  GLU153      0.1159
    177  CD       -22.9400  -29.3580    2.4260 C.2   153  GLU153      0.3649
    178  OE1      -22.4040  -29.4700    3.5310 O.co2 153  GLU153     -0.2457
    179  OE2      -24.1660  -29.2310    2.2690 O.co2 153  GLU153     -0.2457
    180  N        -19.3810  -27.3650   -4.9410 N.3   156  LEU156     -0.1231
    181  CA       -18.8420  -28.6450   -5.4890 C.3   156  LEU156      0.1693
    182  C        -20.0070  -29.4920   -5.9780 C.2   156  LEU156      0.2592
    183  O        -19.9730  -29.9250   -7.1710 O.2   156  LEU156     -0.2718
    184  CB       -18.0090  -29.4230   -4.4790 C.3   156  LEU156      0.0284
    185  CG       -16.6450  -28.8230   -4.1470 C.3   156  LEU156      0.0019
    186  CD1      -16.0130  -29.5370   -2.9720 C.3   156  LEU156      0.0001
    187  CD2      -15.7060  -28.8070   -5.3530 C.3   156  LEU156      0.0001
    188  N        -20.9870  -29.7320   -5.1260 N.am  157  PHE157     -0.1976
    189  CA       -22.0910  -30.6860   -5.4030 C.3   157  PHE157      0.1639
    190  C        -23.0220  -30.1190   -6.4820 C.2   157  PHE157      0.2290
    191  O        -23.3910  -30.9070   -7.3670 O.2   157  PHE157     -0.2864
    192  CB       -22.7900  -31.1180   -4.1040 C.3   157  PHE157      0.0560
    193  CG       -21.8830  -31.8420   -3.1510 C.ar  157  PHE157     -0.0200
    194  CD1      -20.7970  -32.5730   -3.6120 C.ar  157  PHE157     -0.0042
    195  CD2      -22.0800  -31.7810   -1.7840 C.ar  157  PHE157     -0.0042
    196  CE1      -19.9150  -33.1690   -2.7200 C.ar  157  PHE157     -0.0003
    197  CE2      -21.2350  -32.4370   -0.9030 C.ar  157  PHE157     -0.0003
    198  CZ       -20.1420  -33.1090   -1.3720 C.ar  157  PHE157     -0.0000
    199  N        -11.6400  -18.2240   -0.9260 N.3   180  TRP180     -0.1241
    200  CA       -10.9190  -18.6440    0.3140 C.3   180  TRP180      0.1605
    201  C         -9.7540  -17.6760    0.5960 C.2   180  TRP180      0.2264
    202  O         -9.6890  -17.1140    1.7190 O.2   180  TRP180     -0.2867
    203  CB       -10.4620  -20.0880    0.2140 C.3   180  TRP180      0.0550
    204  CG       -11.5330  -21.0680    0.5600 C.ar  180  TRP180      0.0003
    205  CD1      -12.7430  -21.2320   -0.0780 C.ar  180  TRP180      0.0946
    206  CD2      -11.4720  -22.0800    1.5760 C.ar  180  TRP180      0.0152
    207  NE1      -13.4380  -22.2590    0.4930 N.ar  180  TRP180     -0.2442
    208  CE2      -12.7160  -22.7590    1.5500 C.ar  180  TRP180      0.0810
    209  CE3      -10.5680  -22.3800    2.6040 C.ar  180  TRP180      0.0012
    210  CZ2      -13.0310  -23.7910    2.4470 C.ar  180  TRP180      0.0191
    211  CZ3      -10.8600  -23.3990    3.4740 C.ar  180  TRP180      0.0001
    212  CH2      -12.0960  -24.0630    3.4170 C.ar  180  TRP180      0.0015
@<TRIPOS>BOND
     1   191   190    2
     2   183   182    2
     3   190   189    1
     4    85    84    1
     5   182   181    1
     6   182   188   am
     7    84    83    1
     8   181   180    1
     9   181   184    1
    10   189   188    1
    11   189   192    1
    12   187   185    1
    13   184   185    1
    14    83    82    1
    15    83    86    1
    16   185   186    1
    17   192   193    1
    18    86    87    1
    19    74    73    2
    20   194   193   ar
    21   194   196   ar
    22    73    72    1
    23    57    56    1
    24   193   195   ar
    25    69    67    1
    26    52    53    1
    27    66    65    2
    28   196   198   ar
    29    53    56    1
    30    53    54    1
    31    65    64    1
    32    87    89   ar
    33    87    88   ar
    34   166   165    2
    35   174   173    1
    36    56    58    1
    37    67    64    1
    38    67    68    1
    39    55    54    2
    40    71    72    1
    41    72    75    1
    42   195   197   ar
    43    54    59   am
    44    64    63    1
    45    70    68    1
    46    89    91   ar
    47    88    90   ar
    48   198   197   ar
    49   173   172    1
    50    40    41    2
    51    40    39    1
    52   165   164    1
    53   165   171   am
    54    75    76    1
    55    30    31    1
    56   199   200    1
    57    63    61   am
    58   164   167    1
    59   164   163    1
    60   169   168    2
    61    59    60    1
    62   168   167    1
    63   168   170   am
    64    61    62    2
    65    61    60    1
    66    91    92   ar
    67    90    92   ar
    68   172   171    1
    69   172   175    1
    70   205   207   ar
    71   205   204   ar
    72    38    39    1
    73    38    32   am
    74    39    42    1
    75    32    31    1
    76    32    33    2
    77    31    34    1
    78   203   200    1
    79   203   204    1
    80    42    43    1
    81   200   201    1
    82    76    78   ar
    83    76    77   ar
    84   207   208   ar
    85   204   206   ar
    86   201   202    2
    87    16    14    1
    88    78    80   ar
    89    15    14    1
    90    77    79   ar
    91   176   175    1
    92   176   177    1
    93    14    13    1
    94    34    35    1
    95   208   206   ar
    96   208   210   ar
    97   206   209   ar
    98    43    44   ar
    99    43    45   ar
   100    44    46   ar
   101   106   105   ar
   102   106   104   ar
   103    80    81   ar
   104   179   177   ar
   105   177   178   ar
   106   210   212   ar
   107    79    81   ar
   108   105   103   ar
   109   209   211   ar
   110   158   157    2
   111   104   102   ar
   112    29    27   am
   113    35    36    1
   114    13    10    1
   115    45    48   ar
   116    45    47   ar
   117    46    47   ar
   118    48    50   ar
   119     1     2    1
   120    10     9    1
   121    10    11    1
   122   212   211   ar
   123   157   156    1
   124   103   100   ar
   125   102   100   ar
   126   102   101   ar
   127    27    28    2
   128    27    26    1
   129    47    49   ar
   130     2     5    1
   131     2     3    1
   132   156   155    1
   133   156   159    1
   134   100    98   ar
   135    37    36    1
   136   101    99   ar
   137     7     6    1
   138   161   160    2
   139   128   127   ar
   140   128   126   ar
   141   127   125   ar
   142     5     6    1
   143    12    11    2
   144    50    51   ar
   145    11    17   am
   146    26    23    1
   147    98    99   ar
   148    98    97    1
   149   126   124   ar
   150   113   114    1
   151   113   112    1
   152     3     4    2
   153   125   122   ar
   154     6     8    1
   155    49    51   ar
   156   159   160    1
   157   160   162   am
   158    25    24    2
   159    17    18    1
   160   124   122   ar
   161   124   123   ar
   162    97    94    1
   163   122   120   ar
   164    23    24    1
   165    23    22    1
   166   112   111    1
   167   123   121   ar
   168   120   119    1
   169   120   121   ar
   170   146   145    1
   171    94    93    1
   172    94    95    1
   173    18    19    1
   174    18    21    1
   175   147   145    1
   176   119   116    1
   177   153   152    1
   178    19    20    2
   179   145   142    1
   180   111   108    1
   181    96    95    2
   182   138   136   ar
   183   138   139   ar
   184   108   107    1
   185   108   109    1
   186   116   117    1
   187   116   115    1
   188   136   134   ar
   189   118   117    2
   190   142   141    1
   191   142   143    1
   192   152   154    1
   193   152   149    1
   194   140   139    1
   195   139   137   ar
   196   141   131   am
   197   144   143    2
   198   110   109    2
   199   134   133    1
   200   134   135   ar
   201   150   151    2
   202   150   149    1
   203   133   130    1
   204   149   148    1
   205   131   132    2
   206   131   130    1
   207   137   135   ar
   208   130   129    1
