@<TRIPOS>MOLECULE
tmp/6ho1A00.pdb
 219 214 0 0 0
SMALL
GASTEIGER

@<TRIPOS>ATOM
      1  N        -35.8560    7.1110   -4.9770 N.3    63  LEU63      -0.1245
      2  CA       -34.5710    6.8740   -4.2820 C.3    63  LEU63       0.1561
      3  C        -34.7910    5.8400   -3.1640 C.2    63  LEU63       0.2260
      4  O        -33.9360    4.9910   -3.0120 O.2    63  LEU63      -0.2867
      5  CB       -33.9900    8.1770   -3.7330 C.3    63  LEU63       0.0270
      6  CG       -32.5590    8.0270   -3.2110 C.3    63  LEU63       0.0019
      7  CD1      -31.6390    7.4710   -4.2970 C.3    63  LEU63       0.0001
      8  CD2      -32.0290    9.3430   -2.6680 C.3    63  LEU63       0.0001
      9  N        -34.7420    2.2060   -4.6290 N.3    66  LEU66      -0.1231
     10  CA       -33.3310    1.7870   -4.8360 C.3    66  LEU66       0.1693
     11  C        -32.7000    1.3470   -3.5180 C.2    66  LEU66       0.2591
     12  O        -32.0360    0.2990   -3.5070 O.2    66  LEU66      -0.2718
     13  CB       -32.5380    2.9690   -5.3910 C.3    66  LEU66       0.0284
     14  CG       -32.5900    3.1550   -6.9010 C.3    66  LEU66       0.0019
     15  CD1      -31.5180    4.1570   -7.3170 C.3    66  LEU66       0.0001
     16  CD2      -32.4000    1.8180   -7.6050 C.3    66  LEU66       0.0001
     17  N        -32.8550    2.1780   -2.4830 N.am   67  ALA67      -0.1980
     18  CA       -32.2680    2.0070   -1.1350 C.3    67  ALA67       0.1597
     19  C        -32.6740    0.6520   -0.5350 C.2    67  ALA67       0.2287
     20  O        -31.8440    0.0240    0.1410 O.2    67  ALA67      -0.2864
     21  CB       -32.6920    3.1590   -0.2580 C.3    67  ALA67       0.0319
     22  N        -33.1170   -2.0570   -2.0580 N.3    69  ASN69      -0.1240
     23  CA       -32.8520   -3.0510   -3.1390 C.3    69  ASN69       0.1653
     24  C        -31.3820   -2.9820   -3.5860 C.2    69  ASN69       0.2266
     25  O        -30.5490   -3.5870   -2.8790 O.2    69  ASN69      -0.2867
     26  CB       -33.8270   -2.8250   -4.2990 C.3    69  ASN69       0.1155
     27  CG       -35.2440   -3.2650   -3.9760 C.2    69  ASN69       0.2627
     28  OD1      -35.5560   -4.4460   -4.0870 O.2    69  ASN69      -0.2716
     29  ND2      -36.1120   -2.3440   -3.5800 N.am   69  ASN69      -0.0877
     30  N        -24.5160   -4.5790   -7.8680 N.3    70  THR70      -0.1218
     31  CA       -23.8700   -4.0840   -9.1180 C.3    70  THR70       0.1862
     32  C        -22.4800   -3.5340   -8.7470 C.2    70  THR70       0.2287
     33  O        -22.0930   -3.6470   -7.5640 O.2    70  THR70      -0.2866
     34  CB       -24.8170   -3.1370   -9.8840 C.3    70  THR70       0.1770
     35  OG1      -24.3130   -2.9590  -11.2070 O.3    70  THR70      -0.2211
     36  CG2      -25.0280   -1.7790   -9.2520 C.3    70  THR70       0.0375
     37  N        -24.0120    1.6230   -9.3240 N.3    75  MET75      -0.1230
     38  CA       -24.7790    1.9840   -8.1140 C.3    75  MET75       0.1702
     39  C        -25.0030    3.4980   -8.1310 C.2    75  MET75       0.2592
     40  O        -26.1300    3.9340   -7.8810 O.2    75  MET75      -0.2718
     41  CB       -24.0140    1.6300   -6.8310 C.3    75  MET75       0.0401
     42  CG       -24.6040    2.2990   -5.5690 C.3    75  MET75       0.0596
     43  SD       -23.9210    1.6440   -4.0100 S.3    75  MET75      -0.1393
     44  CE       -22.5180    2.7310   -3.7690 C.3    75  MET75       0.0692
     45  N        -23.9390    4.2790   -8.3040 N.am   76  TRP76      -0.1976
     46  CA       -24.0650    5.7620   -8.2180 C.3    76  TRP76       0.1640
     47  C        -24.8450    6.2710   -9.4260 C.2    76  TRP76       0.2290
     48  O        -25.6730    7.1790   -9.2490 O.2    76  TRP76      -0.2864
     49  CB       -22.7060    6.4430   -8.0480 C.3    76  TRP76       0.0576
     50  CG       -22.1150    6.1980   -6.6990 C.ar   76  TRP76       0.0006
     51  CD1      -20.9870    5.4750   -6.4280 C.ar   76  TRP76       0.0946
     52  CD2      -22.5630    6.7350   -5.4410 C.ar   76  TRP76       0.0152
     53  NE1      -20.7500    5.4600   -5.0780 N.ar   76  TRP76      -0.2442
     54  CE2      -21.6840    6.2410   -4.4480 C.ar   76  TRP76       0.0810
     55  CE3      -23.6280    7.5470   -5.0470 C.ar   76  TRP76       0.0012
     56  CZ2      -21.8340    6.5430   -3.0910 C.ar   76  TRP76       0.0191
     57  CZ3      -23.7870    7.8290   -3.7060 C.ar   76  TRP76       0.0001
     58  CH2      -22.9040    7.3340   -2.7360 C.ar   76  TRP76       0.0015
     59  N        -27.2630    4.8250  -11.1620 N.3    78  THR78      -0.1203
     60  CA       -28.7030    4.5290  -10.9640 C.3    78  THR78       0.1994
     61  C        -29.3160    5.5330   -9.9860 C.2    78  THR78       0.2618
     62  O        -30.4730    5.8870  -10.1920 O.2    78  THR78      -0.2717
     63  CB       -28.9330    3.0730  -10.5100 C.3    78  THR78       0.1784
     64  OG1      -28.2370    2.1730  -11.3750 O.3    78  THR78      -0.2211
     65  CG2      -30.3920    2.6780  -10.5700 C.3    78  THR78       0.0376
     66  N        -28.6060    5.9120   -8.9170 N.am   79  GLY79      -0.1942
     67  CA       -29.0760    6.9070   -7.9370 C.3    79  GLY79       0.2014
     68  C        -29.2200    8.2960   -8.5650 C.2    79  GLY79       0.2638
     69  O        -30.3210    8.8960   -8.5180 O.2    79  GLY79      -0.2714
     70  N        -28.1610    8.7780   -9.1770 N.am   80  ILE80      -0.1977
     71  CA       -28.1720   10.0900   -9.9000 C.3    80  ILE80       0.1596
     72  C        -29.2950   10.0680  -10.9420 C.2    80  ILE80       0.2287
     73  O        -29.9580   11.1200  -11.1450 O.2    80  ILE80      -0.2864
     74  CB       -26.7950   10.3890  -10.5270 C.3    80  ILE80       0.0276
     75  CG1      -25.7070   10.5010   -9.4420 C.3    80  ILE80       0.0022
     76  CG2      -26.8630   11.6390  -11.4060 C.3    80  ILE80       0.0022
     77  CD1      -24.2910   10.5710   -9.9640 C.3    80  ILE80       0.0001
     78  N        -32.8040   11.2580  -10.3100 N.3    83  PHE83      -0.1241
     79  CA       -32.9940   12.7420  -10.2900 C.3    83  PHE83       0.1605
     80  C        -33.0150   13.2950  -11.7240 C.2    83  PHE83       0.2264
     81  O        -33.8470   14.1510  -12.0570 O.2    83  PHE83      -0.2867
     82  CB       -31.8970   13.3360   -9.4110 C.3    83  PHE83       0.0534
     83  CG       -32.1230   13.0100   -7.9530 C.ar   83  PHE83      -0.0203
     84  CD1      -33.1020   13.6740   -7.2260 C.ar   83  PHE83      -0.0042
     85  CD2      -31.4170   12.0150   -7.3250 C.ar   83  PHE83      -0.0042
     86  CE1      -33.3320   13.3760   -5.8880 C.ar   83  PHE83      -0.0003
     87  CE2      -31.6810   11.6880   -6.0010 C.ar   83  PHE83      -0.0003
     88  CZ       -32.6130   12.3880   -5.2770 C.ar   83  PHE83      -0.0000
     89  N        -36.6990   14.8270  -12.5560 N.3    87  PHE87      -0.1241
     90  CA       -36.7410   16.3040  -12.7660 C.3    87  PHE87       0.1605
     91  C        -36.8140   16.5380  -14.2820 C.2    87  PHE87       0.2264
     92  O        -37.4820   17.4780  -14.7730 O.2    87  PHE87      -0.2867
     93  CB       -35.5900   16.9980  -12.0190 C.3    87  PHE87       0.0534
     94  CG       -35.8350   17.0940  -10.5290 C.ar   87  PHE87      -0.0203
     95  CD1      -36.7020   18.0520  -10.0140 C.ar   87  PHE87      -0.0042
     96  CD2      -35.2690   16.1960   -9.6470 C.ar   87  PHE87      -0.0042
     97  CE1      -36.9540   18.1320   -8.6530 C.ar   87  PHE87      -0.0003
     98  CE2      -35.5610   16.2490   -8.2860 C.ar   87  PHE87      -0.0003
     99  CZ       -36.3920   17.2210   -7.7880 C.ar   87  PHE87      -0.0000
    100  N        -37.4260   22.7130   -0.6180 N.3   111  TRP111     -0.1241
    101  CA       -36.1910   22.3810   -1.3590 C.3   111  TRP111      0.1605
    102  C        -35.0870   22.0230   -0.3540 C.2   111  TRP111      0.2264
    103  O        -34.4910   20.9230   -0.4240 O.2   111  TRP111     -0.2867
    104  CB       -35.8150   23.5390   -2.2900 C.3   111  TRP111      0.0550
    105  CG       -34.7850   23.0340   -3.2310 C.ar  111  TRP111      0.0003
    106  CD1      -33.4290   23.2180   -3.1870 C.ar  111  TRP111      0.0946
    107  CD2      -35.0390   22.0800   -4.2750 C.ar  111  TRP111      0.0152
    108  NE1      -32.8320   22.4930   -4.1890 N.ar  111  TRP111     -0.2442
    109  CE2      -33.7940   21.7670   -4.8540 C.ar  111  TRP111      0.0810
    110  CE3      -36.1970   21.5030   -4.7900 C.ar  111  TRP111      0.0012
    111  CZ2      -33.6920   20.8930   -5.9320 C.ar  111  TRP111      0.0191
    112  CZ3      -36.0940   20.6400   -5.8540 C.ar  111  TRP111      0.0001
    113  CH2      -34.8590   20.3530   -6.4210 C.ar  111  TRP111      0.0015
    114  N        -33.1360   18.4170    0.0580 N.3   115  MET115     -0.1245
    115  CA       -31.6500   18.4590   -0.1700 C.3   115  MET115      0.1570
    116  C        -30.9160   17.8970    1.0730 C.2   115  MET115      0.2261
    117  O        -29.9740   17.0450    0.9290 O.2   115  MET115     -0.2867
    118  CB       -31.1760   19.8820   -0.4890 C.3   115  MET115      0.0387
    119  CG       -31.6650   20.4120   -1.8500 C.3   115  MET115      0.0595
    120  SD       -31.0640   19.4120   -3.2340 S.3   115  MET115     -0.1393
    121  CE       -29.3160   19.8630   -3.2440 C.3   115  MET115      0.0692
    122  N        -31.3370   14.1390    1.0360 N.3   118  TRP118     -0.1241
    123  CA       -30.5850   13.4420   -0.0400 C.3   118  TRP118      0.1605
    124  C        -29.0740   13.5080    0.2230 C.2   118  TRP118      0.2264
    125  O        -28.3440   12.5130   -0.0590 O.2   118  TRP118     -0.2867
    126  CB       -30.9810   14.0300   -1.3880 C.3   118  TRP118      0.0550
    127  CG       -32.4240   13.7940   -1.6910 C.ar  118  TRP118      0.0003
    128  CD1      -33.1630   12.6860   -1.3900 C.ar  118  TRP118      0.0946
    129  CD2      -33.2700   14.6450   -2.4650 C.ar  118  TRP118      0.0152
    130  NE1      -34.4370   12.8220   -1.8750 N.ar  118  TRP118     -0.2442
    131  CE2      -34.5290   14.0120   -2.5340 C.ar  118  TRP118      0.0810
    132  CE3      -33.1010   15.9000   -3.0560 C.ar  118  TRP118      0.0012
    133  CZ2      -35.5910   14.5560   -3.2430 C.ar  118  TRP118      0.0191
    134  CZ3      -34.1650   16.4440   -3.7300 C.ar  118  TRP118      0.0001
    135  CH2      -35.3880   15.7880   -3.8110 C.ar  118  TRP118      0.0015
    136  N        -28.4070   10.8800    2.9800 N.3   121  TYR121     -0.1227
    137  CA       -28.3790    9.5140    2.3940 C.3   121  TYR121      0.1736
    138  C        -27.0720    9.3190    1.5910 C.2   121  TYR121      0.2596
    139  O        -26.3990    8.2880    1.7120 O.2   121  TYR121     -0.2718
    140  CB       -29.6490    9.1910    1.5960 C.3   121  TYR121      0.0548
    141  CG       -29.6610    7.7590    1.1360 C.ar  121  TYR121     -0.0200
    142  CD1      -29.5010    6.7340    2.0490 C.ar  121  TYR121     -0.0009
    143  CD2      -29.7500    7.4190   -0.2000 C.ar  121  TYR121     -0.0009
    144  CE1      -29.4690    5.4080    1.6610 C.ar  121  TYR121      0.0417
    145  CE2      -29.7240    6.0940   -0.6020 C.ar  121  TYR121      0.0417
    146  CZ       -29.5530    5.0840    0.3270 C.ar  121  TYR121      0.1957
    147  OH       -29.4880    3.7590   -0.0320 O.3   121  TYR121     -0.2866
    148  N        -26.6580   10.2860    0.7950 N.am  122  THR122     -0.1953
    149  CA       -25.3470   10.2110    0.0820 C.3   122  THR122      0.1897
    150  C        -24.2300    9.9370    1.0960 C.2   122  THR122      0.2313
    151  O        -23.3550    9.0850    0.8250 O.2   122  THR122     -0.2863
    152  CB       -25.0900   11.4950   -0.7340 C.3   122  THR122      0.1794
    153  OG1      -26.2150   11.7560   -1.6060 O.3   122  THR122     -0.2208
    154  CG2      -23.7910   11.4170   -1.5110 C.3   122  THR122      0.0378
    155  N        -24.2110    6.4130    2.4900 N.3   125  VAL125     -0.1245
    156  CA       -23.7480    5.3910    1.5110 C.3   125  VAL125      0.1561
    157  C        -22.2240    5.5330    1.3640 C.2   125  VAL125      0.2260
    158  O        -21.5730    4.4940    1.3690 O.2   125  VAL125     -0.2867
    159  CB       -24.5400    5.4660    0.1880 C.3   125  VAL125      0.0252
    160  CG1      -24.0140    4.4990   -0.8550 C.3   125  VAL125      0.0019
    161  CG2      -26.0260    5.2370    0.4440 C.3   125  VAL125      0.0019
    162  N        -24.0300   17.0530   -4.1980 N.3   149  ASN149     -0.1240
    163  CA       -25.4870   17.3070   -4.3190 C.3   149  ASN149      0.1653
    164  C        -25.7200   18.7310   -4.8810 C.2   149  ASN149      0.2266
    165  O        -26.6330   18.8940   -5.7120 O.2   149  ASN149     -0.2867
    166  CB       -26.2150   17.0680   -2.9820 C.3   149  ASN149      0.1155
    167  CG       -26.7030   15.6330   -2.7730 C.2   149  ASN149      0.2627
    168  OD1      -27.9050   15.3590   -2.8050 O.2   149  ASN149     -0.2716
    169  ND2      -25.7930   14.7010   -2.5750 N.am  149  ASN149     -0.0877
    170  N        -24.8860   18.6770   -8.5780 N.3   152  ASN152     -0.1225
    171  CA       -25.9610   18.0380   -9.3760 C.3   152  ASN152      0.1785
    172  C        -27.1440   18.9850   -9.5320 C.2   152  ASN152      0.2597
    173  O        -27.7040   19.0140  -10.6180 O.2   152  ASN152     -0.2718
    174  CB       -26.4230   16.7230   -8.7680 C.3   152  ASN152      0.1169
    175  CG       -25.4220   15.6310   -9.0500 C.2   152  ASN152      0.2627
    176  OD1      -24.2800   15.9250   -9.3530 O.2   152  ASN152     -0.2716
    177  ND2      -25.8380   14.3780   -8.9640 N.am  152  ASN152     -0.0877
    178  N        -27.5920   19.6330   -8.4600 N.am  153  GLU153     -0.1979
    179  CA       -28.7030   20.6220   -8.5060 C.3   153  GLU153      0.1602
    180  C        -28.3910   21.6830   -9.5860 C.2   153  GLU153      0.2287
    181  O        -29.2450   21.9450  -10.4780 O.2   153  GLU153     -0.2864
    182  CB       -28.8960   21.2670   -7.1340 C.3   153  GLU153      0.0415
    183  CG       -29.8300   22.4640   -7.1450 C.3   153  GLU153      0.1163
    184  CD       -29.8860   23.2510   -5.8410 C.2   153  GLU153      0.3649
    185  OE1      -29.9390   22.6370   -4.7820 O.co2 153  GLU153     -0.2457
    186  OE2      -29.8490   24.4600   -5.8880 O.co2 153  GLU153     -0.2457
    187  N        -27.6860   19.8250  -13.2950 N.3   156  LEU156     -0.1231
    188  CA       -28.8530   19.1680  -13.9300 C.3   156  LEU156      0.1693
    189  C        -29.7790   20.2740  -14.4130 C.2   156  LEU156      0.2592
    190  O        -30.2710   20.2160  -15.5820 O.2   156  LEU156     -0.2718
    191  CB       -29.5720   18.2060  -12.9930 C.3   156  LEU156      0.0284
    192  CG       -28.8830   16.8590  -12.7730 C.3   156  LEU156      0.0019
    193  CD1      -29.6430   16.0390  -11.7530 C.3   156  LEU156      0.0001
    194  CD2      -28.7010   16.0860  -14.0730 C.3   156  LEU156      0.0001
    195  N        -30.0220   21.2310  -13.5420 N.am  157  PHE157     -0.1976
    196  CA       -31.0000   22.3230  -13.7960 C.3   157  PHE157      0.1639
    197  C        -30.4750   23.2360  -14.9070 C.2   157  PHE157      0.2290
    198  O        -31.2790   23.5700  -15.7590 O.2   157  PHE157     -0.2864
    199  CB       -31.4360   22.9820  -12.4840 C.3   157  PHE157      0.0560
    200  CG       -32.1600   22.0310  -11.5460 C.ar  157  PHE157     -0.0200
    201  CD1      -32.5380   20.7460  -11.9530 C.ar  157  PHE157     -0.0042
    202  CD2      -32.4850   22.4140  -10.2530 C.ar  157  PHE157     -0.0042
    203  CE1      -33.1470   19.8640  -11.0750 C.ar  157  PHE157     -0.0003
    204  CE2      -33.1400   21.5440   -9.3840 C.ar  157  PHE157     -0.0003
    205  CZ       -33.4720   20.2710   -9.7930 C.ar  157  PHE157     -0.0000
    206  N        -18.5390   12.0760   -9.3310 N.3   180  TRP180     -0.1241
    207  CA       -18.9920   11.3680   -8.1040 C.3   180  TRP180      0.1605
    208  C        -18.0500   10.2010   -7.8160 C.2   180  TRP180      0.2264
    209  O        -17.5330   10.1070   -6.6650 O.2   180  TRP180     -0.2867
    210  CB       -20.4440   10.8740   -8.1960 C.3   180  TRP180      0.0550
    211  CG       -21.4630   11.9240   -7.8920 C.ar  180  TRP180      0.0003
    212  CD1      -21.6030   13.1250   -8.5250 C.ar  180  TRP180      0.0946
    213  CD2      -22.5210   11.8500   -6.9200 C.ar  180  TRP180      0.0152
    214  NE1      -22.6510   13.8120   -7.9820 N.ar  180  TRP180     -0.2442
    215  CE2      -23.2410   13.0570   -7.0050 C.ar  180  TRP180      0.0810
    216  CE3      -22.9140   10.9070   -5.9630 C.ar  180  TRP180      0.0012
    217  CZ2      -24.3090   13.3480   -6.1570 C.ar  180  TRP180      0.0191
    218  CZ3      -23.9850   11.1860   -5.1390 C.ar  180  TRP180      0.0001
    219  CH2      -24.6670   12.3850   -5.2320 C.ar  180  TRP180      0.0015
@<TRIPOS>BOND
     1   198   197    2
     2   190   189    2
     3   197   196    1
     4    92    91    2
     5   189   188    1
     6   189   195   am
     7    91    90    1
     8   194   192    1
     9   188   187    1
    10   188   191    1
    11   196   195    1
    12   196   199    1
    13   191   192    1
    14   192   193    1
    15    90    89    1
    16    90    93    1
    17   199   200    1
    18    81    80    2
    19    93    94    1
    20   201   200   ar
    21   201   203   ar
    22    80    79    1
    23   200   202   ar
    24    76    74    1
    25    64    63    1
    26    35    34    1
    27    59    60    1
    28    73    72    2
    29   203   205   ar
    30    60    63    1
    31    60    61    1
    32    72    71    1
    33   173   172    2
    34    65    63    1
    35    94    95   ar
    36    94    96   ar
    37    74    71    1
    38    74    75    1
    39   181   180    2
    40    78    79    1
    41    79    82    1
    42   202   204   ar
    43    62    61    2
    44    95    97   ar
    45    61    66   am
    46    77    75    1
    47    71    70    1
    48    34    36    1
    49    34    31    1
    50   205   204   ar
    51    96    98   ar
    52   180   179    1
    53   172   171    1
    54   172   178   am
    55    47    48    2
    56    47    46    1
    57    82    83    1
    58   171   174    1
    59   171   170    1
    60   176   175    2
    61   206   207    1
    62    37    38    1
    63    70    68   am
    64    31    32    1
    65    31    30    1
    66   175   177   am
    67   175   174    1
    68    66    67    1
    69    32    33    2
    70    97    99   ar
    71    68    69    2
    72    68    67    1
    73   212   214   ar
    74   212   211   ar
    75   179   178    1
    76   179   182    1
    77    45    46    1
    78    45    39   am
    79    98    99   ar
    80    46    49    1
    81   210   207    1
    82   210   211    1
    83    39    38    1
    84    39    40    2
    85    38    41    1
    86   207   208    1
    87    49    50    1
    88   214   215   ar
    89    83    85   ar
    90    83    84   ar
    91   211   213   ar
    92   208   209    2
    93    16    14    1
    94    85    87   ar
    95    15    14    1
    96    84    86   ar
    97   183   182    1
    98   183   184    1
    99   215   213   ar
   100   215   217   ar
   101   213   216   ar
   102    14    13    1
   103    41    42    1
   104    50    51   ar
   105    50    52   ar
   106    51    53   ar
   107   113   111   ar
   108   113   112   ar
   109   217   219   ar
   110    87    88   ar
   111   216   218   ar
   112   111   109   ar
   113   186   184   ar
   114    86    88   ar
   115   112   110   ar
   116   184   185   ar
   117   165   164    2
   118    42    43    1
   119    52    55   ar
   120    52    54   ar
   121    13    10    1
   122   219   218   ar
   123    53    54   ar
   124    55    57   ar
   125     1     2    1
   126   164   163    1
   127   109   107   ar
   128   109   108   ar
   129    10     9    1
   130    10    11    1
   131   110   107   ar
   132    54    56   ar
   133   163   162    1
   134   163   166    1
   135    26    27    1
   136    26    23    1
   137     7     6    1
   138     2     5    1
   139     2     3    1
   140   107   105   ar
   141   108   106   ar
   142    28    27    2
   143    43    44    1
   144    27    29   am
   145   135   134   ar
   146   135   133   ar
   147     5     6    1
   148   134   132   ar
   149    57    58   ar
   150    24    23    1
   151    24    25    2
   152    11    12    2
   153    11    17   am
   154   121   120    1
   155   133   131   ar
   156   120   119    1
   157   105   106   ar
   158   105   104    1
   159     6     8    1
   160     3     4    2
   161    23    22    1
   162    56    58   ar
   163   132   129   ar
   164   166   167    1
   165   168   167    2
   166   167   169   am
   167   131   129   ar
   168   131   130   ar
   169    17    18    1
   170   129   127   ar
   171   104   101    1
   172   130   128   ar
   173   119   118    1
   174   127   128   ar
   175   127   126    1
   176   153   152    1
   177   154   152    1
   178   126   123    1
   179   101   100    1
   180   101   102    1
   181    18    19    1
   182    18    21    1
   183   160   159    1
   184   152   149    1
   185   145   143   ar
   186   145   146   ar
   187    19    20    2
   188   118   115    1
   189   103   102    2
   190   143   141   ar
   191   115   114    1
   192   115   116    1
   193   125   124    2
   194   123   124    1
   195   123   122    1
   196   147   146    1
   197   149   148    1
   198   149   150    1
   199   159   161    1
   200   159   156    1
   201   146   144   ar
   202   148   138   am
   203   151   150    2
   204   117   116    2
   205   141   140    1
   206   141   142   ar
   207   157   158    2
   208   157   156    1
   209   156   155    1
   210   138   139    2
   211   138   137    1
   212   140   137    1
   213   144   142   ar
   214   137   136    1
