@<TRIPOS>MOLECULE
tmp/6ho2A00.pdb
 205 201 0 0 0
SMALL
GASTEIGER

@<TRIPOS>ATOM
      1  N         -6.8700  -35.5950    3.3800 N.3    63  LEU63      -0.1245
      2  CA        -6.5910  -34.2780    4.0270 C.3    63  LEU63       0.1561
      3  C         -5.5920  -34.4580    5.1890 C.2    63  LEU63       0.2260
      4  O         -4.6910  -33.6140    5.3240 O.2    63  LEU63      -0.2867
      5  CB        -7.9090  -33.6710    4.4890 C.3    63  LEU63       0.0270
      6  CG        -7.8470  -32.2620    5.0490 C.3    63  LEU63       0.0019
      7  CD1       -7.4290  -31.2560    3.9920 C.3    63  LEU63       0.0001
      8  CD2       -9.2030  -31.9050    5.6190 C.3    63  LEU63       0.0001
      9  N         -1.9650  -34.4600    3.7540 N.3    66  LEU66      -0.1231
     10  CA        -1.4980  -33.0590    3.5610 C.3    66  LEU66       0.1693
     11  C         -1.0840  -32.4200    4.8870 C.2    66  LEU66       0.2591
     12  O         -0.1140  -31.6470    4.8960 O.2    66  LEU66      -0.2718
     13  CB        -2.6450  -32.2350    2.9560 C.3    66  LEU66       0.0284
     14  CG        -2.8900  -32.4310    1.4710 C.3    66  LEU66       0.0019
     15  CD1       -3.9990  -31.4850    1.0090 C.3    66  LEU66       0.0001
     16  CD2       -1.6130  -32.1950    0.6850 C.3    66  LEU66       0.0001
     17  N         -1.8720  -32.6470    5.9370 N.am   67  ALA67      -0.1980
     18  CA        -1.7540  -31.9800    7.2510 C.3    67  ALA67       0.1597
     19  C         -0.4410  -32.3840    7.9320 C.2    67  ALA67       0.2287
     20  O          0.1270  -31.5410    8.6500 O.2    67  ALA67      -0.2864
     21  CB        -2.9490  -32.3320    8.0990 C.3    67  ALA67       0.0319
     22  N          2.4440  -33.3120    6.4290 N.3    69  ASN69      -0.1240
     23  CA         3.6550  -33.1360    5.5800 C.3    69  ASN69       0.1653
     24  C          4.1890  -31.6930    5.6900 C.2    69  ASN69       0.2266
     25  O          3.3830  -30.7480    5.6330 O.2    69  ASN69      -0.2867
     26  CB         3.3870  -33.6870    4.1760 C.3    69  ASN69       0.1155
     27  CG         3.4770  -35.2020    4.1580 C.2    69  ASN69       0.2627
     28  OD1        4.3570  -35.7640    3.5170 O.2    69  ASN69      -0.2716
     29  ND2        2.6220  -35.8810    4.9020 N.am   69  ASN69      -0.0877
     30  N         -1.4880  -23.8290   -0.9080 N.3    75  MET75      -0.1230
     31  CA        -1.8150  -24.6390    0.2830 C.3    75  MET75       0.1702
     32  C         -3.3380  -24.8200    0.2960 C.2    75  MET75       0.2592
     33  O         -3.7920  -25.9360    0.5490 O.2    75  MET75      -0.2718
     34  CB        -1.3700  -23.9260    1.5670 C.3    75  MET75       0.0401
     35  CG        -1.8870  -24.5760    2.8680 C.3    75  MET75       0.0596
     36  SD        -1.2910  -23.7150    4.3760 S.3    75  MET75      -0.1393
     37  CE        -2.3060  -22.2400    4.4140 C.3    75  MET75       0.0692
     38  N         -4.0910  -23.7340    0.0960 N.am   76  TRP76      -0.1976
     39  CA        -5.5740  -23.8170    0.1700 C.3    76  TRP76       0.1640
     40  C         -6.0620  -24.6210   -1.0340 C.2    76  TRP76       0.2290
     41  O         -6.9450  -25.4750   -0.8460 O.2    76  TRP76      -0.2864
     42  CB        -6.2440  -22.4410    0.3320 C.3    76  TRP76       0.0576
     43  CG        -5.9640  -21.8520    1.6800 C.ar   76  TRP76       0.0006
     44  CD1       -5.1890  -20.7650    1.9650 C.ar   76  TRP76       0.0946
     45  CD2       -6.4790  -22.3120    2.9470 C.ar   76  TRP76       0.0152
     46  NE1       -5.1460  -20.5560    3.3230 N.ar   76  TRP76      -0.2442
     47  CE2       -5.9290  -21.4770    3.9500 C.ar   76  TRP76       0.0810
     48  CE3       -7.2890  -23.3870    3.3370 C.ar   76  TRP76       0.0012
     49  CZ2       -6.2310  -21.6380    5.3060 C.ar   76  TRP76       0.0191
     50  CZ3       -7.5510  -23.5740    4.6780 C.ar   76  TRP76       0.0001
     51  CH2       -7.0510  -22.6960    5.6490 C.ar   76  TRP76       0.0015
     52  N         -5.7270  -28.3450   -0.5460 N.3    79  GLY79      -0.1210
     53  CA        -6.7310  -28.8520    0.3970 C.3    79  GLY79       0.1956
     54  C         -8.1130  -28.9160   -0.2230 C.2    79  GLY79       0.2611
     55  O         -8.7970  -29.9760   -0.1310 O.2    79  GLY79      -0.2717
     56  N         -8.5410  -27.8580   -0.8910 N.am   80  ILE80      -0.1979
     57  CA        -9.8730  -27.9060   -1.5700 C.3    80  ILE80       0.1595
     58  C         -9.8760  -29.0470   -2.5970 C.2    80  ILE80       0.2287
     59  O        -10.9030  -29.7590   -2.7660 O.2    80  ILE80      -0.2864
     60  CB       -10.2050  -26.5400   -2.1970 C.3    80  ILE80       0.0276
     61  CG1      -10.3190  -25.4460   -1.1180 C.3    80  ILE80       0.0022
     62  CG2      -11.4390  -26.6950   -3.0500 C.3    80  ILE80       0.0022
     63  CD1      -10.4110  -24.0390   -1.6650 C.3    80  ILE80       0.0001
     64  N        -11.1590  -32.5820   -1.9170 N.3    83  PHE83      -0.1241
     65  CA       -12.6380  -32.7710   -1.9570 C.3    83  PHE83       0.1605
     66  C        -13.1550  -32.7780   -3.4020 C.2    83  PHE83       0.2264
     67  O        -13.9670  -33.6570   -3.7650 O.2    83  PHE83      -0.2867
     68  CB       -13.2900  -31.6980   -1.0760 C.3    83  PHE83       0.0534
     69  CG       -12.9460  -31.8850    0.3750 C.ar   83  PHE83      -0.0203
     70  CD1      -13.6360  -32.7990    1.1520 C.ar   83  PHE83      -0.0042
     71  CD2      -11.9000  -31.1870    0.9560 C.ar   83  PHE83      -0.0042
     72  CE1      -13.2900  -33.0090    2.4960 C.ar   83  PHE83      -0.0003
     73  CE2      -11.5280  -31.4060    2.2800 C.ar   83  PHE83      -0.0003
     74  CZ       -12.2260  -32.3210    3.0540 C.ar   83  PHE83      -0.0000
     75  N        -14.6110  -36.4460   -4.2530 N.3    87  PHE87      -0.1241
     76  CA       -16.0850  -36.4970   -4.4570 C.3    87  PHE87       0.1605
     77  C        -16.3350  -36.5420   -5.9610 C.2    87  PHE87       0.2264
     78  O        -17.3160  -37.1760   -6.4310 O.2    87  PHE87      -0.2867
     79  CB       -16.7970  -35.3750   -3.6970 C.3    87  PHE87       0.0534
     80  CG       -16.8170  -35.6040   -2.2020 C.ar   87  PHE87      -0.0203
     81  CD1      -17.6270  -36.5950   -1.6590 C.ar   87  PHE87      -0.0042
     82  CD2      -16.1050  -34.8100   -1.3290 C.ar   87  PHE87      -0.0042
     83  CE1      -17.6780  -36.8150   -0.2820 C.ar   87  PHE87      -0.0003
     84  CE2      -16.1330  -35.0560    0.0460 C.ar   87  PHE87      -0.0003
     85  CZ       -16.8770  -36.0760    0.5660 C.ar   87  PHE87      -0.0000
     86  N        -22.5000  -37.2370    7.7200 N.3   111  TRP111     -0.1241
     87  CA       -22.1620  -35.9920    6.9960 C.3   111  TRP111      0.1605
     88  C        -21.8610  -34.9020    8.0190 C.2   111  TRP111      0.2264
     89  O        -20.8030  -34.2810    7.9670 O.2   111  TRP111     -0.2867
     90  CB       -23.2530  -35.5880    5.9990 C.3   111  TRP111      0.0550
     91  CG       -22.7060  -34.4900    5.1500 C.ar  111  TRP111      0.0003
     92  CD1      -22.9630  -33.1530    5.2560 C.ar  111  TRP111      0.0946
     93  CD2      -21.6590  -34.6230    4.1760 C.ar  111  TRP111      0.0152
     94  NE1      -22.2370  -32.4580    4.3240 N.ar  111  TRP111     -0.2442
     95  CE2      -21.4080  -33.3280    3.6650 C.ar  111  TRP111      0.0810
     96  CE3      -20.9780  -35.7110    3.6270 C.ar  111  TRP111      0.0012
     97  CZ2      -20.4410  -33.1000    2.6870 C.ar  111  TRP111      0.0191
     98  CZ3      -20.0670  -35.4890    2.6210 C.ar  111  TRP111      0.0001
     99  CH2      -19.8070  -34.2030    2.1670 C.ar  111  TRP111      0.0015
    100  N        -18.2670  -32.9250    8.5580 N.3   115  MET115     -0.1245
    101  CA       -18.2890  -31.4480    8.3050 C.3   115  MET115      0.1570
    102  C        -17.7000  -30.7230    9.5310 C.2   115  MET115      0.2261
    103  O        -16.8620  -29.7820    9.3850 O.2   115  MET115     -0.2867
    104  CB       -19.6950  -30.9670    7.9750 C.3   115  MET115      0.0387
    105  CG       -20.1460  -31.3440    6.5640 C.3   115  MET115      0.0595
    106  SD       -19.1480  -30.5800    5.2430 S.3   115  MET115     -0.1393
    107  CE       -19.6490  -28.8500    5.3500 C.3   115  MET115      0.0692
    108  N        -13.9180  -31.1460    9.4450 N.3   118  TRP118     -0.1241
    109  CA       -13.2320  -30.3820    8.3580 C.3   118  TRP118      0.1605
    110  C        -13.2580  -28.8750    8.6490 C.2   118  TRP118      0.2264
    111  O        -12.2340  -28.1780    8.4080 O.2   118  TRP118     -0.2867
    112  CB       -13.9040  -30.7320    7.0280 C.3   118  TRP118      0.0550
    113  CG       -13.7210  -32.1750    6.6910 C.ar  118  TRP118      0.0003
    114  CD1      -12.6210  -32.9360    7.0040 C.ar  118  TRP118      0.0946
    115  CD2      -14.5890  -33.0230    5.9240 C.ar  118  TRP118      0.0152
    116  NE1      -12.7670  -34.2000    6.5000 N.ar  118  TRP118     -0.2442
    117  CE2      -13.9510  -34.2890    5.8370 C.ar  118  TRP118      0.0810
    118  CE3      -15.8220  -32.8650    5.2930 C.ar  118  TRP118      0.0012
    119  CZ2      -14.4960  -35.3590    5.1240 C.ar  118  TRP118      0.0191
    120  CZ3      -16.3740  -33.9300    4.6260 C.ar  118  TRP118      0.0001
    121  CH2      -15.7150  -35.1560    4.5270 C.ar  118  TRP118      0.0015
    122  N        -10.6860  -28.2320   11.4360 N.3   121  TYR121     -0.1227
    123  CA        -9.3210  -28.2050   10.8400 C.3   121  TYR121      0.1736
    124  C         -9.0980  -26.9210   10.0150 C.2   121  TYR121      0.2596
    125  O         -8.0710  -26.2570   10.1580 O.2   121  TYR121     -0.2718
    126  CB        -9.0210  -29.4950   10.0750 C.3   121  TYR121      0.0548
    127  CG        -7.6130  -29.4850    9.5720 C.ar  121  TYR121     -0.0200
    128  CD1       -6.5570  -29.3030   10.4470 C.ar  121  TYR121     -0.0009
    129  CD2       -7.3240  -29.5870    8.2290 C.ar  121  TYR121     -0.0009
    130  CE1       -5.2450  -29.2640   10.0100 C.ar  121  TYR121      0.0417
    131  CE2       -6.0130  -29.5370    7.7800 C.ar  121  TYR121      0.0417
    132  CZ        -4.9790  -29.3400    8.6660 C.ar  121  TYR121      0.1957
    133  OH        -3.6780  -29.2810    8.2520 O.3   121  TYR121     -0.2866
    134  N        -10.0750  -26.5000    9.2150 N.am  122  THR122     -0.1953
    135  CA       -10.0190  -25.2100    8.5050 C.3   122  THR122      0.1897
    136  C         -9.7390  -24.0790    9.4970 C.2   122  THR122      0.2313
    137  O         -8.8390  -23.2690    9.2410 O.2   122  THR122     -0.2863
    138  CB       -11.3230  -24.9200    7.7310 C.3   122  THR122      0.1794
    139  OG1      -11.6010  -26.0140    6.8490 O.3   122  THR122     -0.2208
    140  CG2      -11.2060  -23.6380    6.9430 C.3   122  THR122      0.0378
    141  N         -6.2040  -24.0190   10.9150 N.3   125  VAL125     -0.1245
    142  CA        -5.1570  -23.5310    9.9800 C.3   125  VAL125      0.1561
    143  C         -5.3150  -22.0100    9.8400 C.2   125  VAL125      0.2260
    144  O         -4.3220  -21.3220    9.8530 O.2   125  VAL125     -0.2867
    145  CB        -5.1720  -24.3040    8.6420 C.3   125  VAL125      0.0252
    146  CG1       -4.1760  -23.7240    7.6590 C.3   125  VAL125      0.0019
    147  CG2       -4.9130  -25.7940    8.8790 C.3   125  VAL125      0.0019
    148  N        -16.8570  -23.8550    4.2400 N.3   149  ASN149     -0.1240
    149  CA       -17.0900  -25.3130    4.1010 C.3   149  ASN149      0.1653
    150  C        -18.4990  -25.5330    3.5280 C.2   149  ASN149      0.2266
    151  O        -18.6400  -26.4070    2.6450 O.2   149  ASN149     -0.2867
    152  CB       -16.8580  -26.0420    5.4300 C.3   149  ASN149      0.1155
    153  CG       -15.4230  -26.4570    5.6550 C.2   149  ASN149      0.2627
    154  OD1      -15.1480  -27.6620    5.6340 O.2   149  ASN149     -0.2716
    155  ND2      -14.5140  -25.5190    5.8540 N.am  149  ASN149     -0.0877
    156  N        -18.4320  -24.6880   -0.1030 N.3   152  ASN152     -0.1225
    157  CA       -17.7970  -25.7440   -0.9210 C.3   152  ASN152      0.1785
    158  C        -18.7530  -26.9240   -1.0930 C.2   152  ASN152      0.2597
    159  O        -18.8410  -27.4810   -2.2150 O.2   152  ASN152     -0.2718
    160  CB       -16.4760  -26.1830   -0.3230 C.3   152  ASN152      0.1169
    161  CG       -15.4200  -25.1590   -0.6450 C.2   152  ASN152      0.2627
    162  OD1      -15.7180  -23.9690   -0.8740 O.2   152  ASN152     -0.2716
    163  ND2      -14.1810  -25.6050   -0.6330 N.am  152  ASN152     -0.0877
    164  N        -19.4300  -27.3180   -0.0190 N.am  153  GLU153     -0.1979
    165  CA       -20.4150  -28.4200   -0.0750 C.3   153  GLU153      0.1602
    166  C        -21.4270  -28.1070   -1.1960 C.2   153  GLU153      0.2287
    167  O        -21.6700  -28.9620   -2.1160 O.2   153  GLU153     -0.2864
    168  CB       -21.1320  -28.5510    1.2630 C.3   153  GLU153      0.0415
    169  CG       -22.1990  -29.5910    1.2600 C.3   153  GLU153      0.1163
    170  CD       -23.1030  -29.6230    2.4940 C.2   153  GLU153      0.3649
    171  OE1      -22.5870  -29.7350    3.6060 O.co2 153  GLU153     -0.2457
    172  OE2      -24.3370  -29.5960    2.3300 O.co2 153  GLU153     -0.2457
    173  N        -19.5580  -27.4320   -4.9110 N.3   156  LEU156     -0.1231
    174  CA       -18.9940  -28.6680   -5.5130 C.3   156  LEU156      0.1693
    175  C        -20.1270  -29.5680   -5.9950 C.2   156  LEU156      0.2592
    176  O        -20.0710  -30.0410   -7.1770 O.2   156  LEU156     -0.2718
    177  CB       -18.0900  -29.4260   -4.5460 C.3   156  LEU156      0.0284
    178  CG       -16.7590  -28.7720   -4.2550 C.3   156  LEU156      0.0019
    179  CD1      -16.0170  -29.5500   -3.1820 C.3   156  LEU156      0.0001
    180  CD2      -15.9050  -28.6080   -5.5160 C.3   156  LEU156      0.0001
    181  N        -21.0770  -29.8530   -5.1240 N.am  157  PHE157     -0.1976
    182  CA       -22.1480  -30.8470   -5.4030 C.3   157  PHE157      0.1639
    183  C        -23.0690  -30.3050   -6.5150 C.2   157  PHE157      0.2290
    184  O        -23.4750  -31.0930   -7.3820 O.2   157  PHE157     -0.2864
    185  CB       -22.8520  -31.2350   -4.0950 C.3   157  PHE157      0.0560
    186  CG       -21.9070  -31.8950   -3.1090 C.ar  157  PHE157     -0.0200
    187  CD1      -20.6650  -32.3900   -3.5150 C.ar  157  PHE157     -0.0042
    188  CD2      -22.2400  -32.0480   -1.7770 C.ar  157  PHE157     -0.0042
    189  CE1      -19.7800  -32.9630   -2.6090 C.ar  157  PHE157     -0.0003
    190  CE2      -21.3790  -32.6770   -0.8790 C.ar  157  PHE157     -0.0003
    191  CZ       -20.1570  -33.1370   -1.2930 C.ar  157  PHE157     -0.0000
    192  N        -11.7860  -18.3580   -0.9570 N.3   180  TRP180     -0.1241
    193  CA       -11.1230  -18.7860    0.3030 C.3   180  TRP180      0.1605
    194  C         -9.9730  -17.8220    0.6100 C.2   180  TRP180      0.2264
    195  O         -9.9590  -17.2510    1.7250 O.2   180  TRP180     -0.2867
    196  CB       -10.6630  -20.2370    0.2680 C.3   180  TRP180      0.0550
    197  CG       -11.7090  -21.2590    0.5540 C.ar  180  TRP180      0.0003
    198  CD1      -12.9170  -21.3900   -0.0800 C.ar  180  TRP180      0.0946
    199  CD2      -11.6420  -22.3070    1.5310 C.ar  180  TRP180      0.0152
    200  NE1      -13.6000  -22.4390    0.4510 N.ar  180  TRP180     -0.2442
    201  CE2      -12.8580  -23.0140    1.4460 C.ar  180  TRP180      0.0810
    202  CE3      -10.7010  -22.6990    2.4920 C.ar  180  TRP180      0.0012
    203  CZ2      -13.1490  -24.1070    2.2590 C.ar  180  TRP180      0.0191
    204  CZ3      -10.9630  -23.8020    3.2650 C.ar  180  TRP180      0.0001
    205  CH2      -12.1900  -24.4650    3.1860 C.ar  180  TRP180      0.0015
@<TRIPOS>BOND
     1   184   183    2
     2   176   175    2
     3   183   182    1
     4    78    77    2
     5   175   174    1
     6   175   181   am
     7    77    76    1
     8   180   178    1
     9   174   173    1
    10   174   177    1
    11   182   181    1
    12   182   185    1
    13   177   178    1
    14    76    75    1
    15    76    79    1
    16   178   179    1
    17   185   186    1
    18    67    66    2
    19    79    80    1
    20   187   186   ar
    21   187   189   ar
    22    66    65    1
    23   186   188   ar
    24    62    60    1
    25    59    58    2
    26   189   191   ar
    27    58    57    1
    28   159   158    2
    29    80    81   ar
    30    80    82   ar
    31    60    57    1
    32    60    61    1
    33   167   166    2
    34    65    64    1
    35    65    68    1
    36   188   190   ar
    37    63    61    1
    38    81    83   ar
    39    57    56    1
    40    82    84   ar
    41   191   190   ar
    42   166   165    1
    43   158   157    1
    44   158   164   am
    45    68    69    1
    46    40    41    2
    47    40    39    1
    48   192   193    1
    49   157   160    1
    50   157   156    1
    51    30    31    1
    52    56    54   am
    53   162   161    2
    54   161   163   am
    55   161   160    1
    56    52    53    1
    57    83    85   ar
    58    54    55    2
    59    54    53    1
    60   198   200   ar
    61   198   197   ar
    62   165   164    1
    63   165   168    1
    64    84    85   ar
    65    38    39    1
    66    38    32   am
    67    39    42    1
    68   196   193    1
    69   196   197    1
    70    31    32    1
    71    31    34    1
    72    32    33    2
    73   193   194    1
    74    42    43    1
    75    69    71   ar
    76    69    70   ar
    77   200   201   ar
    78   197   199   ar
    79   194   195    2
    80    16    14    1
    81    71    73   ar
    82    15    14    1
    83    70    72   ar
    84   169   168    1
    85   169   170    1
    86   201   199   ar
    87   201   203   ar
    88    14    13    1
    89   199   202   ar
    90    34    35    1
    91    43    44   ar
    92    43    45   ar
    93    44    46   ar
    94    99    98   ar
    95    99    97   ar
    96   203   205   ar
    97    73    74   ar
    98   172   170   ar
    99   202   204   ar
   100   170   171   ar
   101    72    74   ar
   102    98    96   ar
   103   151   150    2
   104    97    95   ar
   105    35    36    1
   106    45    48   ar
   107    45    47   ar
   108    13    10    1
   109   205   204   ar
   110    46    47   ar
   111    48    50   ar
   112     1     2    1
   113    28    27    2
   114   150   149    1
   115    10     9    1
   116    10    11    1
   117    96    93   ar
   118    95    93   ar
   119    95    94   ar
   120    47    49   ar
   121     7     6    1
   122     2     5    1
   123     2     3    1
   124   149   148    1
   125   149   152    1
   126    27    26    1
   127    27    29   am
   128    26    23    1
   129    93    91   ar
   130    94    92   ar
   131    36    37    1
   132     5     6    1
   133   121   120   ar
   134   121   119   ar
   135   120   118   ar
   136    50    51   ar
   137    11    12    2
   138    11    17   am
   139     6     8    1
   140   119   117   ar
   141    91    92   ar
   142    91    90    1
   143     3     4    2
   144   106   107    1
   145   106   105    1
   146   118   115   ar
   147    49    51   ar
   148   152   153    1
   149    23    24    1
   150    23    22    1
   151    25    24    2
   152   154   153    2
   153   153   155   am
   154   117   115   ar
   155   117   116   ar
   156   115   113   ar
   157    17    18    1
   158    90    87    1
   159   116   114   ar
   160   105   104    1
   161   113   114   ar
   162   113   112    1
   163   139   138    1
   164   140   138    1
   165    87    86    1
   166    87    88    1
   167   112   109    1
   168    18    19    1
   169    18    21    1
   170   146   145    1
   171   138   135    1
   172   131   129   ar
   173   131   132   ar
   174    19    20    2
   175    89    88    2
   176   104   101    1
   177   129   127   ar
   178   133   132    1
   179   101   100    1
   180   101   102    1
   181   109   110    1
   182   109   108    1
   183   111   110    2
   184   135   134    1
   185   135   136    1
   186   145   147    1
   187   145   142    1
   188   132   130   ar
   189   134   124   am
   190   137   136    2
   191   103   102    2
   192   127   126    1
   193   127   128   ar
   194   143   144    2
   195   143   142    1
   196   142   141    1
   197   130   128   ar
   198   124   125    2
   199   124   123    1
   200   126   123    1
   201   123   122    1
