@<TRIPOS>MOLECULE
tmp/6ho3A00.pdb
 236 231 0 0 0
SMALL
GASTEIGER

@<TRIPOS>ATOM
      1  N         -6.7080  -35.5040    3.3700 N.3    64  LEU64      -0.1245
      2  CA        -6.4740  -34.1750    4.0030 C.3    64  LEU64       0.1561
      3  C         -5.4720  -34.3130    5.1740 C.2    64  LEU64       0.2260
      4  O         -4.5860  -33.4160    5.3190 O.2    64  LEU64      -0.2867
      5  CB        -7.8110  -33.5680    4.4380 C.3    64  LEU64       0.0270
      6  CG        -7.7150  -32.1420    4.9680 C.3    64  LEU64       0.0019
      7  CD1       -7.1420  -31.1920    3.9320 C.3    64  LEU64       0.0001
      8  CD2       -9.0740  -31.6580    5.4300 C.3    64  LEU64       0.0001
      9  N         -1.9830  -34.5210    3.5780 N.3    67  LEU67      -0.1231
     10  CA        -1.6170  -33.1400    3.1820 C.3    67  LEU67       0.1693
     11  C         -1.1610  -32.3150    4.3920 C.2    67  LEU67       0.2591
     12  O         -0.1390  -31.6270    4.2830 O.2    67  LEU67      -0.2718
     13  CB        -2.8210  -32.4920    2.5020 C.3    67  LEU67       0.0284
     14  CG        -2.4740  -31.2560    1.6880 C.3    67  LEU67       0.0019
     15  CD1       -1.2200  -31.5030    0.8470 C.3    67  LEU67       0.0001
     16  CD2       -3.6490  -30.8510    0.8210 C.3    67  LEU67       0.0001
     17  N         -1.9130  -32.3420    5.4880 N.am   68  ALA68      -0.1980
     18  CA        -1.6220  -31.5650    6.7160 C.3    68  ALA68       0.1597
     19  C         -0.2250  -31.9130    7.2550 C.2    68  ALA68       0.2287
     20  O          0.4850  -30.9820    7.6660 O.2    68  ALA68      -0.2864
     21  CB        -2.6860  -31.8220    7.7470 C.3    68  ALA68       0.0319
     22  N          2.9450  -30.6550    4.0960 N.3    71  PRO71      -0.2116
     23  CA         2.4880  -29.4810    3.3540 C.3    71  PRO71       0.1372
     24  C          3.3040  -29.2700    2.0660 C.2    71  PRO71       0.2244
     25  O          4.5120  -29.3900    2.0880 O.2    71  PRO71      -0.2868
     26  CB         2.6990  -28.3420    4.3660 C.3    71  PRO71       0.0268
     27  CG         3.8300  -28.8440    5.2470 C.3    71  PRO71       0.0207
     28  CD         3.5670  -30.3280    5.3900 C.3    71  PRO71       0.0892
     29  N          0.9750  -19.5850   -0.4290 N.3    76  ARG76      -0.1245
     30  CA        -0.2610  -19.8650    0.3480 C.3    76  ARG76       0.1563
     31  C         -1.4560  -20.0740   -0.6090 C.2    76  ARG76       0.2260
     32  O         -2.2750  -20.9540   -0.3220 O.2    76  ARG76      -0.2867
     33  CB        -0.4410  -18.7260    1.3520 C.3    76  ARG76       0.0307
     34  CG        -0.7180  -17.4040    0.6550 C.3    76  ARG76       0.0489
     35  CD        -0.3450  -16.1440    1.4110 C.3    76  ARG76       0.2205
     36  NE        -0.9860  -15.0120    0.7530 N.pl3  76  ARG76      -0.0865
     37  CZ        -0.9940  -13.7770    1.2120 C.cat  76  ARG76       0.5346
     38  NH1       -0.3810  -13.4870    2.3460 N.pl3  76  ARG76       0.1354
     39  NH2       -1.6180  -12.8370    0.5260 N.pl3  76  ARG76       0.1354
     40  N         -1.1510  -23.6080   -1.7320 N.3    79  MET79      -0.1230
     41  CA        -1.3030  -24.5070   -0.5680 C.3    79  MET79       0.1702
     42  C         -2.7910  -24.7920   -0.4110 C.2    79  MET79       0.2592
     43  O         -3.1410  -25.9810   -0.4460 O.2    79  MET79      -0.2718
     44  CB        -0.6940  -23.9130    0.7050 C.3    79  MET79       0.0401
     45  CG         0.8190  -24.0670    0.7350 C.3    79  MET79       0.0596
     46  SD         1.5660  -23.7730    2.3480 S.3    79  MET79      -0.1393
     47  CE         2.3370  -22.1740    2.0850 C.3    79  MET79       0.0692
     48  N         -3.6170  -23.7360   -0.3580 N.am   80  TRP80      -0.1976
     49  CA        -5.0870  -23.8250   -0.1520 C.3    80  TRP80       0.1640
     50  C         -5.7270  -24.5500   -1.3330 C.2    80  TRP80       0.2290
     51  O         -6.6290  -25.4030   -1.0990 O.2    80  TRP80      -0.2864
     52  CB        -5.7280  -22.4450    0.0450 C.3    80  TRP80       0.0576
     53  CG        -5.4700  -21.8120    1.3780 C.ar   80  TRP80       0.0006
     54  CD1       -4.6860  -20.7220    1.6300 C.ar   80  TRP80       0.0946
     55  CD2       -6.0210  -22.2010    2.6470 C.ar   80  TRP80       0.0152
     56  NE1       -4.7010  -20.4230    2.9670 N.ar   80  TRP80      -0.2442
     57  CE2       -5.5120  -21.3080    3.6150 C.ar   80  TRP80       0.0810
     58  CE3       -6.9190  -23.1920    3.0570 C.ar   80  TRP80       0.0012
     59  CZ2       -5.8500  -21.3900    4.9600 C.ar   80  TRP80       0.0191
     60  CZ3       -7.2510  -23.2810    4.3930 C.ar   80  TRP80       0.0001
     61  CH2       -6.7270  -22.3870    5.3280 C.ar   80  TRP80       0.0015
     62  N         -5.3660  -28.1220   -0.7900 N.3    83  GLY83      -0.1210
     63  CA        -6.3970  -28.4710    0.2120 C.3    83  GLY83       0.1956
     64  C         -7.7990  -28.6010   -0.3880 C.2    83  GLY83       0.2611
     65  O         -8.4070  -29.6740   -0.2680 O.2    83  GLY83      -0.2717
     66  N         -8.3170  -27.5700   -1.0490 N.am   84  ILE84      -0.1979
     67  CA        -9.6770  -27.6730   -1.6450 C.3    84  ILE84       0.1595
     68  C         -9.6910  -28.8640   -2.6220 C.2    84  ILE84       0.2287
     69  O        -10.7070  -29.5590   -2.6720 O.2    84  ILE84      -0.2864
     70  CB       -10.1290  -26.3330   -2.2630 C.3    84  ILE84       0.0276
     71  CG1      -10.2810  -25.2490   -1.1910 C.3    84  ILE84       0.0022
     72  CG2      -11.4200  -26.4890   -3.0430 C.3    84  ILE84       0.0022
     73  CD1      -10.0070  -23.8300   -1.6880 C.3    84  ILE84       0.0001
     74  N        -10.9330  -32.4410   -1.9220 N.3    87  PHE87      -0.1241
     75  CA       -12.4120  -32.5770   -1.9380 C.3    87  PHE87       0.1605
     76  C        -12.8940  -32.6560   -3.3940 C.2    87  PHE87       0.2264
     77  O        -13.6890  -33.6050   -3.7090 O.2    87  PHE87      -0.2867
     78  CB       -13.0280  -31.4970   -1.0490 C.3    87  PHE87       0.0534
     79  CG       -12.6890  -31.6980    0.4070 C.ar   87  PHE87      -0.0203
     80  CD1      -13.3460  -32.6520    1.1610 C.ar   87  PHE87      -0.0042
     81  CD2      -11.6910  -30.9590    1.0160 C.ar   87  PHE87      -0.0042
     82  CE1      -13.0320  -32.8470    2.4940 C.ar   87  PHE87      -0.0003
     83  CE2      -11.3570  -31.1660    2.3410 C.ar   87  PHE87      -0.0003
     84  CZ       -12.0330  -32.1050    3.0840 C.ar   87  PHE87      -0.0000
     85  N        -14.4230  -36.4000   -4.2510 N.3    91  PHE91      -0.1241
     86  CA       -15.8930  -36.4320   -4.4780 C.3    91  PHE91       0.1605
     87  C        -16.1730  -36.3950   -5.9820 C.2    91  PHE91       0.2264
     88  O        -17.1530  -37.0350   -6.4210 O.2    91  PHE91      -0.2867
     89  CB       -16.5940  -35.2670   -3.7740 C.3    91  PHE91       0.0534
     90  CG       -16.4890  -35.2820   -2.2770 C.ar   91  PHE91      -0.0203
     91  CD1      -16.8050  -36.4100   -1.5500 C.ar   91  PHE91      -0.0042
     92  CD2      -16.1070  -34.1560   -1.5870 C.ar   91  PHE91      -0.0042
     93  CE1      -16.7030  -36.4220   -0.1650 C.ar   91  PHE91      -0.0003
     94  CE2      -16.0240  -34.1650   -0.2040 C.ar   91  PHE91      -0.0003
     95  CZ       -16.2970  -35.3030    0.5090 C.ar   91  PHE91      -0.0000
     96  N        -22.1790  -37.0420    7.8850 N.3   115  TRP115     -0.1241
     97  CA       -21.7690  -35.8370    7.1260 C.3   115  TRP115      0.1605
     98  C        -21.4900  -34.7070    8.1160 C.2   115  TRP115      0.2264
     99  O        -20.4390  -34.0470    8.0070 O.2   115  TRP115     -0.2867
    100  CB       -22.8260  -35.4430    6.0940 C.3   115  TRP115      0.0550
    101  CG       -22.3310  -34.3280    5.2350 C.ar  115  TRP115      0.0003
    102  CD1      -22.6440  -33.0050    5.3360 C.ar  115  TRP115      0.0946
    103  CD2      -21.3460  -34.4260    4.1960 C.ar  115  TRP115      0.0152
    104  NE1      -21.9540  -32.2770    4.4080 N.ar  115  TRP115     -0.2442
    105  CE2      -21.1510  -33.1220    3.6900 C.ar  115  TRP115      0.0810
    106  CE3      -20.6370  -35.4860    3.6240 C.ar  115  TRP115      0.0012
    107  CZ2      -20.2540  -32.8540    2.6560 C.ar  115  TRP115      0.0191
    108  CZ3      -19.7450  -35.2170    2.6080 C.ar  115  TRP115      0.0001
    109  CH2      -19.5590  -33.9220    2.1310 C.ar  115  TRP115      0.0015
    110  N        -17.9790  -32.6510    8.5820 N.3   119  MET119     -0.1245
    111  CA       -18.0310  -31.1870    8.3270 C.3   119  MET119      0.1570
    112  C        -17.4760  -30.4570    9.5620 C.2   119  MET119      0.2261
    113  O        -16.6100  -29.5850    9.3600 O.2   119  MET119     -0.2867
    114  CB       -19.4390  -30.6980    7.9750 C.3   119  MET119      0.0387
    115  CG       -19.8930  -31.1490    6.6070 C.3   119  MET119      0.0595
    116  SD       -18.9670  -30.3800    5.2300 S.3   119  MET119     -0.1393
    117  CE       -19.6780  -28.7280    5.2670 C.3   119  MET119      0.0692
    118  N        -13.6610  -30.8870    9.4910 N.3   122  TRP122     -0.1241
    119  CA       -13.0110  -30.1150    8.3910 C.3   122  TRP122      0.1605
    120  C        -13.0240  -28.6030    8.6800 C.2   122  TRP122      0.2264
    121  O        -12.0280  -27.8890    8.3510 O.2   122  TRP122     -0.2867
    122  CB       -13.6840  -30.4630    7.0470 C.3   122  TRP122      0.0550
    123  CG       -13.4780  -31.8980    6.6510 C.ar  122  TRP122      0.0003
    124  CD1      -12.3810  -32.6620    6.9310 C.ar  122  TRP122      0.0946
    125  CD2      -14.3870  -32.7580    5.9320 C.ar  122  TRP122      0.0152
    126  NE1      -12.5380  -33.9250    6.4360 N.ar  122  TRP122     -0.2442
    127  CE2      -13.7490  -34.0160    5.8060 C.ar  122  TRP122      0.0810
    128  CE3      -15.6760  -32.6040    5.3970 C.ar  122  TRP122      0.0012
    129  CZ2      -14.3490  -35.0980    5.1590 C.ar  122  TRP122      0.0191
    130  CZ3      -16.2630  -33.6680    4.7480 C.ar  122  TRP122      0.0001
    131  CH2      -15.6170  -34.9050    4.6450 C.ar  122  TRP122      0.0015
    132  N        -10.4510  -27.9160   11.4870 N.3   125  TYR125     -0.1227
    133  CA        -9.0740  -27.9440   10.9020 C.3   125  TYR125      0.1736
    134  C         -8.8020  -26.6470   10.1000 C.2   125  TYR125      0.2596
    135  O         -7.7030  -26.0720   10.2260 O.2   125  TYR125     -0.2718
    136  CB        -8.8360  -29.2440   10.1150 C.3   125  TYR125      0.0548
    137  CG        -7.5550  -29.1940    9.3330 C.ar  125  TYR125     -0.0200
    138  CD1       -6.3380  -28.9750    9.9630 C.ar  125  TYR125     -0.0009
    139  CD2       -7.5730  -29.2600    7.9530 C.ar  125  TYR125     -0.0009
    140  CE1       -5.1650  -28.8640    9.2400 C.ar  125  TYR125      0.0417
    141  CE2       -6.4110  -29.1510    7.2160 C.ar  125  TYR125      0.0417
    142  CZ        -5.2040  -28.9460    7.8570 C.ar  125  TYR125      0.1957
    143  OH        -4.0800  -28.8000    7.0920 O.3   125  TYR125     -0.2866
    144  N         -9.7630  -26.2120    9.2830 N.am  126  THR126     -0.1953
    145  CA        -9.7160  -24.9520    8.4950 C.3   126  THR126      0.1897
    146  C         -9.4440  -23.7890    9.4510 C.2   126  THR126      0.2313
    147  O         -8.5820  -22.9440    9.1510 O.2   126  THR126     -0.2863
    148  CB       -11.0190  -24.7220    7.7100 C.3   126  THR126      0.1794
    149  OG1      -11.2810  -25.8380    6.8480 O.3   126  THR126     -0.2208
    150  CG2      -10.9840  -23.4580    6.8830 C.3   126  THR126      0.0378
    151  N         -5.9030  -23.7720   10.9910 N.3   129  VAL129     -0.1245
    152  CA        -4.9440  -23.2730    9.9740 C.3   129  VAL129      0.1561
    153  C         -5.1070  -21.7600    9.8460 C.2   129  VAL129      0.2260
    154  O         -4.1010  -21.0850    9.8000 O.2   129  VAL129     -0.2867
    155  CB        -5.0970  -24.0090    8.6350 C.3   129  VAL129      0.0252
    156  CG1       -4.2330  -23.3550    7.5670 C.3   129  VAL129      0.0019
    157  CG2       -4.7410  -25.4880    8.7890 C.3   129  VAL129      0.0019
    158  N         -2.1140  -18.9510   10.6390 N.3   133  GLU133     -0.1245
    159  CA        -1.7560  -17.8890    9.6680 C.3   133  GLU133      0.1567
    160  C         -1.8370  -16.5190   10.3610 C.2   133  GLU133      0.2260
    161  O         -1.0450  -15.6170   10.0020 O.2   133  GLU133     -0.2867
    162  CB        -2.6720  -17.9660    8.4420 C.3   133  GLU133      0.0388
    163  CG        -2.3670  -19.1160    7.4920 C.3   133  GLU133      0.1160
    164  CD        -1.0440  -19.0160    6.7610 C.2   133  GLU133      0.3649
    165  OE1       -1.0190  -18.6040    5.5970 O.co2 133  GLU133     -0.2457
    166  OE2       -0.0450  -19.3590    7.3640 O.co2 133  GLU133     -0.2457
    167  N        -16.6190  -23.5410    4.2400 N.3   153  ASN153     -0.1240
    168  CA       -16.8190  -25.0130    4.1310 C.3   153  ASN153      0.1653
    169  C        -18.2200  -25.2620    3.5680 C.2   153  ASN153      0.2266
    170  O        -18.3570  -26.1310    2.6860 O.2   153  ASN153     -0.2867
    171  CB       -16.5930  -25.7520    5.4640 C.3   153  ASN153      0.1155
    172  CG       -15.1650  -26.2280    5.6610 C.2   153  ASN153      0.2627
    173  OD1      -14.9090  -27.4140    5.5100 O.2   153  ASN153     -0.2716
    174  ND2      -14.2430  -25.3290    5.9970 N.am  153  ASN153     -0.0877
    175  N        -18.2370  -24.5270   -0.1680 N.3   156  ASN156     -0.1225
    176  CA       -17.5550  -25.5670   -0.9720 C.3   156  ASN156      0.1785
    177  C        -18.5010  -26.7430   -1.1650 C.2   156  ASN156      0.2597
    178  O        -18.6320  -27.1910   -2.2900 O.2   156  ASN156     -0.2718
    179  CB       -16.2180  -25.9810   -0.3550 C.3   156  ASN156      0.1169
    180  CG       -15.1780  -24.9140   -0.5920 C.2   156  ASN156      0.2627
    181  OD1      -15.5450  -23.7770   -0.8880 O.2   156  ASN156     -0.2716
    182  ND2      -13.9050  -25.2690   -0.5170 N.am  156  ASN156     -0.0877
    183  N        -19.1450  -27.1770   -0.0920 N.am  157  GLU157     -0.1979
    184  CA       -20.1500  -28.2610   -0.1260 C.3   157  GLU157      0.1602
    185  C        -21.1700  -27.9570   -1.2210 C.2   157  GLU157      0.2287
    186  O        -21.3100  -28.7840   -2.1430 O.2   157  GLU157     -0.2864
    187  CB       -20.8510  -28.3790    1.2150 C.3   157  GLU157      0.0415
    188  CG       -21.9860  -29.3600    1.1650 C.3   157  GLU157      0.1163
    189  CD       -22.7930  -29.3680    2.4420 C.2   157  GLU157      0.3649
    190  OE1      -22.1720  -29.4620    3.5120 O.co2 157  GLU157     -0.2457
    191  OE2      -24.0350  -29.2510    2.3620 O.co2 157  GLU157     -0.2457
    192  N        -19.2930  -27.2160   -4.9290 N.3   160  LEU160     -0.1231
    193  CA       -18.7710  -28.4880   -5.4900 C.3   160  LEU160      0.1693
    194  C        -19.9330  -29.3690   -5.9550 C.2   160  LEU160      0.2592
    195  O        -19.8710  -29.8010   -7.1280 O.2   160  LEU160     -0.2718
    196  CB       -17.8810  -29.2080   -4.4760 C.3   160  LEU160      0.0284
    197  CG       -16.5180  -28.5530   -4.2560 C.3   160  LEU160      0.0019
    198  CD1      -15.7480  -29.2870   -3.1840 C.3   160  LEU160      0.0001
    199  CD2      -15.7170  -28.4680   -5.5630 C.3   160  LEU160      0.0001
    200  N        -20.9630  -29.5770   -5.1230 N.am  161  PHE161     -0.1976
    201  CA       -22.0870  -30.5090   -5.4370 C.3   161  PHE161      0.1639
    202  C        -23.0080  -29.9520   -6.5340 C.2   161  PHE161      0.2290
    203  O        -23.4960  -30.7530   -7.3290 O.2   161  PHE161     -0.2864
    204  CB       -22.8410  -30.9300   -4.1720 C.3   161  PHE161      0.0560
    205  CG       -21.9710  -31.6460   -3.1710 C.ar  161  PHE161     -0.0200
    206  CD1      -20.7940  -32.2760   -3.5610 C.ar  161  PHE161     -0.0042
    207  CD2      -22.2990  -31.6740   -1.8300 C.ar  161  PHE161     -0.0042
    208  CE1      -19.9730  -32.9060   -2.6320 C.ar  161  PHE161     -0.0003
    209  CE2      -21.4850  -32.3250   -0.9100 C.ar  161  PHE161     -0.0003
    210  CZ       -20.3260  -32.9420   -1.3090 C.ar  161  PHE161     -0.0000
    211  N        -11.6050  -18.1460   -0.9700 N.3   184  TRP184     -0.1241
    212  CA       -10.9000  -18.5920    0.2660 C.3   184  TRP184      0.1605
    213  C         -9.7420  -17.6320    0.5680 C.2   184  TRP184      0.2264
    214  O         -9.7190  -17.0480    1.6580 O.2   184  TRP184     -0.2867
    215  CB       -10.4010  -20.0350    0.1500 C.3   184  TRP184      0.0550
    216  CG       -11.4470  -21.0530    0.4770 C.ar  184  TRP184      0.0003
    217  CD1      -12.6630  -21.1860   -0.1200 C.ar  184  TRP184      0.0946
    218  CD2      -11.3850  -22.0810    1.4790 C.ar  184  TRP184      0.0152
    219  NE1      -13.3440  -22.2380    0.4140 N.ar  184  TRP184     -0.2442
    220  CE2      -12.5980  -22.7910    1.4100 C.ar  184  TRP184      0.0810
    221  CE3      -10.4290  -22.4760    2.4170 C.ar  184  TRP184      0.0012
    222  CZ2      -12.8790  -23.8700    2.2440 C.ar  184  TRP184      0.0191
    223  CZ3      -10.6950  -23.5600    3.2320 C.ar  184  TRP184      0.0001
    224  CH2      -11.9030  -24.2450    3.1450 C.ar  184  TRP184      0.0015
    225  N         -7.0950  -13.5970    3.7280 N.3   189  TYR189     -0.1241
    226  CA        -5.9140  -12.6870    3.7890 C.3   189  TYR189      0.1605
    227  C         -6.2560  -11.1930    3.6200 C.2   189  TYR189      0.2264
    228  O         -5.3190  -10.3990    3.8570 O.2   189  TYR189     -0.2867
    229  CB        -4.8640  -13.1550    2.7820 C.3   189  TYR189      0.0534
    230  CG        -4.3450  -14.5400    3.0870 C.ar  189  TYR189     -0.0201
    231  CD1       -3.4100  -14.7480    4.0880 C.ar  189  TYR189     -0.0009
    232  CD2       -4.8120  -15.6460    2.4030 C.ar  189  TYR189     -0.0009
    233  CE1       -2.9600  -16.0180    4.4040 C.ar  189  TYR189      0.0417
    234  CE2       -4.3680  -16.9230    2.7010 C.ar  189  TYR189      0.0417
    235  CZ        -3.4340  -17.1130    3.6990 C.ar  189  TYR189      0.1957
    236  OH        -3.0110  -18.3810    3.9960 O.3   189  TYR189     -0.2866
@<TRIPOS>BOND
     1   203   202    2
     2   195   194    2
     3   202   201    1
     4    88    87    2
     5    87    86    1
     6   194   193    1
     7   194   200   am
     8   199   197    1
     9   193   192    1
    10   193   196    1
    11   201   200    1
    12   201   204    1
    13    86    85    1
    14    86    89    1
    15   196   197    1
    16   197   198    1
    17   204   205    1
    18    89    90    1
    19    77    76    2
    20   206   205   ar
    21   206   208   ar
    22    76    75    1
    23   205   207   ar
    24    72    70    1
    25    69    68    2
    26   208   210   ar
    27    68    67    1
    28   178   177    2
    29    90    92   ar
    30    90    91   ar
    31    70    67    1
    32    70    71    1
    33   186   185    2
    34    75    74    1
    35    75    78    1
    36   207   209   ar
    37    40    41    1
    38    73    71    1
    39    67    66    1
    40    92    94   ar
    41    91    93   ar
    42    50    51    2
    43    50    49    1
    44   210   209   ar
    45   185   184    1
    46   177   176    1
    47   177   183   am
    48    66    64   am
    49    78    79    1
    50   176   179    1
    51   176   175    1
    52   211   212    1
    53   181   180    2
    54    62    63    1
    55    31    32    2
    56    31    30    1
    57   180   182   am
    58   180   179    1
    59    41    42    1
    60    41    44    1
    61    43    42    2
    62    29    30    1
    63    42    48   am
    64    64    65    2
    65    64    63    1
    66    48    49    1
    67    94    95   ar
    68    93    95   ar
    69    49    52    1
    70   184   183    1
    71   184   187    1
    72   217   219   ar
    73   217   216   ar
    74    52    53    1
    75   215   212    1
    76   215   216    1
    77   212   213    1
    78    30    33    1
    79    79    81   ar
    80    79    80   ar
    81   219   220   ar
    82   216   218   ar
    83    39    37    1
    84   213   214    2
    85    34    33    1
    86    34    35    1
    87    44    45    1
    88    45    46    1
    89    36    37    2
    90    36    35    1
    91    16    14    1
    92    15    14    1
    93    81    83   ar
    94    80    82   ar
    95   188   187    1
    96   188   189    1
    97    37    38    1
    98    53    54   ar
    99    53    55   ar
   100   220   218   ar
   101   220   222   ar
   102   218   221   ar
   103    54    56   ar
   104    14    13    1
   105    24    25    2
   106    24    23    1
   107    47    46    1
   108   109   108   ar
   109   109   107   ar
   110   222   224   ar
   111    83    84   ar
   112   191   189   ar
   113   232   234   ar
   114   232   230   ar
   115   221   223   ar
   116   189   190   ar
   117    82    84   ar
   118    13    10    1
   119   108   106   ar
   120    55    58   ar
   121    55    57   ar
   122   107   105   ar
   123   170   169    2
   124   234   235   ar
   125   229   230    1
   126   229   226    1
   127    56    57   ar
   128    58    60   ar
   129   230   231   ar
   130   224   223   ar
   131    10     9    1
   132    10    11    1
   133    23    22    1
   134    23    26    1
   135     1     2    1
   136   169   168    1
   137    57    59   ar
   138   227   226    1
   139   227   228    2
   140   106   103   ar
   141   105   103   ar
   142   105   104   ar
   143   235   236    1
   144   235   233   ar
   145   225   226    1
   146     7     6    1
   147     2     5    1
   148     2     3    1
   149   231   233   ar
   150    22    28    1
   151   168   167    1
   152   168   171    1
   153   103   101   ar
   154    12    11    2
   155    26    27    1
   156    11    17   am
   157    60    61   ar
   158   104   102   ar
   159     5     6    1
   160   131   130   ar
   161   131   129   ar
   162   130   128   ar
   163    59    61   ar
   164     6     8    1
   165   129   127   ar
   166     3     4    2
   167   116   117    1
   168   116   115    1
   169   101   102   ar
   170   101   100    1
   171    27    28    1
   172   128   125   ar
   173   171   172    1
   174    17    18    1
   175   173   172    2
   176   165   164   ar
   177   172   174   am
   178   127   125   ar
   179   127   126   ar
   180   125   123   ar
   181   100    97    1
   182   126   124   ar
   183   115   114    1
   184   123   124   ar
   185   123   122    1
   186    18    19    1
   187    18    21    1
   188   164   166   ar
   189   164   163    1
   190   149   148    1
   191   150   148    1
   192   122   119    1
   193   143   142    1
   194    97    96    1
   195    97    98    1
   196   141   142   ar
   197   141   139   ar
   198    19    20    2
   199   163   162    1
   200   156   155    1
   201   148   145    1
   202   142   140   ar
   203   139   137   ar
   204   114   111    1
   205    99    98    2
   206   111   110    1
   207   111   112    1
   208   121   120    2
   209   119   120    1
   210   119   118    1
   211   162   159    1
   212   145   144    1
   213   145   146    1
   214   155   157    1
   215   155   152    1
   216   147   146    2
   217   140   138   ar
   218   144   134   am
   219   137   138   ar
   220   137   136    1
   221   113   112    2
   222   159   160    1
   223   159   158    1
   224   154   153    2
   225   153   152    1
   226   152   151    1
   227   161   160    2
   228   134   135    2
   229   134   133    1
   230   136   133    1
   231   133   132    1
