@<TRIPOS>MOLECULE
tmp/6ho4A00.pdb
 216 213 0 0 0
SMALL
GASTEIGER

@<TRIPOS>ATOM
      1  N         -6.9630  -35.6440    3.2750 N.3    63  LEU63      -0.1245
      2  CA        -6.6570  -34.3670    3.9170 C.3    63  LEU63       0.1561
      3  C         -5.6620  -34.5900    5.0720 C.2    63  LEU63       0.2260
      4  O         -4.7400  -33.7810    5.1990 O.2    63  LEU63      -0.2867
      5  CB        -7.9920  -33.7750    4.3970 C.3    63  LEU63       0.0270
      6  CG        -7.9300  -32.3720    4.9630 C.3    63  LEU63       0.0019
      7  CD1       -7.4500  -31.3560    3.9310 C.3    63  LEU63       0.0001
      8  CD2       -9.3160  -31.9940    5.4990 C.3    63  LEU63       0.0001
      9  N         -2.1540  -34.8130    3.4730 N.3    66  LEU66      -0.1231
     10  CA        -1.6570  -33.4560    3.1480 C.3    66  LEU66       0.1693
     11  C         -1.1780  -32.7880    4.4370 C.2    66  LEU66       0.2591
     12  O         -0.1500  -32.1140    4.3860 O.2    66  LEU66      -0.2718
     13  CB        -2.7740  -32.5860    2.5520 C.3    66  LEU66       0.0284
     14  CG        -3.0980  -32.6930    1.0710 C.3    66  LEU66       0.0019
     15  CD1       -4.1250  -31.6170    0.7310 C.3    66  LEU66       0.0001
     16  CD2       -1.8540  -32.5370    0.1980 C.3    66  LEU66       0.0001
     17  N         -1.9470  -32.9090    5.5320 N.am   67  ALA67      -0.1980
     18  CA        -1.7050  -32.1820    6.7990 C.3    67  ALA67       0.1597
     19  C         -0.3240  -32.5960    7.3220 C.2    67  ALA67       0.2287
     20  O          0.4000  -31.7310    7.8010 O.2    67  ALA67      -0.2864
     21  CB        -2.7880  -32.4440    7.8270 C.3    67  ALA67       0.0319
     22  N          3.1130  -31.2790    4.3780 N.3    70  PRO70      -0.2102
     23  CA         2.8340  -29.9820    3.7430 C.3    70  PRO70       0.1504
     24  C          3.4840  -29.8010    2.3490 C.2    70  PRO70       0.2575
     25  O          4.6600  -30.0940    2.2320 O.2    70  PRO70      -0.2718
     26  CB         3.4270  -28.9830    4.7660 C.3    70  PRO70       0.0282
     27  CG         4.3130  -29.8210    5.6800 C.3    70  PRO70       0.0208
     28  CD         3.5910  -31.1450    5.7670 C.3    70  PRO70       0.0893
     29  N          2.7410  -29.3240    1.3310 N.am   71  ALA71      -0.1980
     30  CA         3.2960  -28.9310    0.0050 C.3    71  ALA71       0.1597
     31  C          4.0880  -27.6220    0.1370 C.2    71  ALA71       0.2287
     32  O          3.6890  -26.7260    0.9240 O.2    71  ALA71      -0.2864
     33  CB         2.2230  -28.8100   -1.0540 C.3    71  ALA71       0.0319
     34  N         -1.5330  -23.8040   -1.2570 N.3    78  MET78      -0.1230
     35  CA        -1.8300  -24.5790   -0.0290 C.3    78  MET78       0.1702
     36  C         -3.3670  -24.8180   -0.0040 C.2    78  MET78       0.2592
     37  O         -3.8110  -25.9730    0.1690 O.2    78  MET78      -0.2718
     38  CB        -1.3680  -23.8570    1.2550 C.3    78  MET78       0.0401
     39  CG        -1.8240  -24.5500    2.5660 C.3    78  MET78       0.0596
     40  SD        -1.3810  -23.7990    4.2360 S.3    78  MET78      -0.1393
     41  CE        -2.5420  -22.4360    4.3780 C.3    78  MET78       0.0692
     42  N         -4.1360  -23.7400   -0.0370 N.am   79  TRP79      -0.1976
     43  CA        -5.6060  -23.8810    0.0750 C.3    79  TRP79       0.1640
     44  C         -6.1150  -24.6780   -1.1390 C.2    79  TRP79       0.2290
     45  O         -7.0430  -25.5010   -0.9890 O.2    79  TRP79      -0.2864
     46  CB        -6.2850  -22.5160    0.2290 C.3    79  TRP79       0.0576
     47  CG        -6.0200  -21.9220    1.5800 C.ar   79  TRP79       0.0006
     48  CD1       -5.1900  -20.8700    1.8550 C.ar   79  TRP79       0.0946
     49  CD2       -6.5480  -22.3490    2.8420 C.ar   79  TRP79       0.0152
     50  NE1       -5.1840  -20.6090    3.1980 N.ar   79  TRP79      -0.2442
     51  CE2       -5.9930  -21.4940    3.8390 C.ar   79  TRP79       0.0810
     52  CE3       -7.4000  -23.3670    3.2460 C.ar   79  TRP79       0.0012
     53  CZ2       -6.3000  -21.6280    5.1840 C.ar   79  TRP79       0.0191
     54  CZ3       -7.6710  -23.5310    4.5880 C.ar   79  TRP79       0.0001
     55  CH2       -7.1240  -22.6680    5.5360 C.ar   79  TRP79       0.0015
     56  N         -4.6650  -27.0810   -2.7560 N.3    81  THR81      -0.1203
     57  CA        -4.4530  -28.5220   -2.5460 C.3    81  THR81       0.1994
     58  C         -5.4760  -29.0980   -1.6060 C.2    81  THR81       0.2618
     59  O         -5.9420  -30.2160   -1.8440 O.2    81  THR81      -0.2717
     60  CB        -3.0000  -28.7650   -2.0860 C.3    81  THR81       0.1784
     61  OG1       -2.8000  -28.1950   -0.7890 O.3    81  THR81      -0.2211
     62  CG2       -2.0570  -28.1310   -3.0340 C.3    81  THR81       0.0376
     63  N         -5.8860  -28.3770   -0.5520 N.am   82  GLY82      -0.1942
     64  CA        -6.9130  -28.8580    0.3670 C.3    82  GLY82       0.2014
     65  C         -8.2780  -28.9670   -0.2980 C.2    82  GLY82       0.2638
     66  O         -8.9480  -29.9640   -0.1790 O.2    82  GLY82      -0.2714
     67  N         -8.7170  -27.9230   -0.9660 N.am   83  ILE83      -0.1977
     68  CA       -10.0550  -27.9620   -1.6350 C.3    83  ILE83       0.1596
     69  C        -10.0210  -29.0890   -2.6560 C.2    83  ILE83       0.2287
     70  O        -11.0250  -29.8010   -2.8610 O.2    83  ILE83      -0.2864
     71  CB       -10.4130  -26.5900   -2.2570 C.3    83  ILE83       0.0276
     72  CG1      -10.4750  -25.5170   -1.1560 C.3    83  ILE83       0.0022
     73  CG2      -11.6950  -26.6890   -3.0600 C.3    83  ILE83       0.0022
     74  CD1      -10.5950  -24.1360   -1.7010 C.3    83  ILE83       0.0001
     75  N        -11.3570  -32.5860   -1.8980 N.3    86  PHE86      -0.1241
     76  CA       -12.8030  -32.7890   -1.9730 C.3    86  PHE86       0.1605
     77  C        -13.2810  -32.8190   -3.4230 C.2    86  PHE86       0.2264
     78  O        -14.1240  -33.6460   -3.7830 O.2    86  PHE86      -0.2867
     79  CB       -13.5000  -31.7240   -1.1120 C.3    86  PHE86       0.0534
     80  CG       -13.1290  -31.8930    0.3330 C.ar   86  PHE86      -0.0203
     81  CD1      -13.7230  -32.8980    1.0840 C.ar   86  PHE86      -0.0042
     82  CD2      -12.0650  -31.1880    0.8760 C.ar   86  PHE86      -0.0042
     83  CE1      -13.3590  -33.0870    2.4100 C.ar   86  PHE86      -0.0003
     84  CE2      -11.6840  -31.4030    2.1830 C.ar   86  PHE86      -0.0003
     85  CZ       -12.3020  -32.3690    2.9290 C.ar   86  PHE86      -0.0000
     86  N        -14.8290  -36.5520   -4.1490 N.3    90  PHE90      -0.1241
     87  CA       -16.2830  -36.5840   -4.3990 C.3    90  PHE90       0.1605
     88  C        -16.5270  -36.5650   -5.9100 C.2    90  PHE90       0.2264
     89  O        -17.4110  -37.1920   -6.3570 O.2    90  PHE90      -0.2867
     90  CB       -17.0000  -35.4980   -3.5960 C.3    90  PHE90       0.0534
     91  CG       -17.0410  -35.7980   -2.1200 C.ar   90  PHE90      -0.0203
     92  CD1      -18.0060  -36.6630   -1.6190 C.ar   90  PHE90      -0.0042
     93  CD2      -16.1740  -35.2300   -1.2240 C.ar   90  PHE90      -0.0042
     94  CE1      -18.0760  -36.9680   -0.2700 C.ar   90  PHE90      -0.0003
     95  CE2      -16.2100  -35.5540    0.1430 C.ar   90  PHE90      -0.0003
     96  CZ       -17.1540  -36.4250    0.6110 C.ar   90  PHE90      -0.0000
     97  N        -22.5890  -37.3240    7.7410 N.3   114  TRP114     -0.1241
     98  CA       -22.2180  -36.0860    7.0130 C.3   114  TRP114      0.1605
     99  C        -21.9150  -34.9930    8.0360 C.2   114  TRP114      0.2264
    100  O        -20.8780  -34.2810    7.9900 O.2   114  TRP114     -0.2867
    101  CB       -23.3190  -35.6480    6.0550 C.3   114  TRP114      0.0550
    102  CG       -22.7750  -34.5810    5.1650 C.ar  114  TRP114      0.0003
    103  CD1      -23.0430  -33.2550    5.2450 C.ar  114  TRP114      0.0946
    104  CD2      -21.7770  -34.7480    4.1540 C.ar  114  TRP114      0.0152
    105  NE1      -22.3150  -32.5840    4.2880 N.ar  114  TRP114     -0.2442
    106  CE2      -21.5150  -33.4700    3.6240 C.ar  114  TRP114      0.0810
    107  CE3      -21.1020  -35.8590    3.6440 C.ar  114  TRP114      0.0012
    108  CZ2      -20.5700  -33.2950    2.6090 C.ar  114  TRP114      0.0191
    109  CZ3      -20.1800  -35.6860    2.6270 C.ar  114  TRP114      0.0001
    110  CH2      -19.9210  -34.4120    2.1260 C.ar  114  TRP114      0.0015
    111  N        -18.3100  -33.0380    8.4710 N.3   118  MET118     -0.1245
    112  CA       -18.2440  -31.5710    8.2340 C.3   118  MET118      0.1570
    113  C        -17.7060  -30.8840    9.4890 C.2   118  MET118      0.2261
    114  O        -16.9640  -29.8930    9.3690 O.2   118  MET118     -0.2867
    115  CB       -19.6240  -31.0370    7.8650 C.3   118  MET118      0.0387
    116  CG       -20.0910  -31.4340    6.4920 C.3   118  MET118      0.0595
    117  SD       -19.1090  -30.6890    5.1180 S.3   118  MET118     -0.1393
    118  CE       -19.7410  -29.0060    5.1790 C.3   118  MET118      0.0692
    119  N        -13.9490  -31.3050    9.3930 N.3   121  TRP121     -0.1241
    120  CA       -13.2740  -30.5230    8.3430 C.3   121  TRP121      0.1605
    121  C        -13.3180  -29.0200    8.6510 C.2   121  TRP121      0.2264
    122  O        -12.3450  -28.3060    8.4380 O.2   121  TRP121     -0.2867
    123  CB       -13.9010  -30.8360    6.9940 C.3   121  TRP121      0.0550
    124  CG       -13.7760  -32.2940    6.6490 C.ar  121  TRP121      0.0003
    125  CD1      -12.7490  -33.1030    7.0200 C.ar  121  TRP121      0.0946
    126  CD2      -14.6260  -33.0650    5.8070 C.ar  121  TRP121      0.0152
    127  NE1      -12.9520  -34.3630    6.5060 N.ar  121  TRP121     -0.2442
    128  CE2      -14.0730  -34.3730    5.7430 C.ar  121  TRP121      0.0810
    129  CE3      -15.8300  -32.8100    5.1360 C.ar  121  TRP121      0.0012
    130  CZ2      -14.6940  -35.3910    5.0180 C.ar  121  TRP121      0.0191
    131  CZ3      -16.4350  -33.8200    4.4300 C.ar  121  TRP121      0.0001
    132  CH2      -15.8440  -35.0890    4.3540 C.ar  121  TRP121      0.0015
    133  N        -10.7470  -28.3090   11.4200 N.3   124  TYR124     -0.1227
    134  CA        -9.3910  -28.3020   10.8640 C.3   124  TYR124      0.1736
    135  C         -9.1410  -26.9970   10.0950 C.2   124  TYR124      0.2596
    136  O         -8.1260  -26.3210   10.2380 O.2   124  TYR124     -0.2718
    137  CB        -9.1350  -29.5230    9.9910 C.3   124  TYR124      0.0548
    138  CG        -7.7470  -29.5000    9.4350 C.ar  124  TYR124     -0.0200
    139  CD1       -6.6370  -29.4460   10.2500 C.ar  124  TYR124     -0.0009
    140  CD2       -7.5440  -29.5200    8.0670 C.ar  124  TYR124     -0.0009
    141  CE1       -5.3520  -29.4530    9.7320 C.ar  124  TYR124      0.0417
    142  CE2       -6.2640  -29.4960    7.5430 C.ar  124  TYR124      0.0417
    143  CZ        -5.1780  -29.4280    8.3690 C.ar  124  TYR124      0.1957
    144  OH        -3.9270  -29.4040    7.8190 O.3   124  TYR124     -0.2866
    145  N        -10.1140  -26.5840    9.2790 N.am  125  THR125     -0.1953
    146  CA       -10.0650  -25.3160    8.5620 C.3   125  THR125      0.1897
    147  C         -9.8080  -24.1760    9.5550 C.2   125  THR125      0.2313
    148  O         -8.9920  -23.2960    9.3020 O.2   125  THR125     -0.2863
    149  CB       -11.3620  -25.0470    7.7580 C.3   125  THR125      0.1794
    150  OG1      -11.6150  -26.1350    6.8540 O.3   125  THR125     -0.2208
    151  CG2      -11.2800  -23.7460    7.0120 C.3   125  THR125      0.0378
    152  N         -6.2660  -24.1380   10.9560 N.3   128  VAL128     -0.1245
    153  CA        -5.2970  -23.5710    9.9840 C.3   128  VAL128      0.1561
    154  C         -5.4380  -22.0560    9.8820 C.2   128  VAL128      0.2260
    155  O         -4.4360  -21.3400    9.8650 O.2   128  VAL128     -0.2867
    156  CB        -5.3760  -24.2900    8.6320 C.3   128  VAL128      0.0252
    157  CG1       -4.3880  -23.6760    7.6560 C.3   128  VAL128      0.0019
    158  CG2       -5.0990  -25.7610    8.8500 C.3   128  VAL128      0.0019
    159  N        -16.8570  -23.9510    4.2520 N.3   152  ASN152     -0.1240
    160  CA       -17.0940  -25.3880    4.0940 C.3   152  ASN152      0.1653
    161  C        -18.4950  -25.6180    3.5270 C.2   152  ASN152      0.2266
    162  O        -18.6530  -26.4660    2.6490 O.2   152  ASN152     -0.2867
    163  CB       -16.9030  -26.1440    5.4060 C.3   152  ASN152      0.1155
    164  CG       -15.4790  -26.5750    5.6750 C.2   152  ASN152      0.2627
    165  OD1      -15.1890  -27.7700    5.5090 O.2   152  ASN152     -0.2716
    166  ND2      -14.6340  -25.6310    6.0200 N.am  152  ASN152     -0.0877
    167  N        -18.5290  -24.8030   -0.0850 N.3   155  ASN155     -0.1225
    168  CA       -17.9360  -25.8590   -0.9420 C.3   155  ASN155      0.1785
    169  C        -18.8620  -27.0440   -1.0890 C.2   155  ASN155      0.2597
    170  O        -18.9890  -27.5750   -2.2060 O.2   155  ASN155     -0.2718
    171  CB       -16.6110  -26.3440   -0.3640 C.3   155  ASN155      0.1169
    172  CG       -15.5000  -25.3380   -0.5870 C.2   155  ASN155      0.2627
    173  OD1      -15.7120  -24.1540   -0.8960 O.2   155  ASN155     -0.2716
    174  ND2      -14.2710  -25.8110   -0.4260 N.am  155  ASN155     -0.0877
    175  N        -19.5310  -27.4430   -0.0220 N.am  156  GLU156     -0.1979
    176  CA       -20.4930  -28.5440   -0.1000 C.3   156  GLU156      0.1602
    177  C        -21.5270  -28.2260   -1.1880 C.2   156  GLU156      0.2287
    178  O        -21.7320  -29.0280   -2.1230 O.2   156  GLU156     -0.2864
    179  CB       -21.2030  -28.6650    1.2370 C.3   156  GLU156      0.0415
    180  CG       -22.2770  -29.7400    1.2310 C.3   156  GLU156      0.1163
    181  CD       -23.1730  -29.6950    2.4710 C.2   156  GLU156      0.3649
    182  OE1      -22.6790  -29.8120    3.5580 O.co2 156  GLU156     -0.2457
    183  OE2      -24.4130  -29.6000    2.2980 O.co2 156  GLU156     -0.2457
    184  N        -19.5960  -27.4460   -4.9320 N.3   159  LEU159     -0.1231
    185  CA       -19.0240  -28.6450   -5.5960 C.3   159  LEU159      0.1693
    186  C        -20.1470  -29.5880   -6.0220 C.2   159  LEU159      0.2592
    187  O        -20.1460  -30.0740   -7.1640 O.2   159  LEU159     -0.2718
    188  CB       -18.0950  -29.3660   -4.6260 C.3   159  LEU159      0.0284
    189  CG       -16.7440  -28.7030   -4.3530 C.3   159  LEU159      0.0019
    190  CD1      -16.0360  -29.5110   -3.2690 C.3   159  LEU159      0.0001
    191  CD2      -15.8760  -28.5900   -5.6100 C.3   159  LEU159      0.0001
    192  N        -21.1250  -29.8510   -5.1690 N.am  160  PHE160     -0.1976
    193  CA       -22.1370  -30.8800   -5.4720 C.3   160  PHE160      0.1639
    194  C        -23.0860  -30.3320   -6.5360 C.2   160  PHE160      0.2290
    195  O        -23.4880  -31.1110   -7.4370 O.2   160  PHE160     -0.2864
    196  CB       -22.8110  -31.3550   -4.1910 C.3   160  PHE160      0.0560
    197  CG       -21.8560  -31.9950   -3.2180 C.ar  160  PHE160     -0.0200
    198  CD1      -20.5400  -32.3280   -3.5430 C.ar  160  PHE160     -0.0042
    199  CD2      -22.2700  -32.1980   -1.9110 C.ar  160  PHE160     -0.0042
    200  CE1      -19.6470  -32.8650   -2.6100 C.ar  160  PHE160     -0.0003
    201  CE2      -21.3940  -32.7750   -0.9970 C.ar  160  PHE160     -0.0003
    202  CZ       -20.1120  -33.1350   -1.3410 C.ar  160  PHE160     -0.0000
    203  N        -11.9580  -18.5020   -0.9130 N.3   183  TRP183     -0.1241
    204  CA       -11.2800  -18.8900    0.3640 C.3   183  TRP183      0.1605
    205  C        -10.1020  -17.9310    0.5900 C.2   183  TRP183      0.2264
    206  O         -9.9700  -17.3830    1.6990 O.2   183  TRP183     -0.2867
    207  CB       -10.8100  -20.3350    0.3190 C.3   183  TRP183      0.0550
    208  CG       -11.8730  -21.3480    0.6030 C.ar  183  TRP183      0.0003
    209  CD1      -13.0510  -21.5510   -0.0860 C.ar  183  TRP183      0.0946
    210  CD2      -11.7980  -22.4010    1.5670 C.ar  183  TRP183      0.0152
    211  NE1      -13.7270  -22.6090    0.4570 N.ar  183  TRP183     -0.2442
    212  CE2      -12.9880  -23.1460    1.4690 C.ar  183  TRP183      0.0810
    213  CE3      -10.8540  -22.7440    2.5260 C.ar  183  TRP183      0.0012
    214  CZ2      -13.2420  -24.2200    2.3120 C.ar  183  TRP183      0.0191
    215  CZ3      -11.0980  -23.8150    3.3410 C.ar  183  TRP183      0.0001
    216  CH2      -12.2760  -24.5230    3.2580 C.ar  183  TRP183      0.0015
@<TRIPOS>BOND
     1   195   194    2
     2   187   186    2
     3   194   193    1
     4    89    88    2
     5   186   185    1
     6   186   192   am
     7    88    87    1
     8   191   189    1
     9   185   184    1
    10   185   188    1
    11   193   192    1
    12   193   196    1
    13   188   189    1
    14    87    86    1
    15    87    90    1
    16   189   190    1
    17   196   197    1
    18    78    77    2
    19    90    91    1
    20   198   197   ar
    21   198   200   ar
    22    77    76    1
    23   197   199   ar
    24    73    71    1
    25    62    60    1
    26    70    69    2
    27    56    57    1
    28    69    68    1
    29   200   202   ar
    30    57    60    1
    31    57    58    1
    32    71    68    1
    33    71    72    1
    34   170   169    2
    35   178   177    2
    36    91    92   ar
    37    91    93   ar
    38    60    61    1
    39    76    75    1
    40    76    79    1
    41   199   201   ar
    42    59    58    2
    43    74    72    1
    44    68    67    1
    45    92    94   ar
    46    58    63   am
    47   202   201   ar
    48    34    35    1
    49    93    95   ar
    50   177   176    1
    51    44    45    2
    52    44    43    1
    53    79    80    1
    54   169   168    1
    55   169   175   am
    56    33    30    1
    57    67    65   am
    58   168   171    1
    59   168   167    1
    60   203   204    1
    61   173   172    2
    62   172   174   am
    63   172   171    1
    64    63    64    1
    65    65    66    2
    66    65    64    1
    67    94    96   ar
    68   176   175    1
    69   176   179    1
    70   209   211   ar
    71   209   208   ar
    72    42    36   am
    73    42    43    1
    74    35    36    1
    75    35    38    1
    76    36    37    2
    77    30    31    1
    78    30    29    1
    79    43    46    1
    80    31    32    2
    81    95    96   ar
    82    16    14    1
    83    46    47    1
    84   207   204    1
    85   207   208    1
    86    80    82   ar
    87    80    81   ar
    88   204   205    1
    89   211   212   ar
    90   205   206    2
    91   208   210   ar
    92    15    14    1
    93    82    84   ar
    94    14    13    1
    95    81    83   ar
    96   180   179    1
    97   180   181    1
    98    38    39    1
    99    29    24   am
   100   212   210   ar
   101   212   214   ar
   102   210   213   ar
   103    47    48   ar
   104    47    49   ar
   105    48    50   ar
   106   110   108   ar
   107   110   109   ar
   108    84    85   ar
   109    25    24    2
   110   183   181   ar
   111   214   216   ar
   112    24    23    1
   113    83    85   ar
   114   181   182   ar
   115   213   215   ar
   116    13    10    1
   117    39    40    1
   118   108   106   ar
   119   109   107   ar
   120   162   161    2
   121    49    52   ar
   122    49    51   ar
   123    10     9    1
   124    10    11    1
   125    50    51   ar
   126    52    54   ar
   127   216   215   ar
   128     1     2    1
   129   161   160    1
   130   106   104   ar
   131   106   105   ar
   132   107   104   ar
   133    23    22    1
   134    23    26    1
   135    51    53   ar
   136     2     5    1
   137     2     3    1
   138     7     6    1
   139   160   159    1
   140   160   163    1
   141   104   102   ar
   142    40    41    1
   143   105   103   ar
   144   132   131   ar
   145   132   130   ar
   146    22    28    1
   147    12    11    2
   148     5     6    1
   149   131   129   ar
   150    11    17   am
   151    54    55   ar
   152    26    27    1
   153     6     8    1
   154   130   128   ar
   155     3     4    2
   156   117   118    1
   157   117   116    1
   158   129   126   ar
   159   102   103   ar
   160   102   101    1
   161    53    55   ar
   162   163   164    1
   163   165   164    2
   164    17    18    1
   165   164   166   am
   166    27    28    1
   167   128   126   ar
   168   128   127   ar
   169   126   124   ar
   170   101    98    1
   171   116   115    1
   172   127   125   ar
   173   124   123    1
   174   124   125   ar
   175    18    19    1
   176    18    21    1
   177   150   149    1
   178   123   120    1
   179   151   149    1
   180    98    97    1
   181    98    99    1
   182    19    20    2
   183   142   140   ar
   184   142   143   ar
   185   157   156    1
   186   149   146    1
   187   144   143    1
   188   115   112    1
   189   100    99    2
   190   140   138   ar
   191   112   111    1
   192   112   113    1
   193   120   121    1
   194   120   119    1
   195   143   141   ar
   196   122   121    2
   197   146   145    1
   198   146   147    1
   199   156   158    1
   200   156   153    1
   201   145   135   am
   202   148   147    2
   203   114   113    2
   204   138   137    1
   205   138   139   ar
   206   141   139   ar
   207   155   154    2
   208   154   153    1
   209   153   152    1
   210   137   134    1
   211   135   136    2
   212   135   134    1
   213   134   133    1
