@<TRIPOS>MOLECULE
tmp/6ho5A00.pdb
 247 241 0 0 0
SMALL
GASTEIGER

@<TRIPOS>ATOM
      1  N         -6.3580  -35.1770    3.1970 N.3    63  LEU63      -0.1245
      2  CA        -6.0790  -33.8820    3.8800 C.3    63  LEU63       0.1561
      3  C         -5.0540  -34.1020    5.0060 C.2    63  LEU63       0.2260
      4  O         -4.1430  -33.2560    5.1300 O.2    63  LEU63      -0.2867
      5  CB        -7.3850  -33.2820    4.4100 C.3    63  LEU63       0.0270
      6  CG        -7.2590  -31.8930    5.0280 C.3    63  LEU63       0.0019
      7  CD1       -6.7140  -30.8780    4.0220 C.3    63  LEU63       0.0001
      8  CD2       -8.5990  -31.4550    5.6010 C.3    63  LEU63       0.0001
      9  N         -1.5980  -34.2870    3.4160 N.3    66  LEU66      -0.1231
     10  CA        -1.2290  -32.9110    2.9990 C.3    66  LEU66       0.1693
     11  C         -0.6920  -32.1050    4.1840 C.2    66  LEU66       0.2591
     12  O          0.3910  -31.4940    4.0410 O.2    66  LEU66      -0.2718
     13  CB        -2.4500  -32.2190    2.3900 C.3    66  LEU66       0.0284
     14  CG        -2.2840  -31.8180    0.9310 C.3    66  LEU66       0.0019
     15  CD1       -3.3810  -30.8570    0.5090 C.3    66  LEU66       0.0001
     16  CD2       -0.9070  -31.2010    0.6860 C.3    66  LEU66       0.0001
     17  N         -1.4390  -32.0730    5.2900 N.am   67  ALA67      -0.1980
     18  CA        -1.0740  -31.3680    6.5400 C.3    67  ALA67       0.1597
     19  C          0.3310  -31.7890    6.9940 C.2    67  ALA67       0.2287
     20  O          1.1270  -30.8900    7.2910 O.2    67  ALA67      -0.2864
     21  CB        -2.0960  -31.6330    7.6150 C.3    67  ALA67       0.0319
     22  N          3.6540  -30.5540    4.0990 N.3    70  PRO70      -0.2116
     23  CA         3.5390  -29.2240    3.5010 C.3    70  PRO70       0.1372
     24  C          4.1310  -29.1790    2.0830 C.2    70  PRO70       0.2244
     25  O          5.2390  -29.6400    1.8940 O.2    70  PRO70      -0.2868
     26  CB         4.3240  -28.2930    4.4510 C.3    70  PRO70       0.0268
     27  CG         4.8970  -29.1900    5.5470 C.3    70  PRO70       0.0207
     28  CD         4.1280  -30.4950    5.4900 C.3    70  PRO70       0.0892
     29  N          1.6070  -19.2240   -0.6230 N.3    75  ARG75      -0.1245
     30  CA         0.3370  -19.4730    0.1180 C.3    75  ARG75       0.1563
     31  C         -0.8160  -19.7910   -0.8660 C.2    75  ARG75       0.2260
     32  O         -1.5710  -20.7210   -0.5860 O.2    75  ARG75      -0.2867
     33  CB         0.0580  -18.2840    1.0540 C.3    75  ARG75       0.0307
     34  CG        -0.4720  -17.0500    0.3360 C.3    75  ARG75       0.0489
     35  CD        -0.2850  -15.7450    1.0810 C.3    75  ARG75       0.2205
     36  NE        -1.0420  -14.6860    0.4240 N.pl3  75  ARG75      -0.0865
     37  CZ        -0.9780  -13.4030    0.7430 C.cat  75  ARG75       0.5346
     38  NH1       -0.1700  -13.0100    1.7140 N.pl3  75  ARG75       0.1354
     39  NH2       -1.7190  -12.5230    0.0830 N.pl3  75  ARG75       0.1354
     40  N         -0.5660  -23.3210   -1.9660 N.3    78  MET78      -0.1230
     41  CA        -0.7600  -24.1580   -0.7580 C.3    78  MET78       0.1702
     42  C         -2.2740  -24.3390   -0.5680 C.2    78  MET78       0.2592
     43  O         -2.7180  -25.4840   -0.3790 O.2    78  MET78      -0.2718
     44  CB        -0.1180  -23.5310    0.4890 C.3    78  MET78       0.0401
     45  CG         1.4250  -23.6400    0.5570 C.3    78  MET78       0.0596
     46  SD         2.2440  -22.2720    1.5080 S.3    78  MET78      -0.1393
     47  CE         3.8090  -23.0120    1.9810 C.3    78  MET78       0.0692
     48  N         -3.0470  -23.2530   -0.6760 N.am   79  TRP79      -0.1976
     49  CA        -4.5160  -23.2800   -0.4720 C.3    79  TRP79       0.1640
     50  C         -5.1880  -24.0710   -1.6120 C.2    79  TRP79       0.2290
     51  O         -6.0090  -24.9670   -1.3260 O.2    79  TRP79      -0.2864
     52  CB        -5.0480  -21.8520   -0.3140 C.3    79  TRP79       0.0576
     53  CG        -4.8000  -21.2680    1.0410 C.ar   79  TRP79       0.0006
     54  CD1       -3.9580  -20.2400    1.3430 C.ar   79  TRP79       0.0946
     55  CD2       -5.4080  -21.6500    2.2870 C.ar   79  TRP79       0.0152
     56  NE1       -3.9910  -19.9630    2.6810 N.ar   79  TRP79      -0.2442
     57  CE2       -4.8610  -20.8160    3.2910 C.ar   79  TRP79       0.0810
     58  CE3       -6.3630  -22.6020    2.6520 C.ar   79  TRP79       0.0012
     59  CZ2       -5.2300  -20.8990    4.6280 C.ar   79  TRP79       0.0191
     60  CZ3       -6.7290  -22.6880    3.9760 C.ar   79  TRP79       0.0001
     61  CH2       -6.1760  -21.8440    4.9430 C.ar   79  TRP79       0.0015
     62  N         -4.9600  -27.7500   -1.2320 N.3    82  GLY82      -0.1210
     63  CA        -5.8480  -28.2430   -0.1680 C.3    82  GLY82       0.1956
     64  C         -7.2840  -28.3220   -0.6460 C.2    82  GLY82       0.2611
     65  O         -7.9480  -29.3470   -0.4180 O.2    82  GLY82      -0.2717
     66  N         -7.7690  -27.2680   -1.2860 N.am   83  ILE83      -0.1979
     67  CA        -9.1700  -27.2590   -1.7890 C.3    83  ILE83       0.1595
     68  C         -9.2770  -28.3790   -2.8350 C.2    83  ILE83       0.2287
     69  O        -10.3850  -28.9970   -2.9190 O.2    83  ILE83      -0.2864
     70  CB        -9.5670  -25.8700   -2.3180 C.3    83  ILE83       0.0276
     71  CG1       -9.4980  -24.8170   -1.2080 C.3    83  ILE83       0.0022
     72  CG2      -10.9430  -25.9240   -2.9550 C.3    83  ILE83       0.0022
     73  CD1       -9.6470  -23.3950   -1.7010 C.3    83  ILE83       0.0001
     74  N        -10.6340  -31.9670   -1.9890 N.3    86  PHE86      -0.1241
     75  CA       -12.1160  -32.0590   -1.9910 C.3    86  PHE86       0.1605
     76  C        -12.6150  -32.0880   -3.4440 C.2    86  PHE86       0.2264
     77  O        -13.4770  -32.9300   -3.7290 O.2    86  PHE86      -0.2867
     78  CB       -12.7080  -30.9580   -1.1060 C.3    86  PHE86       0.0534
     79  CG       -12.3860  -31.1690    0.3510 C.ar   86  PHE86      -0.0203
     80  CD1      -13.1570  -32.0120    1.1350 C.ar   86  PHE86      -0.0042
     81  CD2      -11.2790  -30.5780    0.9290 C.ar   86  PHE86      -0.0042
     82  CE1      -12.8350  -32.2390    2.4660 C.ar   86  PHE86      -0.0003
     83  CE2      -10.9660  -30.8000    2.2630 C.ar   86  PHE86      -0.0003
     84  CZ       -11.7420  -31.6310    3.0300 C.ar   86  PHE86      -0.0000
     85  N        -14.2130  -35.8800   -4.1670 N.3    90  PHE90      -0.1241
     86  CA       -15.6840  -35.8860   -4.3700 C.3    90  PHE90       0.1605
     87  C        -15.9590  -35.8930   -5.8920 C.2    90  PHE90       0.2264
     88  O        -16.9950  -36.4290   -6.3290 O.2    90  PHE90      -0.2867
     89  CB       -16.3010  -34.7390   -3.5480 C.3    90  PHE90       0.0534
     90  CG       -16.3420  -35.0260   -2.0660 C.ar   90  PHE90      -0.0203
     91  CD1      -17.3390  -35.8240   -1.5310 C.ar   90  PHE90      -0.0042
     92  CD2      -15.3690  -34.5340   -1.2120 C.ar   90  PHE90      -0.0042
     93  CE1      -17.3820  -36.0980   -0.1680 C.ar   90  PHE90      -0.0003
     94  CE2      -15.3770  -34.8500    0.1390 C.ar   90  PHE90      -0.0003
     95  CZ       -16.3920  -35.6200    0.6660 C.ar   90  PHE90      -0.0000
     96  N        -21.9430  -36.5180    7.8040 N.3   114  TRP114     -0.1241
     97  CA       -21.5530  -35.2810    7.0880 C.3   114  TRP114      0.1605
     98  C        -21.2170  -34.2100    8.1340 C.2   114  TRP114      0.2264
     99  O        -20.1560  -33.5350    8.0310 O.2   114  TRP114     -0.2867
    100  CB       -22.6530  -34.8450    6.1150 C.3   114  TRP114      0.0550
    101  CG       -22.0980  -33.8120    5.2000 C.ar  114  TRP114      0.0003
    102  CD1      -22.1980  -32.4500    5.2800 C.ar  114  TRP114      0.0946
    103  CD2      -21.2170  -34.0950    4.1100 C.ar  114  TRP114      0.0152
    104  NE1      -21.4540  -31.8630    4.2900 N.ar  114  TRP114     -0.2442
    105  CE2      -20.8400  -32.8520    3.5560 C.ar  114  TRP114      0.0810
    106  CE3      -20.7240  -35.2790    3.5630 C.ar  114  TRP114      0.0012
    107  CZ2      -19.9700  -32.7730    2.4670 C.ar  114  TRP114      0.0191
    108  CZ3      -19.8810  -35.1960    2.4810 C.ar  114  TRP114      0.0001
    109  CH2      -19.5080  -33.9620    1.9460 C.ar  114  TRP114      0.0015
    110  N        -17.5420  -32.2240    8.5320 N.3   118  MET118     -0.1245
    111  CA       -17.5770  -30.7580    8.2730 C.3   118  MET118      0.1570
    112  C        -17.0650  -30.0410    9.5330 C.2   118  MET118      0.2261
    113  O        -16.2800  -29.0870    9.4120 O.2   118  MET118     -0.2867
    114  CB       -18.9870  -30.2790    7.9060 C.3   118  MET118      0.0387
    115  CG       -19.4520  -30.7280    6.5360 C.3   118  MET118      0.0595
    116  SD       -18.5310  -29.9290    5.2030 S.3   118  MET118     -0.1393
    117  CE       -19.0940  -28.2290    5.2950 C.3   118  MET118      0.0692
    118  N        -13.2130  -30.4790    9.4530 N.3   121  TRP121     -0.1241
    119  CA       -12.5630  -29.6880    8.3670 C.3   121  TRP121      0.1605
    120  C        -12.6250  -28.1840    8.6550 C.2   121  TRP121      0.2264
    121  O        -11.6220  -27.4760    8.4320 O.2   121  TRP121     -0.2867
    122  CB       -13.1800  -30.0420    7.0060 C.3   121  TRP121      0.0550
    123  CG       -12.9690  -31.4830    6.6540 C.ar  121  TRP121      0.0003
    124  CD1      -11.8940  -32.2560    6.9790 C.ar  121  TRP121      0.0946
    125  CD2      -13.8680  -32.3360    5.9360 C.ar  121  TRP121      0.0152
    126  NE1      -12.0650  -33.5270    6.5100 N.ar  121  TRP121     -0.2442
    127  CE2      -13.2660  -33.6040    5.8650 C.ar  121  TRP121      0.0810
    128  CE3      -15.1290  -32.1550    5.3660 C.ar  121  TRP121      0.0012
    129  CZ2      -13.8740  -34.6800    5.2310 C.ar  121  TRP121      0.0191
    130  CZ3      -15.7130  -33.2100    4.7050 C.ar  121  TRP121      0.0001
    131  CH2      -15.1020  -34.4600    4.6580 C.ar  121  TRP121      0.0015
    132  N         -9.9880  -27.5720   11.5040 N.3   124  TYR124     -0.1227
    133  CA        -8.6370  -27.5690   10.8900 C.3   124  TYR124      0.1736
    134  C         -8.4030  -26.2110   10.2010 C.2   124  TYR124      0.2596
    135  O         -7.3080  -25.6330   10.3770 O.2   124  TYR124     -0.2718
    136  CB        -8.4410  -28.7920    9.9840 C.3   124  TYR124      0.0548
    137  CG        -7.0950  -28.7550    9.3210 C.ar  124  TYR124     -0.0200
    138  CD1       -5.9370  -28.7000   10.0800 C.ar  124  TYR124     -0.0009
    139  CD2       -6.9770  -28.6680    7.9460 C.ar  124  TYR124     -0.0009
    140  CE1       -4.6920  -28.5970    9.4880 C.ar  124  TYR124      0.0417
    141  CE2       -5.7350  -28.5800    7.3380 C.ar  124  TYR124      0.0417
    142  CZ        -4.5880  -28.5270    8.1080 C.ar  124  TYR124      0.1957
    143  OH        -3.3660  -28.4310    7.5010 O.3   124  TYR124     -0.2866
    144  N         -9.4040  -25.6930    9.4770 N.am  125  THR125     -0.1953
    145  CA        -9.3490  -24.4140    8.7040 C.3   125  THR125      0.1897
    146  C         -9.2030  -23.2630    9.6970 C.2   125  THR125      0.2313
    147  O         -8.3860  -22.3640    9.4620 O.2   125  THR125     -0.2863
    148  CB       -10.5860  -24.1940    7.8060 C.3   125  THR125      0.1794
    149  OG1      -10.8080  -25.3110    6.9440 O.3   125  THR125     -0.2208
    150  CG2      -10.5030  -22.9550    6.9350 C.3   125  THR125      0.0378
    151  N         -5.6890  -23.3600   11.1710 N.3   128  VAL128     -0.1245
    152  CA        -4.7530  -22.8500   10.1290 C.3   128  VAL128      0.1561
    153  C         -4.8880  -21.3180   10.0490 C.2   128  VAL128      0.2260
    154  O         -3.8720  -20.6400   10.0670 O.2   128  VAL128     -0.2867
    155  CB        -4.9820  -23.5450    8.7750 C.3   128  VAL128      0.0252
    156  CG1       -4.2160  -22.8640    7.6620 C.3   128  VAL128      0.0019
    157  CG2       -4.6200  -25.0220    8.8300 C.3   128  VAL128      0.0019
    158  N         -1.8280  -18.6580   10.9150 N.3   132  GLU132     -0.1245
    159  CA        -1.4450  -17.5970    9.9560 C.3   132  GLU132      0.1567
    160  C         -1.5250  -16.2140   10.6210 C.2   132  GLU132      0.2260
    161  O         -0.7200  -15.3440   10.2760 O.2   132  GLU132     -0.2867
    162  CB        -2.3400  -17.6730    8.7210 C.3   132  GLU132      0.0388
    163  CG        -1.9430  -18.7690    7.7630 C.3   132  GLU132      0.1160
    164  CD        -0.6550  -18.4870    7.0160 C.2   132  GLU132      0.3649
    165  OE1       -0.7410  -18.1850    5.8300 O.co2 132  GLU132     -0.2457
    166  OE2        0.4270  -18.6110    7.6180 O.co2 132  GLU132     -0.2457
    167  N          1.4580  -15.8700   13.2590 N.3   135  ARG135     -0.1245
    168  CA         2.7570  -15.6550   12.5620 C.3   135  ARG135      0.1563
    169  C          2.7410  -14.3260   11.7750 C.2   135  ARG135      0.2260
    170  O          3.7510  -14.0090   11.1530 O.2   135  ARG135     -0.2867
    171  CB         3.1150  -16.9050   11.7480 C.3   135  ARG135      0.0307
    172  CG         2.8560  -16.8360   10.2540 C.3   135  ARG135      0.0489
    173  CD         3.1470  -18.1750    9.6020 C.3   135  ARG135      0.2205
    174  NE         2.9890  -19.3200   10.5080 N.pl3 135  ARG135     -0.0865
    175  CZ         2.0690  -20.2970   10.4190 C.cat 135  ARG135      0.5346
    176  NH1        1.1530  -20.3130    9.4570 N.pl3 135  ARG135      0.1354
    177  NH2        2.0790  -21.2730   11.3130 N.pl3 135  ARG135      0.1354
    178  N        -16.1410  -23.1540    4.2460 N.3   152  ASN152     -0.1240
    179  CA       -16.3740  -24.6130    4.0790 C.3   152  ASN152      0.1653
    180  C        -17.7750  -24.8290    3.4880 C.2   152  ASN152      0.2266
    181  O        -17.9470  -25.7570    2.6750 O.2   152  ASN152     -0.2867
    182  CB       -16.1670  -25.3830    5.3880 C.3   152  ASN152      0.1155
    183  CG       -14.7310  -25.8390    5.6180 C.2   152  ASN152      0.2627
    184  OD1      -13.8100  -25.0350    5.8500 O.2   152  ASN152     -0.2716
    185  ND2      -14.5410  -27.1430    5.6150 N.am  152  ASN152     -0.0877
    186  N        -17.7920  -24.0150   -0.1670 N.3   155  ASN155     -0.1225
    187  CA       -17.0980  -25.0650   -0.9590 C.3   155  ASN155      0.1785
    188  C        -18.0360  -26.2540   -1.1640 C.2   155  ASN155      0.2597
    189  O        -18.1130  -26.7340   -2.2870 O.2   155  ASN155     -0.2718
    190  CB       -15.7790  -25.5120   -0.3360 C.3   155  ASN155      0.1169
    191  CG       -14.6710  -24.5160   -0.5730 C.2   155  ASN155      0.2627
    192  OD1      -14.9490  -23.3870   -0.9910 O.2   155  ASN155     -0.2716
    193  ND2      -13.4410  -24.9160   -0.2770 N.am  155  ASN155     -0.0877
    194  N        -18.6880  -26.7240   -0.1050 N.am  156  GLU156     -0.1979
    195  CA       -19.7040  -27.8010   -0.1990 C.3   156  GLU156      0.1602
    196  C        -20.7290  -27.4430   -1.2830 C.2   156  GLU156      0.2287
    197  O        -20.8530  -28.1850   -2.2420 O.2   156  GLU156     -0.2864
    198  CB       -20.3830  -28.0310    1.1430 C.3   156  GLU156      0.0415
    199  CG       -21.4190  -29.1510    1.1220 C.3   156  GLU156      0.1163
    200  CD       -22.3860  -29.0260    2.2810 C.2   156  GLU156      0.3649
    201  OE1      -21.9130  -28.9140    3.4120 O.co2 156  GLU156     -0.2457
    202  OE2      -23.6040  -28.9900    2.0490 O.co2 156  GLU156     -0.2457
    203  N        -18.8600  -26.6870   -4.9860 N.3   159  LEU159     -0.1231
    204  CA       -18.3380  -27.9390   -5.6000 C.3   159  LEU159      0.1693
    205  C        -19.5030  -28.8180   -6.0410 C.2   159  LEU159      0.2592
    206  O        -19.5250  -29.1940   -7.2280 O.2   159  LEU159     -0.2718
    207  CB       -17.3980  -28.6760   -4.6530 C.3   159  LEU159      0.0284
    208  CG       -16.0480  -27.9890   -4.4740 C.3   159  LEU159      0.0019
    209  CD1      -15.2630  -28.6400   -3.3520 C.3   159  LEU159      0.0001
    210  CD2      -15.2440  -27.9960   -5.7650 C.3   159  LEU159      0.0001
    211  N        -20.4660  -29.0900   -5.1660 N.am  160  PHE160     -0.1976
    212  CA       -21.5620  -30.0410   -5.4970 C.3   160  PHE160      0.1639
    213  C        -22.4280  -29.4960   -6.6430 C.2   160  PHE160      0.2290
    214  O        -22.8910  -30.2910   -7.4650 O.2   160  PHE160     -0.2864
    215  CB       -22.3650  -30.4490   -4.2580 C.3   160  PHE160      0.0560
    216  CG       -21.5600  -31.1560   -3.2000 C.ar  160  PHE160     -0.0200
    217  CD1      -20.2200  -31.4820   -3.4070 C.ar  160  PHE160     -0.0042
    218  CD2      -22.1180  -31.4330   -1.9650 C.ar  160  PHE160     -0.0042
    219  CE1      -19.4580  -32.0650   -2.4000 C.ar  160  PHE160     -0.0003
    220  CE2      -21.3650  -32.0460   -0.9700 C.ar  160  PHE160     -0.0003
    221  CZ       -20.0380  -32.3630   -1.1870 C.ar  160  PHE160     -0.0000
    222  N        -11.1460  -17.7780   -0.8250 N.3   183  TRP183     -0.1241
    223  CA       -10.4120  -18.1710    0.4130 C.3   183  TRP183      0.1605
    224  C         -9.2780  -17.1810    0.6650 C.2   183  TRP183      0.2264
    225  O         -9.2080  -16.5860    1.7720 O.2   183  TRP183     -0.2867
    226  CB        -9.8660  -19.6040    0.3370 C.3   183  TRP183      0.0550
    227  CG       -10.9290  -20.6340    0.5560 C.ar  183  TRP183      0.0003
    228  CD1      -12.1190  -20.7630   -0.1080 C.ar  183  TRP183      0.0946
    229  CD2      -10.9150  -21.6640    1.5510 C.ar  183  TRP183      0.0152
    230  NE1      -12.8320  -21.8290    0.3840 N.ar  183  TRP183     -0.2442
    231  CE2      -12.1290  -22.3800    1.4240 C.ar  183  TRP183      0.0810
    232  CE3      -10.0010  -22.0450    2.5380 C.ar  183  TRP183      0.0012
    233  CZ2      -12.4310  -23.4720    2.2410 C.ar  183  TRP183      0.0191
    234  CZ3      -10.3110  -23.1150    3.3480 C.ar  183  TRP183      0.0001
    235  CH2      -11.5050  -23.8210    3.1990 C.ar  183  TRP183      0.0015
    236  N         -6.7970  -13.2540    3.8180 N.3   188  TYR188     -0.1241
    237  CA        -5.6100  -12.3500    3.9000 C.3   188  TYR188      0.1605
    238  C         -5.9710  -10.8730    3.7310 C.2   188  TYR188      0.2264
    239  O         -5.0890  -10.0600    3.9510 O.2   188  TYR188     -0.2867
    240  CB        -4.5510  -12.7560    2.8790 C.3   188  TYR188      0.0534
    241  CG        -3.9990  -14.1150    3.1930 C.ar  188  TYR188     -0.0201
    242  CD1       -3.0440  -14.2790    4.1860 C.ar  188  TYR188     -0.0009
    243  CD2       -4.4580  -15.2350    2.5290 C.ar  188  TYR188     -0.0009
    244  CE1       -2.5840  -15.5390    4.5340 C.ar  188  TYR188      0.0417
    245  CE2       -3.9660  -16.4920    2.8220 C.ar  188  TYR188      0.0417
    246  CZ        -3.0480  -16.6490    3.8450 C.ar  188  TYR188      0.1957
    247  OH        -2.5960  -17.9050    4.1470 O.3   188  TYR188     -0.2866
@<TRIPOS>BOND
     1   214   213    2
     2   206   205    2
     3   213   212    1
     4    88    87    2
     5   205   204    1
     6   205   211   am
     7    87    86    1
     8   210   208    1
     9   204   203    1
    10   204   207    1
    11   212   211    1
    12   212   215    1
    13   207   208    1
    14   208   209    1
    15    86    85    1
    16    86    89    1
    17   215   216    1
    18    77    76    2
    19    89    90    1
    20    76    75    1
    21   217   216   ar
    22   217   219   ar
    23   216   218   ar
    24    72    70    1
    25    69    68    2
    26    68    67    1
    27   219   221   ar
    28    70    67    1
    29    70    71    1
    30   189   188    2
    31   197   196    2
    32    90    91   ar
    33    90    92   ar
    34    75    74    1
    35    75    78    1
    36    40    41    1
    37   218   220   ar
    38    67    66    1
    39    73    71    1
    40    50    51    2
    41    50    49    1
    42    91    93   ar
    43    66    64   am
    44   196   195    1
    45    62    63    1
    46    92    94   ar
    47   221   220   ar
    48   188   187    1
    49   188   194   am
    50    78    79    1
    51   192   191    2
    52   187   190    1
    53   187   186    1
    54    31    32    2
    55    31    30    1
    56   222   223    1
    57    41    42    1
    58    41    44    1
    59    48    42   am
    60    48    49    1
    61    64    65    2
    62    64    63    1
    63    29    30    1
    64   191   190    1
    65   191   193   am
    66    42    43    2
    67    49    52    1
    68    52    53    1
    69   195   194    1
    70   195   198    1
    71    93    95   ar
    72   228   230   ar
    73   228   227   ar
    74    39    37    1
    75    30    33    1
    76    94    95   ar
    77    34    33    1
    78    34    35    1
    79   226   223    1
    80   226   227    1
    81    79    81   ar
    82    79    80   ar
    83   230   231   ar
    84   223   224    1
    85    36    37    2
    86    36    35    1
    87    44    45    1
    88    15    14    1
    89   227   229   ar
    90    45    46    1
    91   224   225    2
    92    16    14    1
    93    37    38    1
    94    81    83   ar
    95    14    13    1
    96    53    54   ar
    97    53    55   ar
    98   199   198    1
    99   199   200    1
   100    80    82   ar
   101    54    56   ar
   102   231   229   ar
   103   231   233   ar
   104    46    47    1
   105   229   232   ar
   106    25    24    2
   107   109   107   ar
   108   109   108   ar
   109   202   200   ar
   110    24    23    1
   111   233   235   ar
   112    83    84   ar
   113   200   201   ar
   114    55    58   ar
   115    55    57   ar
   116    13    10    1
   117    82    84   ar
   118   107   105   ar
   119   108   106   ar
   120   243   245   ar
   121   243   241   ar
   122   232   234   ar
   123    58    60   ar
   124   181   180    2
   125    56    57   ar
   126   245   246   ar
   127   240   241    1
   128   240   237    1
   129    10     9    1
   130    10    11    1
   131   241   242   ar
   132     1     2    1
   133   235   234   ar
   134    57    59   ar
   135   180   179    1
   136    23    22    1
   137    23    26    1
   138   105   103   ar
   139   105   104   ar
   140   106   103   ar
   141   238   237    1
   142   238   239    2
   143   236   237    1
   144   246   247    1
   145   246   244   ar
   146     2     5    1
   147     2     3    1
   148    60    61   ar
   149     7     6    1
   150    12    11    2
   151   179   178    1
   152   179   182    1
   153    22    28    1
   154   103   101   ar
   155    11    17   am
   156   242   244   ar
   157   104   102   ar
   158     5     6    1
   159    26    27    1
   160    59    61   ar
   161   131   130   ar
   162   131   129   ar
   163   130   128   ar
   164     3     4    2
   165     6     8    1
   166   101   102   ar
   167   101   100    1
   168   116   117    1
   169   116   115    1
   170   129   127   ar
   171    17    18    1
   172   128   125   ar
   173   182   183    1
   174    28    27    1
   175   185   183   am
   176   183   184    2
   177   165   164   ar
   178   127   125   ar
   179   127   126   ar
   180   125   123   ar
   181   100    97    1
   182   126   124   ar
   183   115   114    1
   184    18    19    1
   185    18    21    1
   186   123   124   ar
   187   123   122    1
   188   150   148    1
   189   149   148    1
   190    19    20    2
   191   122   119    1
   192   164   166   ar
   193   164   163    1
   194    97    96    1
   195    97    98    1
   196   141   139   ar
   197   141   142   ar
   198   143   142    1
   199   156   155    1
   200   163   162    1
   201   148   145    1
   202   114   111    1
   203   139   137   ar
   204    99    98    2
   205   142   140   ar
   206   111   110    1
   207   111   112    1
   208   119   120    1
   209   119   118    1
   210   121   120    2
   211   145   144    1
   212   145   146    1
   213   162   159    1
   214   155   157    1
   215   155   152    1
   216   137   136    1
   217   137   138   ar
   218   113   112    2
   219   176   175    1
   220   147   146    2
   221   144   134   am
   222   140   138   ar
   223   173   172    1
   224   173   174    1
   225   159   160    1
   226   159   158    1
   227   136   133    1
   228   153   154    2
   229   153   152    1
   230   152   151    1
   231   134   135    2
   232   134   133    1
   233   172   171    1
   234   161   160    2
   235   175   174    2
   236   175   177    1
   237   133   132    1
   238   170   169    2
   239   171   168    1
   240   169   168    1
   241   168   167    1
